MODEL 1
REMARK VINA RESULT:      -7.5      0.000      0.000
REMARK  8 active torsions:
REMARK  status: ('A' for Active; 'I' for Inactive)
REMARK    1  A    between atoms: C_2  and  N_3 
REMARK    2  A    between atoms: C_2  and  C_17 
REMARK    3  A    between atoms: N_3  and  C_6 
REMARK    4  A    between atoms: C_6  and  C_7 
REMARK    5  A    between atoms: C_7  and  O_8 
REMARK    6  A    between atoms: C_7  and  C_9 
REMARK    7  A    between atoms: C_11  and  O_12 
REMARK    8  A    between atoms: C_17  and  C_18 
ROOT
HETATM    1  N   UNL     1      40.461 -14.754   4.141  1.00  0.00    -0.068 N 
HETATM    2  H   UNL     1      40.592 -15.710   3.781  1.00  0.00     0.277 HD
HETATM    3  H   UNL     1      39.489 -14.739   4.498  1.00  0.00     0.277 HD
ENDROOT
BRANCH   1   4
HETATM    4  C   UNL     1      41.475 -14.481   5.225  1.00  0.00     0.188 C 
HETATM    5  C   UNL     1      41.258 -13.033   5.674  1.00  0.00     0.040 C 
BRANCH   4   6
HETATM    6  C   UNL     1      42.905 -14.710   4.703  1.00  0.00     0.099 C 
BRANCH   6   7
HETATM    7  C   UNL     1      43.148 -16.154   4.386  1.00  0.00     0.078 A 
HETATM    8  S   UNL     1      43.880 -17.181   5.544  1.00  0.00    -0.073 SA
HETATM    9  C   UNL     1      43.794 -18.495   4.434  1.00  0.00     0.035 A 
HETATM   10  C   UNL     1      43.208 -18.048   3.247  1.00  0.00     0.074 A 
HETATM   11  C   UNL     1      44.213 -19.825   4.599  1.00  0.00     0.021 A 
HETATM   12  N   UNL     1      42.852 -16.705   3.232  1.00  0.00    -0.245 NA
HETATM   13  C   UNL     1      43.029 -18.963   2.190  1.00  0.00     0.033 A 
HETATM   14  C   UNL     1      43.441 -20.291   2.346  1.00  0.00     0.002 A 
HETATM   15  C   UNL     1      44.026 -20.714   3.535  1.00  0.00     0.002 A 
ENDBRANCH   6   7
ENDBRANCH   4   6
ENDBRANCH   1   4
BRANCH   1  16
HETATM   16  C   UNL     1      40.476 -13.831   2.941  1.00  0.00     0.269 C 
BRANCH  16  17
HETATM   17  C   UNL     1      39.926 -14.609   1.724  1.00  0.00     0.177 C 
BRANCH  17  18
HETATM   18  O   UNL     1      40.554 -15.900   1.737  1.00  0.00    -0.389 OA
HETATM   19  H   UNL     1      40.901 -16.026   2.645  1.00  0.00     0.210 HD
ENDBRANCH  17  18
BRANCH  17  20
HETATM   20  C   UNL     1      40.205 -13.889   0.423  1.00  0.00    -0.025 A 
HETATM   21  C   UNL     1      39.785 -14.473  -0.788  1.00  0.00     0.046 A 
HETATM   22  C   UNL     1      39.987 -13.819  -2.005  1.00  0.00     0.068 A 
HETATM   23  C   UNL     1      40.597 -12.565  -2.015  1.00  0.00     0.037 A 
HETATM   24  C   UNL     1      41.029 -11.978  -0.829  1.00  0.00     0.003 A 
HETATM   25  C   UNL     1      40.840 -12.636   0.385  1.00  0.00     0.010 A 
BRANCH  22  26
HETATM   26  O   UNL     1      39.617 -14.285  -3.235  1.00  0.00    -0.356 OA
HETATM   27  C   UNL     1      38.278 -14.745  -3.381  1.00  0.00     0.210 C 
ENDBRANCH  22  26
ENDBRANCH  17  20
ENDBRANCH  16  17
ENDBRANCH   1  16
TORSDOF 8
ENDMDL
MODEL 2
REMARK VINA RESULT:      -7.3      2.787      4.877
REMARK  8 active torsions:
REMARK  status: ('A' for Active; 'I' for Inactive)
REMARK    1  A    between atoms: C_2  and  N_3 
REMARK    2  A    between atoms: C_2  and  C_17 
REMARK    3  A    between atoms: N_3  and  C_6 
REMARK    4  A    between atoms: C_6  and  C_7 
REMARK    5  A    between atoms: C_7  and  O_8 
REMARK    6  A    between atoms: C_7  and  C_9 
REMARK    7  A    between atoms: C_11  and  O_12 
REMARK    8  A    between atoms: C_17  and  C_18 
ROOT
HETATM    1  N   UNL     1      39.062 -12.107   2.625  1.00  0.00    -0.068 N 
HETATM    2  H   UNL     1      39.037 -12.823   3.366  1.00  0.00     0.277 HD
HETATM    3  H   UNL     1      38.087 -12.054   2.279  1.00  0.00     0.277 HD
ENDROOT
BRANCH   1   4
HETATM    4  C   UNL     1      39.536 -10.798   3.206  1.00  0.00     0.188 C 
HETATM    5  C   UNL     1      40.773 -10.384   2.404  1.00  0.00     0.040 C 
BRANCH   4   6
HETATM    6  C   UNL     1      39.852 -10.951   4.706  1.00  0.00     0.099 C 
BRANCH   6   7
HETATM    7  C   UNL     1      40.592 -12.224   4.983  1.00  0.00     0.078 A 
HETATM    8  S   UNL     1      42.303 -12.233   5.040  1.00  0.00    -0.073 SA
HETATM    9  C   UNL     1      42.284 -13.927   5.352  1.00  0.00     0.035 A 
HETATM   10  C   UNL     1      40.958 -14.366   5.389  1.00  0.00     0.074 A 
HETATM   11  C   UNL     1      43.362 -14.804   5.551  1.00  0.00     0.021 A 
HETATM   12  N   UNL     1      40.003 -13.382   5.168  1.00  0.00    -0.245 NA
HETATM   13  C   UNL     1      40.700 -15.729   5.638  1.00  0.00     0.033 A 
HETATM   14  C   UNL     1      41.767 -16.611   5.840  1.00  0.00     0.002 A 
HETATM   15  C   UNL     1      43.080 -16.152   5.796  1.00  0.00     0.002 A 
ENDBRANCH   6   7
ENDBRANCH   4   6
ENDBRANCH   1   4
BRANCH   1  16
HETATM   16  C   UNL     1      39.875 -12.686   1.487  1.00  0.00     0.269 C 
BRANCH  16  17
HETATM   17  C   UNL     1      39.754 -14.226   1.539  1.00  0.00     0.177 C 
BRANCH  17  18
HETATM   18  O   UNL     1      38.848 -14.536   2.610  1.00  0.00    -0.389 OA
HETATM   19  H   UNL     1      38.997 -15.480   2.829  1.00  0.00     0.210 HD
ENDBRANCH  17  18
BRANCH  17  20
HETATM   20  C   UNL     1      41.095 -14.889   1.761  1.00  0.00    -0.025 A 
HETATM   21  C   UNL     1      41.142 -16.273   2.020  1.00  0.00     0.046 A 
HETATM   22  C   UNL     1      42.363 -16.928   2.188  1.00  0.00     0.068 A 
HETATM   23  C   UNL     1      43.549 -16.203   2.080  1.00  0.00     0.037 A 
HETATM   24  C   UNL     1      43.522 -14.832   1.836  1.00  0.00     0.003 A 
HETATM   25  C   UNL     1      42.303 -14.175   1.682  1.00  0.00     0.010 A 
BRANCH  22  26
HETATM   26  O   UNL     1      42.529 -18.261   2.435  1.00  0.00    -0.356 OA
HETATM   27  C   UNL     1      43.815 -18.688   2.870  1.00  0.00     0.210 C 
ENDBRANCH  22  26
ENDBRANCH  17  20
ENDBRANCH  16  17
ENDBRANCH   1  16
TORSDOF 8
ENDMDL
MODEL 3
REMARK VINA RESULT:      -7.2      1.189      1.897
REMARK  8 active torsions:
REMARK  status: ('A' for Active; 'I' for Inactive)
REMARK    1  A    between atoms: C_2  and  N_3 
REMARK    2  A    between atoms: C_2  and  C_17 
REMARK    3  A    between atoms: N_3  and  C_6 
REMARK    4  A    between atoms: C_6  and  C_7 
REMARK    5  A    between atoms: C_7  and  O_8 
REMARK    6  A    between atoms: C_7  and  C_9 
REMARK    7  A    between atoms: C_11  and  O_12 
REMARK    8  A    between atoms: C_17  and  C_18 
ROOT
HETATM    1  N   UNL     1      40.300 -14.733   3.260  1.00  0.00    -0.068 N 
HETATM    2  H   UNL     1      40.588 -15.681   2.979  1.00  0.00     0.277 HD
HETATM    3  H   UNL     1      39.321 -14.841   3.582  1.00  0.00     0.277 HD
ENDROOT
BRANCH   1   4
HETATM    4  C   UNL     1      41.211 -14.235   4.355  1.00  0.00     0.188 C 
HETATM    5  C   UNL     1      40.910 -12.745   4.533  1.00  0.00     0.040 C 
BRANCH   4   6
HETATM    6  C   UNL     1      42.687 -14.481   3.989  1.00  0.00     0.099 C 
BRANCH   6   7
HETATM    7  C   UNL     1      42.995 -15.945   3.912  1.00  0.00     0.078 A 
HETATM    8  S   UNL     1      43.687 -16.753   5.255  1.00  0.00    -0.073 SA
HETATM    9  C   UNL     1      43.713 -18.223   4.357  1.00  0.00     0.035 A 
HETATM   10  C   UNL     1      43.187 -17.986   3.084  1.00  0.00     0.074 A 
HETATM   11  C   UNL     1      44.164 -19.494   4.749  1.00  0.00     0.021 A 
HETATM   12  N   UNL     1      42.790 -16.677   2.843  1.00  0.00    -0.245 NA
HETATM   13  C   UNL     1      43.105 -19.058   2.173  1.00  0.00     0.033 A 
HETATM   14  C   UNL     1      43.549 -20.329   2.555  1.00  0.00     0.002 A 
HETATM   15  C   UNL     1      44.072 -20.541   3.826  1.00  0.00     0.002 A 
ENDBRANCH   6   7
ENDBRANCH   4   6
ENDBRANCH   1   4
BRANCH   1  16
HETATM   16  C   UNL     1      40.232 -13.904   1.996  1.00  0.00     0.269 C 
BRANCH  16  17
HETATM   17  C   UNL     1      40.432 -14.847   0.787  1.00  0.00     0.177 C 
BRANCH  17  18
HETATM   18  O   UNL     1      41.842 -15.098   0.685  1.00  0.00    -0.389 OA
HETATM   19  H   UNL     1      42.268 -14.560   1.384  1.00  0.00     0.210 HD
ENDBRANCH  17  18
BRANCH  17  20
HETATM   20  C   UNL     1      39.901 -14.240  -0.493  1.00  0.00    -0.025 A 
HETATM   21  C   UNL     1      40.060 -12.858  -0.715  1.00  0.00     0.046 A 
HETATM   22  C   UNL     1      39.621 -12.269  -1.902  1.00  0.00     0.068 A 
HETATM   23  C   UNL     1      39.036 -13.066  -2.885  1.00  0.00     0.037 A 
HETATM   24  C   UNL     1      38.860 -14.432  -2.679  1.00  0.00     0.003 A 
HETATM   25  C   UNL     1      39.285 -15.018  -1.488  1.00  0.00     0.010 A 
BRANCH  22  26
HETATM   26  O   UNL     1      39.729 -10.947  -2.227  1.00  0.00    -0.356 OA
HETATM   27  C   UNL     1      41.028 -10.368  -2.180  1.00  0.00     0.210 C 
ENDBRANCH  22  26
ENDBRANCH  17  20
ENDBRANCH  16  17
ENDBRANCH   1  16
TORSDOF 8
ENDMDL
MODEL 4
REMARK VINA RESULT:      -7.1      2.725      7.272
REMARK  8 active torsions:
REMARK  status: ('A' for Active; 'I' for Inactive)
REMARK    1  A    between atoms: C_2  and  N_3 
REMARK    2  A    between atoms: C_2  and  C_17 
REMARK    3  A    between atoms: N_3  and  C_6 
REMARK    4  A    between atoms: C_6  and  C_7 
REMARK    5  A    between atoms: C_7  and  O_8 
REMARK    6  A    between atoms: C_7  and  C_9 
REMARK    7  A    between atoms: C_11  and  O_12 
REMARK    8  A    between atoms: C_17  and  C_18 
ROOT
HETATM    1  N   UNL     1      39.691 -14.148   2.776  1.00  0.00    -0.068 N 
HETATM    2  H   UNL     1      38.877 -14.214   3.404  1.00  0.00     0.277 HD
HETATM    3  H   UNL     1      39.284 -14.027   1.831  1.00  0.00     0.277 HD
ENDROOT
BRANCH   1   4
HETATM    4  C   UNL     1      40.548 -12.976   3.186  1.00  0.00     0.188 C 
HETATM    5  C   UNL     1      40.135 -12.607   4.614  1.00  0.00     0.040 C 
BRANCH   4   6
HETATM    6  C   UNL     1      40.359 -11.797   2.213  1.00  0.00     0.099 C 
BRANCH   6   7
HETATM    7  C   UNL     1      39.761 -12.248   0.916  1.00  0.00     0.078 A 
HETATM    8  S   UNL     1      38.250 -11.629   0.400  1.00  0.00    -0.073 SA
HETATM    9  C   UNL     1      38.330 -12.611  -1.013  1.00  0.00     0.035 A 
HETATM   10  C   UNL     1      39.516 -13.348  -0.986  1.00  0.00     0.074 A 
HETATM   11  C   UNL     1      37.411 -12.721  -2.069  1.00  0.00     0.021 A 
HETATM   12  N   UNL     1      40.320 -13.136   0.128  1.00  0.00    -0.245 NA
HETATM   13  C   UNL     1      39.797 -14.223  -2.054  1.00  0.00     0.033 A 
HETATM   14  C   UNL     1      38.890 -14.338  -3.113  1.00  0.00     0.002 A 
HETATM   15  C   UNL     1      37.713 -13.597  -3.118  1.00  0.00     0.002 A 
ENDBRANCH   6   7
ENDBRANCH   4   6
ENDBRANCH   1   4
BRANCH   1  16
HETATM   16  C   UNL     1      40.351 -15.510   2.772  1.00  0.00     0.269 C 
BRANCH  16  17
HETATM   17  C   UNL     1      41.861 -15.317   2.503  1.00  0.00     0.177 C 
BRANCH  17  18
HETATM   18  O   UNL     1      42.040 -15.378   1.079  1.00  0.00    -0.389 OA
HETATM   19  H   UNL     1      41.183 -15.675   0.708  1.00  0.00     0.210 HD
ENDBRANCH  17  18
BRANCH  17  20
HETATM   20  C   UNL     1      42.695 -16.373   3.194  1.00  0.00    -0.025 A 
HETATM   21  C   UNL     1      42.891 -17.615   2.561  1.00  0.00     0.046 A 
HETATM   22  C   UNL     1      43.690 -18.599   3.147  1.00  0.00     0.068 A 
HETATM   23  C   UNL     1      44.313 -18.336   4.366  1.00  0.00     0.037 A 
HETATM   24  C   UNL     1      44.122 -17.117   5.012  1.00  0.00     0.003 A 
HETATM   25  C   UNL     1      43.314 -16.141   4.434  1.00  0.00     0.010 A 
BRANCH  22  26
HETATM   26  O   UNL     1      43.954 -19.833   2.624  1.00  0.00    -0.356 OA
HETATM   27  C   UNL     1      43.862 -20.947   3.503  1.00  0.00     0.210 C 
ENDBRANCH  22  26
ENDBRANCH  17  20
ENDBRANCH  16  17
ENDBRANCH   1  16
TORSDOF 8
ENDMDL
MODEL 5
REMARK VINA RESULT:      -7.0      4.350      7.411
REMARK  8 active torsions:
REMARK  status: ('A' for Active; 'I' for Inactive)
REMARK    1  A    between atoms: C_2  and  N_3 
REMARK    2  A    between atoms: C_2  and  C_17 
REMARK    3  A    between atoms: N_3  and  C_6 
REMARK    4  A    between atoms: C_6  and  C_7 
REMARK    5  A    between atoms: C_7  and  O_8 
REMARK    6  A    between atoms: C_7  and  C_9 
REMARK    7  A    between atoms: C_11  and  O_12 
REMARK    8  A    between atoms: C_17  and  C_18 
ROOT
HETATM    1  N   UNL     1      42.273 -13.510   5.547  1.00  0.00    -0.068 N 
HETATM    2  H   UNL     1      41.475 -13.235   6.138  1.00  0.00     0.277 HD
HETATM    3  H   UNL     1      42.690 -14.325   6.033  1.00  0.00     0.277 HD
ENDROOT
BRANCH   1   4
HETATM    4  C   UNL     1      41.778 -13.858   4.165  1.00  0.00     0.188 C 
HETATM    5  C   UNL     1      40.757 -14.986   4.335  1.00  0.00     0.040 C 
BRANCH   4   6
HETATM    6  C   UNL     1      42.949 -14.278   3.257  1.00  0.00     0.099 C 
BRANCH   6   7
HETATM    7  C   UNL     1      43.196 -15.754   3.330  1.00  0.00     0.078 A 
HETATM    8  S   UNL     1      43.026 -16.728   1.932  1.00  0.00    -0.073 SA
HETATM    9  C   UNL     1      43.431 -18.125   2.855  1.00  0.00     0.035 A 
HETATM   10  C   UNL     1      43.666 -17.741   4.178  1.00  0.00     0.074 A 
HETATM   11  C   UNL     1      43.534 -19.463   2.441  1.00  0.00     0.021 A 
HETATM   12  N   UNL     1      43.519 -16.384   4.435  1.00  0.00    -0.245 NA
HETATM   13  C   UNL     1      44.022 -18.728   5.119  1.00  0.00     0.033 A 
HETATM   14  C   UNL     1      44.130 -20.064   4.716  1.00  0.00     0.002 A 
HETATM   15  C   UNL     1      43.887 -20.423   3.394  1.00  0.00     0.002 A 
ENDBRANCH   6   7
ENDBRANCH   4   6
ENDBRANCH   1   4
BRANCH   1  16
HETATM   16  C   UNL     1      43.295 -12.399   5.649  1.00  0.00     0.269 C 
BRANCH  16  17
HETATM   17  C   UNL     1      44.205 -12.687   6.866  1.00  0.00     0.177 C 
BRANCH  17  18
HETATM   18  O   UNL     1      43.419 -13.438   7.804  1.00  0.00    -0.389 OA
HETATM   19  H   UNL     1      43.836 -14.323   7.864  1.00  0.00     0.210 HD
ENDBRANCH  17  18
BRANCH  17  20
HETATM   20  C   UNL     1      44.719 -11.412   7.498  1.00  0.00    -0.025 A 
HETATM   21  C   UNL     1      43.926 -10.753   8.457  1.00  0.00     0.046 A 
HETATM   22  C   UNL     1      44.385  -9.598   9.093  1.00  0.00     0.068 A 
HETATM   23  C   UNL     1      45.652  -9.105   8.784  1.00  0.00     0.037 A 
HETATM   24  C   UNL     1      46.446  -9.737   7.830  1.00  0.00     0.003 A 
HETATM   25  C   UNL     1      45.982 -10.881   7.185  1.00  0.00     0.010 A 
BRANCH  22  26
HETATM   26  O   UNL     1      43.708  -8.883  10.040  1.00  0.00    -0.356 OA
HETATM   27  C   UNL     1      42.314  -8.684   9.834  1.00  0.00     0.210 C 
ENDBRANCH  22  26
ENDBRANCH  17  20
ENDBRANCH  16  17
ENDBRANCH   1  16
TORSDOF 8
ENDMDL
MODEL 6
REMARK VINA RESULT:      -7.0      5.378      9.292
REMARK  8 active torsions:
REMARK  status: ('A' for Active; 'I' for Inactive)
REMARK    1  A    between atoms: C_2  and  N_3 
REMARK    2  A    between atoms: C_2  and  C_17 
REMARK    3  A    between atoms: N_3  and  C_6 
REMARK    4  A    between atoms: C_6  and  C_7 
REMARK    5  A    between atoms: C_7  and  O_8 
REMARK    6  A    between atoms: C_7  and  C_9 
REMARK    7  A    between atoms: C_11  and  O_12 
REMARK    8  A    between atoms: C_17  and  C_18 
ROOT
HETATM    1  N   UNL     1      43.319 -12.920   7.419  1.00  0.00    -0.068 N 
HETATM    2  H   UNL     1      43.500 -12.988   8.431  1.00  0.00     0.277 HD
HETATM    3  H   UNL     1      42.293 -13.029   7.329  1.00  0.00     0.277 HD
ENDROOT
BRANCH   1   4
HETATM    4  C   UNL     1      43.802 -11.584   6.911  1.00  0.00     0.188 C 
HETATM    5  C   UNL     1      44.293 -11.809   5.479  1.00  0.00     0.040 C 
BRANCH   4   6
HETATM    6  C   UNL     1      44.916 -11.026   7.817  1.00  0.00     0.099 C 
BRANCH   6   7
HETATM    7  C   UNL     1      44.352 -10.396   9.054  1.00  0.00     0.078 A 
HETATM    8  S   UNL     1      44.226  -8.692   9.174  1.00  0.00    -0.073 SA
HETATM    9  C   UNL     1      43.570  -8.852  10.759  1.00  0.00     0.035 A 
HETATM   10  C   UNL     1      43.496 -10.209  11.084  1.00  0.00     0.074 A 
HETATM   11  C   UNL     1      43.151  -7.852  11.650  1.00  0.00     0.021 A 
HETATM   12  N   UNL     1      43.954 -11.078  10.102  1.00  0.00    -0.245 NA
HETATM   13  C   UNL     1      42.980 -10.579  12.342  1.00  0.00     0.033 A 
HETATM   14  C   UNL     1      42.557  -9.590  13.236  1.00  0.00     0.002 A 
HETATM   15  C   UNL     1      42.643  -8.245  12.893  1.00  0.00     0.002 A 
ENDBRANCH   6   7
ENDBRANCH   4   6
ENDBRANCH   1   4
BRANCH   1  16
HETATM   16  C   UNL     1      43.925 -14.153   6.784  1.00  0.00     0.269 C 
BRANCH  16  17
HETATM   17  C   UNL     1      42.804 -15.200   6.592  1.00  0.00     0.177 C 
BRANCH  17  18
HETATM   18  O   UNL     1      42.732 -15.958   7.810  1.00  0.00    -0.389 OA
HETATM   19  H   UNL     1      41.970 -16.567   7.708  1.00  0.00     0.210 HD
ENDBRANCH  17  18
BRANCH  17  20
HETATM   20  C   UNL     1      43.077 -16.106   5.412  1.00  0.00    -0.025 A 
HETATM   21  C   UNL     1      43.738 -17.331   5.626  1.00  0.00     0.046 A 
HETATM   22  C   UNL     1      43.969 -18.214   4.568  1.00  0.00     0.068 A 
HETATM   23  C   UNL     1      43.522 -17.880   3.290  1.00  0.00     0.037 A 
HETATM   24  C   UNL     1      42.877 -16.668   3.058  1.00  0.00     0.003 A 
HETATM   25  C   UNL     1      42.659 -15.781   4.110  1.00  0.00     0.010 A 
BRANCH  22  26
HETATM   26  O   UNL     1      44.591 -19.426   4.658  1.00  0.00    -0.356 OA
HETATM   27  C   UNL     1      43.963 -20.423   5.457  1.00  0.00     0.210 C 
ENDBRANCH  22  26
ENDBRANCH  17  20
ENDBRANCH  16  17
ENDBRANCH   1  16
TORSDOF 8
ENDMDL
MODEL 7
REMARK VINA RESULT:      -6.9     14.034     16.095
REMARK  8 active torsions:
REMARK  status: ('A' for Active; 'I' for Inactive)
REMARK    1  A    between atoms: C_2  and  N_3 
REMARK    2  A    between atoms: C_2  and  C_17 
REMARK    3  A    between atoms: N_3  and  C_6 
REMARK    4  A    between atoms: C_6  and  C_7 
REMARK    5  A    between atoms: C_7  and  O_8 
REMARK    6  A    between atoms: C_7  and  C_9 
REMARK    7  A    between atoms: C_11  and  O_12 
REMARK    8  A    between atoms: C_17  and  C_18 
ROOT
HETATM    1  N   UNL     1      45.102 -29.708   2.972  1.00  0.00    -0.068 N 
HETATM    2  H   UNL     1      44.837 -29.149   2.149  1.00  0.00     0.277 HD
HETATM    3  H   UNL     1      44.976 -29.067   3.776  1.00  0.00     0.277 HD
ENDROOT
BRANCH   1   4
HETATM    4  C   UNL     1      44.212 -30.923   3.062  1.00  0.00     0.188 C 
HETATM    5  C   UNL     1      45.106 -32.142   2.821  1.00  0.00     0.040 C 
BRANCH   4   6
HETATM    6  C   UNL     1      43.070 -30.839   2.032  1.00  0.00     0.099 C 
BRANCH   6   7
HETATM    7  C   UNL     1      43.580 -30.435   0.682  1.00  0.00     0.078 A 
HETATM    8  S   UNL     1      43.781 -31.606  -0.551  1.00  0.00    -0.073 SA
HETATM    9  C   UNL     1      44.363 -30.384  -1.616  1.00  0.00     0.035 A 
HETATM   10  C   UNL     1      44.363 -29.159  -0.945  1.00  0.00     0.074 A 
HETATM   11  C   UNL     1      44.789 -30.499  -2.950  1.00  0.00     0.021 A 
HETATM   12  N   UNL     1      43.920 -29.206   0.371  1.00  0.00    -0.245 NA
HETATM   13  C   UNL     1      44.798 -28.007  -1.631  1.00  0.00     0.033 A 
HETATM   14  C   UNL     1      45.222 -28.111  -2.960  1.00  0.00     0.002 A 
HETATM   15  C   UNL     1      45.217 -29.342  -3.608  1.00  0.00     0.002 A 
ENDBRANCH   6   7
ENDBRANCH   4   6
ENDBRANCH   1   4
BRANCH   1  16
HETATM   16  C   UNL     1      46.591 -29.957   2.870  1.00  0.00     0.269 C 
BRANCH  16  17
HETATM   17  C   UNL     1      47.206 -28.861   1.969  1.00  0.00     0.177 C 
BRANCH  17  18
HETATM   18  O   UNL     1      46.204 -27.845   1.809  1.00  0.00    -0.389 OA
HETATM   19  H   UNL     1      46.628 -27.000   2.066  1.00  0.00     0.210 HD
ENDBRANCH  17  18
BRANCH  17  20
HETATM   20  C   UNL     1      47.632 -29.411   0.626  1.00  0.00    -0.025 A 
HETATM   21  C   UNL     1      47.489 -30.789   0.372  1.00  0.00     0.046 A 
HETATM   22  C   UNL     1      47.831 -31.328  -0.870  1.00  0.00     0.068 A 
HETATM   23  C   UNL     1      48.303 -30.483  -1.874  1.00  0.00     0.037 A 
HETATM   24  C   UNL     1      48.461 -29.119  -1.638  1.00  0.00     0.003 A 
HETATM   25  C   UNL     1      48.133 -28.584  -0.394  1.00  0.00     0.010 A 
BRANCH  22  26
HETATM   26  O   UNL     1      47.729 -32.641  -1.229  1.00  0.00    -0.356 OA
HETATM   27  C   UNL     1      48.024 -32.972  -2.581  1.00  0.00     0.210 C 
ENDBRANCH  22  26
ENDBRANCH  17  20
ENDBRANCH  16  17
ENDBRANCH   1  16
TORSDOF 8
ENDMDL
MODEL 8
REMARK VINA RESULT:      -6.9      3.409      7.411
REMARK  8 active torsions:
REMARK  status: ('A' for Active; 'I' for Inactive)
REMARK    1  A    between atoms: C_2  and  N_3 
REMARK    2  A    between atoms: C_2  and  C_17 
REMARK    3  A    between atoms: N_3  and  C_6 
REMARK    4  A    between atoms: C_6  and  C_7 
REMARK    5  A    between atoms: C_7  and  O_8 
REMARK    6  A    between atoms: C_7  and  C_9 
REMARK    7  A    between atoms: C_11  and  O_12 
REMARK    8  A    between atoms: C_17  and  C_18 
ROOT
HETATM    1  N   UNL     1      40.019 -14.252   3.614  1.00  0.00    -0.068 N 
HETATM    2  H   UNL     1      39.174 -14.586   4.099  1.00  0.00     0.277 HD
HETATM    3  H   UNL     1      39.675 -13.524   2.961  1.00  0.00     0.277 HD
ENDROOT
BRANCH   1   4
HETATM    4  C   UNL     1      40.994 -13.701   4.624  1.00  0.00     0.188 C 
HETATM    5  C   UNL     1      40.433 -14.042   6.008  1.00  0.00     0.040 C 
BRANCH   4   6
HETATM    6  C   UNL     1      41.172 -12.182   4.438  1.00  0.00     0.099 C 
BRANCH   6   7
HETATM    7  C   UNL     1      42.230 -11.639   5.348  1.00  0.00     0.078 A 
HETATM    8  S   UNL     1      41.840 -10.442   6.509  1.00  0.00    -0.073 SA
HETATM    9  C   UNL     1      43.483 -10.405   7.024  1.00  0.00     0.035 A 
HETATM   10  C   UNL     1      44.218 -11.317   6.263  1.00  0.00     0.074 A 
HETATM   11  C   UNL     1      44.080  -9.626   8.029  1.00  0.00     0.021 A 
HETATM   12  N   UNL     1      43.489 -12.009   5.303  1.00  0.00    -0.245 NA
HETATM   13  C   UNL     1      45.596 -11.461   6.518  1.00  0.00     0.033 A 
HETATM   14  C   UNL     1      46.200 -10.692   7.519  1.00  0.00     0.002 A 
HETATM   15  C   UNL     1      45.450  -9.786   8.262  1.00  0.00     0.002 A 
ENDBRANCH   6   7
ENDBRANCH   4   6
ENDBRANCH   1   4
BRANCH   1  16
HETATM   16  C   UNL     1      40.504 -15.392   2.746  1.00  0.00     0.269 C 
BRANCH  16  17
HETATM   17  C   UNL     1      42.038 -15.269   2.594  1.00  0.00     0.177 C 
BRANCH  17  18
HETATM   18  O   UNL     1      42.304 -15.087   1.195  1.00  0.00    -0.389 OA
HETATM   19  H   UNL     1      41.917 -15.865   0.740  1.00  0.00     0.210 HD
ENDBRANCH  17  18
BRANCH  17  20
HETATM   20  C   UNL     1      42.756 -16.491   3.123  1.00  0.00    -0.025 A 
HETATM   21  C   UNL     1      42.866 -16.672   4.516  1.00  0.00     0.046 A 
HETATM   22  C   UNL     1      43.484 -17.809   5.042  1.00  0.00     0.068 A 
HETATM   23  C   UNL     1      43.980 -18.781   4.174  1.00  0.00     0.037 A 
HETATM   24  C   UNL     1      43.890 -18.613   2.795  1.00  0.00     0.003 A 
HETATM   25  C   UNL     1      43.286 -17.472   2.269  1.00  0.00     0.010 A 
BRANCH  22  26
HETATM   26  O   UNL     1      43.641 -18.092   6.369  1.00  0.00    -0.356 OA
HETATM   27  C   UNL     1      43.682 -16.992   7.270  1.00  0.00     0.210 C 
ENDBRANCH  22  26
ENDBRANCH  17  20
ENDBRANCH  16  17
ENDBRANCH   1  16
TORSDOF 8
ENDMDL
MODEL 9
REMARK VINA RESULT:      -6.9      2.818      7.398
REMARK  8 active torsions:
REMARK  status: ('A' for Active; 'I' for Inactive)
REMARK    1  A    between atoms: C_2  and  N_3 
REMARK    2  A    between atoms: C_2  and  C_17 
REMARK    3  A    between atoms: N_3  and  C_6 
REMARK    4  A    between atoms: C_6  and  C_7 
REMARK    5  A    between atoms: C_7  and  O_8 
REMARK    6  A    between atoms: C_7  and  C_9 
REMARK    7  A    between atoms: C_11  and  O_12 
REMARK    8  A    between atoms: C_17  and  C_18 
ROOT
HETATM    1  N   UNL     1      40.980 -13.409   3.562  1.00  0.00    -0.068 N 
HETATM    2  H   UNL     1      41.123 -13.078   4.527  1.00  0.00     0.277 HD
HETATM    3  H   UNL     1      40.064 -13.014   3.282  1.00  0.00     0.277 HD
ENDROOT
BRANCH   1   4
HETATM    4  C   UNL     1      42.108 -12.917   2.689  1.00  0.00     0.188 C 
HETATM    5  C   UNL     1      43.245 -12.509   3.630  1.00  0.00     0.040 C 
BRANCH   4   6
HETATM    6  C   UNL     1      41.643 -11.740   1.810  1.00  0.00     0.099 C 
BRANCH   6   7
HETATM    7  C   UNL     1      40.706 -12.198   0.735  1.00  0.00     0.078 A 
HETATM    8  S   UNL     1      39.351 -11.242   0.306  1.00  0.00    -0.073 SA
HETATM    9  C   UNL     1      38.886 -12.424  -0.858  1.00  0.00     0.035 A 
HETATM   10  C   UNL     1      39.807 -13.474  -0.832  1.00  0.00     0.074 A 
HETATM   11  C   UNL     1      37.786 -12.424  -1.732  1.00  0.00     0.021 A 
HETATM   12  N   UNL     1      40.837 -13.334   0.090  1.00  0.00    -0.245 NA
HETATM   13  C   UNL     1      39.627 -14.559  -1.713  1.00  0.00     0.033 A 
HETATM   14  C   UNL     1      38.536 -14.566  -2.589  1.00  0.00     0.002 A 
HETATM   15  C   UNL     1      37.629 -13.512  -2.595  1.00  0.00     0.002 A 
ENDBRANCH   6   7
ENDBRANCH   4   6
ENDBRANCH   1   4
BRANCH   1  16
HETATM   16  C   UNL     1      40.779 -14.907   3.640  1.00  0.00     0.269 C 
BRANCH  16  17
HETATM   17  C   UNL     1      41.624 -15.569   2.527  1.00  0.00     0.177 C 
BRANCH  17  18
HETATM   18  O   UNL     1      40.701 -16.071   1.548  1.00  0.00    -0.389 OA
HETATM   19  H   UNL     1      40.105 -15.326   1.326  1.00  0.00     0.210 HD
ENDBRANCH  17  18
BRANCH  17  20
HETATM   20  C   UNL     1      42.493 -16.683   3.067  1.00  0.00    -0.025 A 
HETATM   21  C   UNL     1      42.807 -16.704   4.440  1.00  0.00     0.046 A 
HETATM   22  C   UNL     1      43.571 -17.739   4.984  1.00  0.00     0.068 A 
HETATM   23  C   UNL     1      44.010 -18.772   4.156  1.00  0.00     0.037 A 
HETATM   24  C   UNL     1      43.718 -18.762   2.794  1.00  0.00     0.003 A 
HETATM   25  C   UNL     1      42.968 -17.722   2.249  1.00  0.00     0.010 A 
BRANCH  22  26
HETATM   26  O   UNL     1      43.930 -17.865   6.295  1.00  0.00    -0.356 OA
HETATM   27  C   UNL     1      43.601 -16.790   7.167  1.00  0.00     0.210 C 
ENDBRANCH  22  26
ENDBRANCH  17  20
ENDBRANCH  16  17
ENDBRANCH   1  16
TORSDOF 8
ENDMDL
MODEL 10
REMARK VINA RESULT:      -6.9      2.905      6.933
REMARK  8 active torsions:
REMARK  status: ('A' for Active; 'I' for Inactive)
REMARK    1  A    between atoms: C_2  and  N_3 
REMARK    2  A    between atoms: C_2  and  C_17 
REMARK    3  A    between atoms: N_3  and  C_6 
REMARK    4  A    between atoms: C_6  and  C_7 
REMARK    5  A    between atoms: C_7  and  O_8 
REMARK    6  A    between atoms: C_7  and  C_9 
REMARK    7  A    between atoms: C_11  and  O_12 
REMARK    8  A    between atoms: C_17  and  C_18 
ROOT
HETATM    1  N   UNL     1      39.481 -13.918   1.150  1.00  0.00    -0.068 N 
HETATM    2  H   UNL     1      40.044 -13.395   1.836  1.00  0.00     0.277 HD
HETATM    3  H   UNL     1      38.508 -13.840   1.496  1.00  0.00     0.277 HD
ENDROOT
BRANCH   1   4
HETATM    4  C   UNL     1      39.654 -13.301  -0.216  1.00  0.00     0.188 C 
HETATM    5  C   UNL     1      39.653 -14.456  -1.222  1.00  0.00     0.040 C 
BRANCH   4   6
HETATM    6  C   UNL     1      40.958 -12.484  -0.284  1.00  0.00     0.099 C 
BRANCH   6   7
HETATM    7  C   UNL     1      41.472 -12.160   1.085  1.00  0.00     0.078 A 
HETATM    8  S   UNL     1      41.214 -10.607   1.759  1.00  0.00    -0.073 SA
HETATM    9  C   UNL     1      42.070 -11.080   3.177  1.00  0.00     0.035 A 
HETATM   10  C   UNL     1      42.497 -12.402   3.030  1.00  0.00     0.074 A 
HETATM   11  C   UNL     1      42.345 -10.336   4.336  1.00  0.00     0.021 A 
HETATM   12  N   UNL     1      42.154 -13.003   1.825  1.00  0.00    -0.245 NA
HETATM   13  C   UNL     1      43.219 -13.004   4.079  1.00  0.00     0.033 A 
HETATM   14  C   UNL     1      43.495 -12.273   5.240  1.00  0.00     0.002 A 
HETATM   15  C   UNL     1      43.064 -10.956   5.364  1.00  0.00     0.002 A 
ENDBRANCH   6   7
ENDBRANCH   4   6
ENDBRANCH   1   4
BRANCH   1  16
HETATM   16  C   UNL     1      39.859 -15.376   1.296  1.00  0.00     0.269 C 
BRANCH  16  17
HETATM   17  C   UNL     1      39.986 -15.695   2.803  1.00  0.00     0.177 C 
BRANCH  17  18
HETATM   18  O   UNL     1      39.828 -14.453   3.506  1.00  0.00    -0.389 OA
HETATM   19  H   UNL     1      40.447 -14.488   4.265  1.00  0.00     0.210 HD
ENDBRANCH  17  18
BRANCH  17  20
HETATM   20  C   UNL     1      41.317 -16.333   3.133  1.00  0.00    -0.025 A 
HETATM   21  C   UNL     1      41.729 -16.404   4.478  1.00  0.00     0.046 A 
HETATM   22  C   UNL     1      42.932 -17.022   4.827  1.00  0.00     0.068 A 
HETATM   23  C   UNL     1      43.721 -17.592   3.828  1.00  0.00     0.037 A 
HETATM   24  C   UNL     1      43.336 -17.521   2.492  1.00  0.00     0.003 A 
HETATM   25  C   UNL     1      42.143 -16.892   2.143  1.00  0.00     0.010 A 
BRANCH  22  26
HETATM   26  O   UNL     1      43.426 -17.155   6.093  1.00  0.00    -0.356 OA
HETATM   27  C   UNL     1      44.458 -16.258   6.487  1.00  0.00     0.210 C 
ENDBRANCH  22  26
ENDBRANCH  17  20
ENDBRANCH  16  17
ENDBRANCH   1  16
TORSDOF 8
ENDMDL
