MODEL 1
REMARK VINA RESULT:      -7.6      0.000      0.000
REMARK  4 active torsions:
REMARK  status: ('A' for Active; 'I' for Inactive)
REMARK    1  A    between atoms: C_2  and  N_3 
REMARK       I    between atoms: N_3  and  C_4 
REMARK    2  A    between atoms: C_4  and  C_5 
REMARK    3  A    between atoms: C_5  and  N_6 
REMARK    4  A    between atoms: N_6  and  C_7 
ROOT
HETATM    1  C   UNL     1      42.456 -15.441   2.551  1.00  0.00     0.022 A 
HETATM    2  C   UNL     1      42.999 -16.658   3.067  1.00  0.00     0.012 A 
HETATM    3  C   UNL     1      43.442 -16.691   4.418  1.00  0.00     0.045 A 
HETATM    4  C   UNL     1      43.941 -17.868   4.996  1.00  0.00     0.054 A 
HETATM    5  C   UNL     1      44.021 -19.032   4.238  1.00  0.00     0.036 A 
HETATM    6 CL   UNL     1      44.624 -20.470   4.954  1.00  0.00    -0.084 Cl
HETATM    7  C   UNL     1      43.622 -19.031   2.909  1.00  0.00     0.025 A 
HETATM    8  C   UNL     1      43.121 -17.861   2.329  1.00  0.00     0.017 A 
HETATM    9  N   UNL     1      43.385 -15.568   5.157  1.00  0.00    -0.365 N 
HETATM   10  H   UNL     1      43.711 -15.600   6.123  1.00  0.00     0.165 HD
HETATM   11  C   UNL     1      42.942 -14.402   4.680  1.00  0.00     0.090 A 
HETATM   12  C   UNL     1      42.483 -14.310   3.377  1.00  0.00     0.041 A 
ENDROOT
BRANCH   1  13
HETATM   13  N   UNL     1      42.039 -15.352   1.207  1.00  0.00    -0.283 NA
HETATM   14  H   UNL     1      42.411 -16.109   0.637  1.00  0.00     0.128 HD
BRANCH  13  15
HETATM   15  C   UNL     1      40.589 -15.213   0.912  1.00  0.00     0.195 C 
BRANCH  15  16
HETATM   16  C   UNL     1      40.292 -14.151  -0.150  1.00  0.00     0.231 C 
HETATM   17  N   UNL     1      39.532 -14.610  -1.202  1.00  0.00    -0.352 N 
HETATM   18  H   UNL     1      39.353 -15.610  -1.211  1.00  0.00     0.163 HD
HETATM   19  O   UNL     1      40.693 -12.998  -0.027  1.00  0.00    -0.272 OA
BRANCH  17  20
HETATM   20  C   UNL     1      39.001 -13.782  -2.295  1.00  0.00     0.022 C 
HETATM   21  C   UNL     1      40.120 -12.982  -2.980  1.00  0.00     0.037 C 
HETATM   22  C   UNL     1      37.916 -12.827  -1.770  1.00  0.00     0.037 C 
HETATM   23  C   UNL     1      38.363 -14.717  -3.339  1.00  0.00     0.037 C 
ENDBRANCH  17  20
ENDBRANCH  15  16
ENDBRANCH  13  15
ENDBRANCH   1  13
TORSDOF 4
ENDMDL
MODEL 2
REMARK VINA RESULT:      -7.0      1.976      2.777
REMARK  4 active torsions:
REMARK  status: ('A' for Active; 'I' for Inactive)
REMARK    1  A    between atoms: C_2  and  N_3 
REMARK       I    between atoms: N_3  and  C_4 
REMARK    2  A    between atoms: C_4  and  C_5 
REMARK    3  A    between atoms: C_5  and  N_6 
REMARK    4  A    between atoms: N_6  and  C_7 
ROOT
HETATM    1  C   UNL     1      42.876 -15.162   4.656  1.00  0.00     0.022 A 
HETATM    2  C   UNL     1      43.117 -16.396   3.976  1.00  0.00     0.012 A 
HETATM    3  C   UNL     1      43.905 -17.389   4.619  1.00  0.00     0.045 A 
HETATM    4  C   UNL     1      44.138 -18.638   4.023  1.00  0.00     0.054 A 
HETATM    5  C   UNL     1      43.602 -18.919   2.771  1.00  0.00     0.036 A 
HETATM    6 CL   UNL     1      43.884 -20.452   2.052  1.00  0.00    -0.084 Cl
HETATM    7  C   UNL     1      42.848 -17.965   2.101  1.00  0.00     0.025 A 
HETATM    8  C   UNL     1      42.611 -16.719   2.693  1.00  0.00     0.017 A 
HETATM    9  N   UNL     1      44.444 -17.124   5.823  1.00  0.00    -0.365 N 
HETATM   10  H   UNL     1      45.014 -17.841   6.274  1.00  0.00     0.165 HD
HETATM   11  C   UNL     1      44.288 -15.956   6.451  1.00  0.00     0.090 A 
HETATM   12  C   UNL     1      43.518 -14.955   5.883  1.00  0.00     0.041 A 
ENDROOT
BRANCH   1  13
HETATM   13  N   UNL     1      42.131 -14.136   4.041  1.00  0.00    -0.283 NA
HETATM   14  H   UNL     1      41.471 -13.701   4.683  1.00  0.00     0.128 HD
BRANCH  13  15
HETATM   15  C   UNL     1      42.853 -13.060   3.313  1.00  0.00     0.195 C 
BRANCH  15  16
HETATM   16  C   UNL     1      42.039 -12.464   2.161  1.00  0.00     0.231 C 
HETATM   17  N   UNL     1      41.305 -13.392   1.457  1.00  0.00    -0.352 N 
HETATM   18  H   UNL     1      41.471 -14.363   1.705  1.00  0.00     0.163 HD
HETATM   19  O   UNL     1      42.048 -11.259   1.931  1.00  0.00    -0.272 OA
BRANCH  17  20
HETATM   20  C   UNL     1      40.347 -13.085   0.384  1.00  0.00     0.022 C 
HETATM   21  C   UNL     1      39.146 -12.292   0.922  1.00  0.00     0.037 C 
HETATM   22  C   UNL     1      39.864 -14.378  -0.292  1.00  0.00     0.037 C 
HETATM   23  C   UNL     1      41.065 -12.223  -0.670  1.00  0.00     0.037 C 
ENDBRANCH  17  20
ENDBRANCH  15  16
ENDBRANCH  13  15
ENDBRANCH   1  13
TORSDOF 4
ENDMDL
MODEL 3
REMARK VINA RESULT:      -7.0      1.450      2.029
REMARK  4 active torsions:
REMARK  status: ('A' for Active; 'I' for Inactive)
REMARK    1  A    between atoms: C_2  and  N_3 
REMARK       I    between atoms: N_3  and  C_4 
REMARK    2  A    between atoms: C_4  and  C_5 
REMARK    3  A    between atoms: C_5  and  N_6 
REMARK    4  A    between atoms: N_6  and  C_7 
ROOT
HETATM    1  C   UNL     1      42.435 -14.985   2.433  1.00  0.00     0.022 A 
HETATM    2  C   UNL     1      42.953 -16.211   2.955  1.00  0.00     0.012 A 
HETATM    3  C   UNL     1      43.344 -16.263   4.321  1.00  0.00     0.045 A 
HETATM    4  C   UNL     1      43.816 -17.448   4.903  1.00  0.00     0.054 A 
HETATM    5  C   UNL     1      43.921 -18.603   4.135  1.00  0.00     0.036 A 
HETATM    6 CL   UNL     1      44.491 -20.053   4.856  1.00  0.00    -0.084 Cl
HETATM    7  C   UNL     1      43.573 -18.585   2.791  1.00  0.00     0.025 A 
HETATM    8  C   UNL     1      43.100 -17.405   2.207  1.00  0.00     0.017 A 
HETATM    9  N   UNL     1      43.263 -15.148   5.071  1.00  0.00    -0.365 N 
HETATM   10  H   UNL     1      43.552 -15.193   6.049  1.00  0.00     0.165 HD
HETATM   11  C   UNL     1      42.843 -13.974   4.592  1.00  0.00     0.090 A 
HETATM   12  C   UNL     1      42.434 -13.865   3.273  1.00  0.00     0.041 A 
ENDROOT
BRANCH   1  13
HETATM   13  N   UNL     1      42.070 -14.879   1.076  1.00  0.00    -0.283 NA
HETATM   14  H   UNL     1      42.609 -15.505   0.481  1.00  0.00     0.128 HD
BRANCH  13  15
HETATM   15  C   UNL     1      40.636 -15.000   0.705  1.00  0.00     0.195 C 
BRANCH  15  16
HETATM   16  C   UNL     1      40.089 -13.752   0.006  1.00  0.00     0.231 C 
HETATM   17  N   UNL     1      39.137 -13.075   0.735  1.00  0.00    -0.352 N 
HETATM   18  H   UNL     1      38.829 -13.534   1.588  1.00  0.00     0.163 HD
HETATM   19  O   UNL     1      40.504 -13.405  -1.095  1.00  0.00    -0.272 OA
BRANCH  17  20
HETATM   20  C   UNL     1      38.533 -11.787   0.362  1.00  0.00     0.022 C 
HETATM   21  C   UNL     1      37.547 -11.304   1.437  1.00  0.00     0.037 C 
HETATM   22  C   UNL     1      37.819 -11.901  -0.995  1.00  0.00     0.037 C 
HETATM   23  C   UNL     1      39.661 -10.747   0.234  1.00  0.00     0.037 C 
ENDBRANCH  17  20
ENDBRANCH  15  16
ENDBRANCH  13  15
ENDBRANCH   1  13
TORSDOF 4
ENDMDL
MODEL 4
REMARK VINA RESULT:      -6.9     14.212     16.121
REMARK  4 active torsions:
REMARK  status: ('A' for Active; 'I' for Inactive)
REMARK    1  A    between atoms: C_2  and  N_3 
REMARK       I    between atoms: N_3  and  C_4 
REMARK    2  A    between atoms: C_4  and  C_5 
REMARK    3  A    between atoms: C_5  and  N_6 
REMARK    4  A    between atoms: N_6  and  C_7 
ROOT
HETATM    1  C   UNL     1      46.666 -28.376   1.801  1.00  0.00     0.022 A 
HETATM    2  C   UNL     1      46.378 -28.351   0.402  1.00  0.00     0.012 A 
HETATM    3  C   UNL     1      45.091 -28.763  -0.040  1.00  0.00     0.045 A 
HETATM    4  C   UNL     1      44.733 -28.718  -1.395  1.00  0.00     0.054 A 
HETATM    5  C   UNL     1      45.651 -28.273  -2.340  1.00  0.00     0.036 A 
HETATM    6 CL   UNL     1      45.203 -28.211  -3.996  1.00  0.00    -0.084 Cl
HETATM    7  C   UNL     1      46.926 -27.886  -1.950  1.00  0.00     0.025 A 
HETATM    8  C   UNL     1      47.287 -27.928  -0.599  1.00  0.00     0.017 A 
HETATM    9  N   UNL     1      44.199 -29.212   0.862  1.00  0.00    -0.365 N 
HETATM   10  H   UNL     1      43.280 -29.512   0.535  1.00  0.00     0.165 HD
HETATM   11  C   UNL     1      44.464 -29.306   2.168  1.00  0.00     0.090 A 
HETATM   12  C   UNL     1      45.695 -28.904   2.660  1.00  0.00     0.041 A 
ENDROOT
BRANCH   1  13
HETATM   13  N   UNL     1      47.941 -28.011   2.280  1.00  0.00    -0.283 NA
HETATM   14  H   UNL     1      47.909 -27.180   2.867  1.00  0.00     0.128 HD
BRANCH  13  15
HETATM   15  C   UNL     1      48.773 -29.035   2.963  1.00  0.00     0.195 C 
BRANCH  15  16
HETATM   16  C   UNL     1      49.037 -30.270   2.097  1.00  0.00     0.231 C 
HETATM   17  N   UNL     1      49.632 -29.987   0.887  1.00  0.00    -0.352 N 
HETATM   18  H   UNL     1      49.722 -29.000   0.663  1.00  0.00     0.163 HD
HETATM   19  O   UNL     1      48.751 -31.397   2.489  1.00  0.00    -0.272 OA
BRANCH  17  20
HETATM   20  C   UNL     1      50.104 -30.984  -0.085  1.00  0.00     0.022 C 
HETATM   21  C   UNL     1      49.002 -32.004  -0.414  1.00  0.00     0.037 C 
HETATM   22  C   UNL     1      51.350 -31.709   0.449  1.00  0.00     0.037 C 
HETATM   23  C   UNL     1      50.486 -30.247  -1.381  1.00  0.00     0.037 C 
ENDBRANCH  17  20
ENDBRANCH  15  16
ENDBRANCH  13  15
ENDBRANCH   1  13
TORSDOF 4
ENDMDL
MODEL 5
REMARK VINA RESULT:      -6.9      1.786      2.595
REMARK  4 active torsions:
REMARK  status: ('A' for Active; 'I' for Inactive)
REMARK    1  A    between atoms: C_2  and  N_3 
REMARK       I    between atoms: N_3  and  C_4 
REMARK    2  A    between atoms: C_4  and  C_5 
REMARK    3  A    between atoms: C_5  and  N_6 
REMARK    4  A    between atoms: N_6  and  C_7 
ROOT
HETATM    1  C   UNL     1      41.844 -16.378   2.944  1.00  0.00     0.022 A 
HETATM    2  C   UNL     1      42.314 -16.455   4.291  1.00  0.00     0.012 A 
HETATM    3  C   UNL     1      43.327 -17.401   4.609  1.00  0.00     0.045 A 
HETATM    4  C   UNL     1      43.862 -17.493   5.903  1.00  0.00     0.054 A 
HETATM    5  C   UNL     1      43.391 -16.655   6.908  1.00  0.00     0.036 A 
HETATM    6 CL   UNL     1      44.057 -16.767   8.487  1.00  0.00    -0.084 Cl
HETATM    7  C   UNL     1      42.385 -15.736   6.641  1.00  0.00     0.025 A 
HETATM    8  C   UNL     1      41.850 -15.640   5.352  1.00  0.00     0.017 A 
HETATM    9  N   UNL     1      43.779 -18.229   3.650  1.00  0.00    -0.365 N 
HETATM   10  H   UNL     1      44.501 -18.909   3.890  1.00  0.00     0.165 HD
HETATM   11  C   UNL     1      43.311 -18.221   2.399  1.00  0.00     0.090 A 
HETATM   12  C   UNL     1      42.336 -17.312   2.024  1.00  0.00     0.041 A 
ENDROOT
BRANCH   1  13
HETATM   13  N   UNL     1      40.815 -15.481   2.591  1.00  0.00    -0.283 NA
HETATM   14  H   UNL     1      41.156 -14.528   2.481  1.00  0.00     0.128 HD
BRANCH  13  15
HETATM   15  C   UNL     1      39.946 -15.804   1.430  1.00  0.00     0.195 C 
BRANCH  15  16
HETATM   16  C   UNL     1      40.008 -14.750   0.322  1.00  0.00     0.231 C 
HETATM   17  N   UNL     1      39.297 -15.084  -0.809  1.00  0.00    -0.352 N 
HETATM   18  H   UNL     1      38.912 -16.024  -0.823  1.00  0.00     0.163 HD
HETATM   19  O   UNL     1      40.628 -13.702   0.473  1.00  0.00    -0.272 OA
BRANCH  17  20
HETATM   20  C   UNL     1      39.086 -14.211  -1.974  1.00  0.00     0.022 C 
HETATM   21  C   UNL     1      40.423 -13.718  -2.547  1.00  0.00     0.037 C 
HETATM   22  C   UNL     1      38.202 -13.012  -1.594  1.00  0.00     0.037 C 
HETATM   23  C   UNL     1      38.362 -15.027  -3.060  1.00  0.00     0.037 C 
ENDBRANCH  17  20
ENDBRANCH  15  16
ENDBRANCH  13  15
ENDBRANCH   1  13
TORSDOF 4
ENDMDL
MODEL 6
REMARK VINA RESULT:      -6.9      3.756      7.329
REMARK  4 active torsions:
REMARK  status: ('A' for Active; 'I' for Inactive)
REMARK    1  A    between atoms: C_2  and  N_3 
REMARK       I    between atoms: N_3  and  C_4 
REMARK    2  A    between atoms: C_4  and  C_5 
REMARK    3  A    between atoms: C_5  and  N_6 
REMARK    4  A    between atoms: N_6  and  C_7 
ROOT
HETATM    1  C   UNL     1      42.825 -14.045   4.405  1.00  0.00     0.022 A 
HETATM    2  C   UNL     1      42.995 -15.384   3.936  1.00  0.00     0.012 A 
HETATM    3  C   UNL     1      43.058 -15.616   2.535  1.00  0.00     0.045 A 
HETATM    4  C   UNL     1      43.270 -16.901   2.014  1.00  0.00     0.054 A 
HETATM    5  C   UNL     1      43.410 -17.983   2.877  1.00  0.00     0.036 A 
HETATM    6 CL   UNL     1      43.677 -19.552   2.233  1.00  0.00    -0.084 Cl
HETATM    7  C   UNL     1      43.328 -17.800   4.250  1.00  0.00     0.025 A 
HETATM    8  C   UNL     1      43.119 -16.520   4.774  1.00  0.00     0.017 A 
HETATM    9  N   UNL     1      42.908 -14.580   1.689  1.00  0.00    -0.365 N 
HETATM   10  H   UNL     1      42.948 -14.757   0.685  1.00  0.00     0.165 HD
HETATM   11  C   UNL     1      42.684 -13.329   2.100  1.00  0.00     0.090 A 
HETATM   12  C   UNL     1      42.628 -13.038   3.452  1.00  0.00     0.041 A 
ENDROOT
BRANCH   1  13
HETATM   13  N   UNL     1      42.720 -13.774   5.784  1.00  0.00    -0.283 NA
HETATM   14  H   UNL     1      42.192 -14.489   6.279  1.00  0.00     0.128 HD
BRANCH  13  15
HETATM   15  C   UNL     1      43.957 -13.488   6.557  1.00  0.00     0.195 C 
BRANCH  15  16
HETATM   16  C   UNL     1      44.148 -11.998   6.855  1.00  0.00     0.231 C 
HETATM   17  N   UNL     1      43.862 -11.647   8.156  1.00  0.00    -0.352 N 
HETATM   18  H   UNL     1      43.456 -12.381   8.729  1.00  0.00     0.163 HD
HETATM   19  O   UNL     1      44.544 -11.221   5.992  1.00  0.00    -0.272 OA
BRANCH  17  20
HETATM   20  C   UNL     1      44.071 -10.316   8.746  1.00  0.00     0.022 C 
HETATM   21  C   UNL     1      45.511  -9.830   8.523  1.00  0.00     0.037 C 
HETATM   22  C   UNL     1      43.748 -10.338  10.249  1.00  0.00     0.037 C 
HETATM   23  C   UNL     1      43.112  -9.330   8.055  1.00  0.00     0.037 C 
ENDBRANCH  17  20
ENDBRANCH  15  16
ENDBRANCH  13  15
ENDBRANCH   1  13
TORSDOF 4
ENDMDL
MODEL 7
REMARK VINA RESULT:      -6.8      4.200      5.757
REMARK  4 active torsions:
REMARK  status: ('A' for Active; 'I' for Inactive)
REMARK    1  A    between atoms: C_2  and  N_3 
REMARK       I    between atoms: N_3  and  C_4 
REMARK    2  A    between atoms: C_4  and  C_5 
REMARK    3  A    between atoms: C_5  and  N_6 
REMARK    4  A    between atoms: N_6  and  C_7 
ROOT
HETATM    1  C   UNL     1      42.721 -15.388   4.990  1.00  0.00     0.022 A 
HETATM    2  C   UNL     1      42.960 -16.534   4.170  1.00  0.00     0.012 A 
HETATM    3  C   UNL     1      43.921 -17.491   4.595  1.00  0.00     0.045 A 
HETATM    4  C   UNL     1      44.166 -18.660   3.858  1.00  0.00     0.054 A 
HETATM    5  C   UNL     1      43.470 -18.892   2.677  1.00  0.00     0.036 A 
HETATM    6 CL   UNL     1      43.769 -20.328   1.785  1.00  0.00    -0.084 Cl
HETATM    7  C   UNL     1      42.542 -17.968   2.217  1.00  0.00     0.025 A 
HETATM    8  C   UNL     1      42.292 -16.803   2.950  1.00  0.00     0.017 A 
HETATM    9  N   UNL     1      44.614 -17.270   5.727  1.00  0.00    -0.365 N 
HETATM   10  H   UNL     1      45.306 -17.960   6.021  1.00  0.00     0.165 HD
HETATM   11  C   UNL     1      44.456 -16.176   6.478  1.00  0.00     0.090 A 
HETATM   12  C   UNL     1      43.524 -15.216   6.124  1.00  0.00     0.041 A 
ENDROOT
BRANCH   1  13
HETATM   13  N   UNL     1      41.804 -14.395   4.589  1.00  0.00    -0.283 NA
HETATM   14  H   UNL     1      41.412 -14.582   3.668  1.00  0.00     0.128 HD
BRANCH  13  15
HETATM   15  C   UNL     1      40.693 -14.030   5.506  1.00  0.00     0.195 C 
BRANCH  15  16
HETATM   16  C   UNL     1      40.514 -12.517   5.659  1.00  0.00     0.231 C 
HETATM   17  N   UNL     1      41.528 -11.902   6.359  1.00  0.00    -0.352 N 
HETATM   18  H   UNL     1      42.209 -12.525   6.783  1.00  0.00     0.163 HD
HETATM   19  O   UNL     1      39.550 -11.937   5.169  1.00  0.00    -0.272 OA
BRANCH  17  20
HETATM   20  C   UNL     1      41.673 -10.452   6.552  1.00  0.00     0.022 C 
HETATM   21  C   UNL     1      40.476  -9.871   7.321  1.00  0.00     0.037 C 
HETATM   22  C   UNL     1      41.824  -9.741   5.197  1.00  0.00     0.037 C 
HETATM   23  C   UNL     1      42.948 -10.203   7.378  1.00  0.00     0.037 C 
ENDBRANCH  17  20
ENDBRANCH  15  16
ENDBRANCH  13  15
ENDBRANCH   1  13
TORSDOF 4
ENDMDL
MODEL 8
REMARK VINA RESULT:      -6.7      2.015      2.771
REMARK  4 active torsions:
REMARK  status: ('A' for Active; 'I' for Inactive)
REMARK    1  A    between atoms: C_2  and  N_3 
REMARK       I    between atoms: N_3  and  C_4 
REMARK    2  A    between atoms: C_4  and  C_5 
REMARK    3  A    between atoms: C_5  and  N_6 
REMARK    4  A    between atoms: N_6  and  C_7 
ROOT
HETATM    1  C   UNL     1      42.834 -13.076   3.596  1.00  0.00     0.022 A 
HETATM    2  C   UNL     1      42.951 -14.444   3.201  1.00  0.00     0.012 A 
HETATM    3  C   UNL     1      42.857 -15.454   4.197  1.00  0.00     0.045 A 
HETATM    4  C   UNL     1      42.918 -16.816   3.867  1.00  0.00     0.054 A 
HETATM    5  C   UNL     1      43.087 -17.200   2.541  1.00  0.00     0.036 A 
HETATM    6 CL   UNL     1      43.152 -18.869   2.143  1.00  0.00    -0.084 Cl
HETATM    7  C   UNL     1      43.208 -16.242   1.543  1.00  0.00     0.025 A 
HETATM    8  C   UNL     1      43.145 -14.883   1.868  1.00  0.00     0.017 A 
HETATM    9  N   UNL     1      42.711 -15.096   5.486  1.00  0.00    -0.365 N 
HETATM   10  H   UNL     1      42.651 -15.828   6.194  1.00  0.00     0.165 HD
HETATM   11  C   UNL     1      42.663 -13.823   5.889  1.00  0.00     0.090 A 
HETATM   12  C   UNL     1      42.734 -12.795   4.964  1.00  0.00     0.041 A 
ENDROOT
BRANCH   1  13
HETATM   13  N   UNL     1      42.958 -12.041   2.647  1.00  0.00    -0.283 NA
HETATM   14  H   UNL     1      43.351 -12.369   1.766  1.00  0.00     0.128 HD
BRANCH  13  15
HETATM   15  C   UNL     1      41.772 -11.197   2.344  1.00  0.00     0.195 C 
BRANCH  15  16
HETATM   16  C   UNL     1      40.670 -11.955   1.599  1.00  0.00     0.231 C 
HETATM   17  N   UNL     1      40.901 -12.093   0.249  1.00  0.00    -0.352 N 
HETATM   18  H   UNL     1      41.705 -11.587  -0.113  1.00  0.00     0.163 HD
HETATM   19  O   UNL     1      39.694 -12.405   2.191  1.00  0.00    -0.272 OA
BRANCH  17  20
HETATM   20  C   UNL     1      40.074 -12.873  -0.683  1.00  0.00     0.022 C 
HETATM   21  C   UNL     1      38.639 -12.328  -0.742  1.00  0.00     0.037 C 
HETATM   22  C   UNL     1      40.058 -14.356  -0.276  1.00  0.00     0.037 C 
HETATM   23  C   UNL     1      40.695 -12.760  -2.087  1.00  0.00     0.037 C 
ENDBRANCH  17  20
ENDBRANCH  15  16
ENDBRANCH  13  15
ENDBRANCH   1  13
TORSDOF 4
ENDMDL
MODEL 9
REMARK VINA RESULT:      -6.6     14.236     16.745
REMARK  4 active torsions:
REMARK  status: ('A' for Active; 'I' for Inactive)
REMARK    1  A    between atoms: C_2  and  N_3 
REMARK       I    between atoms: N_3  and  C_4 
REMARK    2  A    between atoms: C_4  and  C_5 
REMARK    3  A    between atoms: C_5  and  N_6 
REMARK    4  A    between atoms: N_6  and  C_7 
ROOT
HETATM    1  C   UNL     1      46.966 -28.536   1.752  1.00  0.00     0.022 A 
HETATM    2  C   UNL     1      46.603 -28.419   0.375  1.00  0.00     0.012 A 
HETATM    3  C   UNL     1      45.260 -28.688  -0.005  1.00  0.00     0.045 A 
HETATM    4  C   UNL     1      44.832 -28.546  -1.333  1.00  0.00     0.054 A 
HETATM    5  C   UNL     1      45.734 -28.146  -2.312  1.00  0.00     0.036 A 
HETATM    6 CL   UNL     1      45.201 -27.966  -3.934  1.00  0.00    -0.084 Cl
HETATM    7  C   UNL     1      47.060 -27.898  -1.985  1.00  0.00     0.025 A 
HETATM    8  C   UNL     1      47.491 -28.036  -0.661  1.00  0.00     0.017 A 
HETATM    9  N   UNL     1      44.381 -29.093   0.931  1.00  0.00    -0.365 N 
HETATM   10  H   UNL     1      43.420 -29.291   0.647  1.00  0.00     0.165 HD
HETATM   11  C   UNL     1      44.709 -29.272   2.213  1.00  0.00     0.090 A 
HETATM   12  C   UNL     1      45.998 -29.010   2.646  1.00  0.00     0.041 A 
ENDROOT
BRANCH   1  13
HETATM   13  N   UNL     1      48.295 -28.314   2.167  1.00  0.00    -0.283 NA
HETATM   14  H   UNL     1      48.609 -27.367   1.964  1.00  0.00     0.128 HD
BRANCH  13  15
HETATM   15  C   UNL     1      48.676 -28.643   3.566  1.00  0.00     0.195 C 
BRANCH  15  16
HETATM   16  C   UNL     1      49.768 -29.712   3.654  1.00  0.00     0.231 C 
HETATM   17  N   UNL     1      49.632 -30.563   4.728  1.00  0.00    -0.352 N 
HETATM   18  H   UNL     1      48.901 -30.320   5.391  1.00  0.00     0.163 HD
HETATM   19  O   UNL     1      50.657 -29.787   2.811  1.00  0.00    -0.272 OA
BRANCH  17  20
HETATM   20  C   UNL     1      50.464 -31.747   4.989  1.00  0.00     0.022 C 
HETATM   21  C   UNL     1      50.683 -32.565   3.707  1.00  0.00     0.037 C 
HETATM   22  C   UNL     1      49.821 -32.628   6.073  1.00  0.00     0.037 C 
HETATM   23  C   UNL     1      51.834 -31.268   5.499  1.00  0.00     0.037 C 
ENDBRANCH  17  20
ENDBRANCH  15  16
ENDBRANCH  13  15
ENDBRANCH   1  13
TORSDOF 4
ENDMDL
MODEL 10
REMARK VINA RESULT:      -6.4      3.448      4.882
REMARK  4 active torsions:
REMARK  status: ('A' for Active; 'I' for Inactive)
REMARK    1  A    between atoms: C_2  and  N_3 
REMARK       I    between atoms: N_3  and  C_4 
REMARK    2  A    between atoms: C_4  and  C_5 
REMARK    3  A    between atoms: C_5  and  N_6 
REMARK    4  A    between atoms: N_6  and  C_7 
ROOT
HETATM    1  C   UNL     1      41.170 -16.239   3.287  1.00  0.00     0.022 A 
HETATM    2  C   UNL     1      41.808 -16.390   4.557  1.00  0.00     0.012 A 
HETATM    3  C   UNL     1      43.054 -17.070   4.620  1.00  0.00     0.045 A 
HETATM    4  C   UNL     1      43.752 -17.210   5.829  1.00  0.00     0.054 A 
HETATM    5  C   UNL     1      43.217 -16.687   7.002  1.00  0.00     0.036 A 
HETATM    6 CL   UNL     1      44.080 -16.854   8.476  1.00  0.00    -0.084 Cl
HETATM    7  C   UNL     1      41.990 -16.039   6.984  1.00  0.00     0.025 A 
HETATM    8  C   UNL     1      41.292 -15.895   5.780  1.00  0.00     0.017 A 
HETATM    9  N   UNL     1      43.575 -17.595   3.496  1.00  0.00    -0.365 N 
HETATM   10  H   UNL     1      44.467 -18.087   3.552  1.00  0.00     0.165 HD
HETATM   11  C   UNL     1      42.968 -17.524   2.308  1.00  0.00     0.090 A 
HETATM   12  C   UNL     1      41.760 -16.861   2.180  1.00  0.00     0.041 A 
ENDROOT
BRANCH   1  13
HETATM   13  N   UNL     1      39.915 -15.604   3.184  1.00  0.00    -0.283 NA
HETATM   14  H   UNL     1      39.416 -15.589   4.071  1.00  0.00     0.128 HD
BRANCH  13  15
HETATM   15  C   UNL     1      39.844 -14.247   2.583  1.00  0.00     0.195 C 
BRANCH  15  16
HETATM   16  C   UNL     1      40.301 -13.142   3.540  1.00  0.00     0.231 C 
HETATM   17  N   UNL     1      41.629 -12.804   3.410  1.00  0.00    -0.352 N 
HETATM   18  H   UNL     1      42.172 -13.393   2.785  1.00  0.00     0.163 HD
HETATM   19  O   UNL     1      39.518 -12.613   4.323  1.00  0.00    -0.272 OA
BRANCH  17  20
HETATM   20  C   UNL     1      42.302 -11.702   4.113  1.00  0.00     0.022 C 
HETATM   21  C   UNL     1      42.271 -11.913   5.635  1.00  0.00     0.037 C 
HETATM   22  C   UNL     1      41.649 -10.357   3.755  1.00  0.00     0.037 C 
HETATM   23  C   UNL     1      43.771 -11.667   3.657  1.00  0.00     0.037 C 
ENDBRANCH  17  20
ENDBRANCH  15  16
ENDBRANCH  13  15
ENDBRANCH   1  13
TORSDOF 4
ENDMDL
