MODEL 1
REMARK VINA RESULT:      -9.5      0.000      0.000
REMARK  8 active torsions:
REMARK  status: ('A' for Active; 'I' for Inactive)
REMARK    1  A    between atoms: C_2  and  N_3 
REMARK    2  A    between atoms: N_3  and  N_4 
REMARK       I    between atoms: N_4  and  C_5 
REMARK    3  A    between atoms: C_5  and  C_6 
REMARK    4  A    between atoms: C_6  and  O_7 
REMARK    5  A    between atoms: O_7  and  C_8 
REMARK    6  A    between atoms: C_19  and  C_20 
REMARK       I    between atoms: C_20  and  N_21 
REMARK    7  A    between atoms: N_21  and  C_22 
REMARK    8  A    between atoms: C_25  and  C_26 
REMARK       I    between atoms: C_26  and  N_27 
ROOT
HETATM    1  C   UNL     1      40.084 -13.500   5.656  1.00  0.00     0.070 C 
HETATM    2  C   UNL     1      40.939 -12.253   5.557  1.00  0.00     0.027 C 
HETATM    3  C   UNL     1      41.093 -11.576   4.400  1.00  0.00     0.100 C 
ENDROOT
BRANCH   2   4
HETATM    4  N   UNL     1      41.547 -11.888   6.756  1.00  0.00    -0.302 N 
HETATM    5  H   UNL     1      41.012 -11.171   7.265  1.00  0.00     0.186 HD
BRANCH   4   6
HETATM    6  N   UNL     1      42.930 -11.745   6.900  1.00  0.00    -0.268 N 
HETATM    7  C   UNL     1      43.785 -12.822   6.767  1.00  0.00     0.260 C 
HETATM    8  O   UNL     1      44.980 -12.629   6.537  1.00  0.00    -0.269 OA
HETATM    9  H   UNL     1      43.308 -10.839   6.636  1.00  0.00     0.190 HD
BRANCH   7  10
HETATM   10  C   UNL     1      43.222 -14.219   7.023  1.00  0.00     0.280 C 
BRANCH  10  11
HETATM   11  O   UNL     1      44.139 -15.231   6.617  1.00  0.00    -0.342 OA
BRANCH  11  12
HETATM   12  C   UNL     1      43.771 -15.925   5.495  1.00  0.00     0.070 A 
HETATM   13  C   UNL     1      44.158 -17.267   5.462  1.00  0.00     0.049 A 
HETATM   14  C   UNL     1      43.845 -18.085   4.362  1.00  0.00    -0.023 A 
HETATM   15  C   UNL     1      43.142 -17.532   3.268  1.00  0.00    -0.026 A 
HETATM   16  C   UNL     1      44.211 -19.440   4.324  1.00  0.00     0.012 A 
HETATM   17  C   UNL     1      42.786 -16.176   3.299  1.00  0.00     0.015 A 
HETATM   18  C   UNL     1      42.820 -18.347   2.170  1.00  0.00     0.012 A 
HETATM   19  C   UNL     1      43.105 -15.376   4.402  1.00  0.00     0.037 A 
HETATM   20  C   UNL     1      43.187 -19.692   2.152  1.00  0.00     0.001 A 
HETATM   21  C   UNL     1      43.883 -20.239   3.227  1.00  0.00     0.001 A 
ENDBRANCH  11  12
ENDBRANCH  10  11
ENDBRANCH   7  10
ENDBRANCH   4   6
ENDBRANCH   2   4
BRANCH   3  22
HETATM   22  C   UNL     1      40.307 -11.862   3.167  1.00  0.00     0.247 C 
HETATM   23  N   UNL     1      40.993 -12.682   2.295  1.00  0.00    -0.324 N 
HETATM   24  H   UNL     1      41.912 -12.997   2.579  1.00  0.00     0.169 HD
HETATM   25  O   UNL     1      39.206 -11.358   2.992  1.00  0.00    -0.268 OA
BRANCH  23  26
HETATM   26  C   UNL     1      40.542 -13.148   1.040  1.00  0.00     0.035 A 
HETATM   27  C   UNL     1      40.488 -12.359  -0.112  1.00  0.00     0.030 A 
HETATM   28  C   UNL     1      40.013 -12.884  -1.321  1.00  0.00     0.019 A 
HETATM   29  C   UNL     1      39.581 -14.210  -1.390  1.00  0.00     0.032 A 
HETATM   30  C   UNL     1      39.651 -15.011  -0.245  1.00  0.00     0.019 A 
HETATM   31  C   UNL     1      40.123 -14.481   0.961  1.00  0.00     0.030 A 
BRANCH  29  32
HETATM   32  C   UNL     1      39.060 -14.812  -2.646  1.00  0.00     0.249 C 
HETATM   33  N   UNL     1      38.521 -16.065  -2.571  1.00  0.00    -0.366 N 
HETATM   34  H   UNL     1      38.637 -16.669  -1.771  1.00  0.00     0.159 HD
HETATM   35  H   UNL     1      38.265 -16.496  -3.450  1.00  0.00     0.159 HD
HETATM   36  O   UNL     1      39.143 -14.228  -3.719  1.00  0.00    -0.268 OA
ENDBRANCH  29  32
ENDBRANCH  23  26
ENDBRANCH   3  22
TORSDOF 8
ENDMDL
MODEL 2
REMARK VINA RESULT:      -9.2      5.557      9.270
REMARK  8 active torsions:
REMARK  status: ('A' for Active; 'I' for Inactive)
REMARK    1  A    between atoms: C_2  and  N_3 
REMARK    2  A    between atoms: N_3  and  N_4 
REMARK       I    between atoms: N_4  and  C_5 
REMARK    3  A    between atoms: C_5  and  C_6 
REMARK    4  A    between atoms: C_6  and  O_7 
REMARK    5  A    between atoms: O_7  and  C_8 
REMARK    6  A    between atoms: C_19  and  C_20 
REMARK       I    between atoms: C_20  and  N_21 
REMARK    7  A    between atoms: N_21  and  C_22 
REMARK    8  A    between atoms: C_25  and  C_26 
REMARK       I    between atoms: C_26  and  N_27 
ROOT
HETATM    1  C   UNL     1      43.584 -13.568   7.135  1.00  0.00     0.070 C 
HETATM    2  C   UNL     1      42.783 -12.639   6.246  1.00  0.00     0.027 C 
HETATM    3  C   UNL     1      42.111 -13.080   5.162  1.00  0.00     0.100 C 
ENDROOT
BRANCH   2   4
HETATM    4  N   UNL     1      42.815 -11.305   6.647  1.00  0.00    -0.302 N 
HETATM    5  H   UNL     1      42.038 -10.757   6.256  1.00  0.00     0.186 HD
BRANCH   4   6
HETATM    6  N   UNL     1      43.999 -10.570   6.764  1.00  0.00    -0.268 N 
HETATM    7  C   UNL     1      44.521 -10.233   7.998  1.00  0.00     0.260 C 
HETATM    8  O   UNL     1      45.710  -9.920   8.094  1.00  0.00    -0.269 OA
HETATM    9  H   UNL     1      44.673 -10.700   6.014  1.00  0.00     0.190 HD
BRANCH   7  10
HETATM   10  C   UNL     1      43.563 -10.159   9.186  1.00  0.00     0.280 C 
BRANCH  10  11
HETATM   11  O   UNL     1      44.032  -9.247  10.175  1.00  0.00    -0.342 OA
BRANCH  11  12
HETATM   12  C   UNL     1      43.262  -9.179  11.306  1.00  0.00     0.070 A 
HETATM   13  C   UNL     1      43.626  -8.191  12.224  1.00  0.00     0.049 A 
HETATM   14  C   UNL     1      42.918  -8.023  13.427  1.00  0.00    -0.023 A 
HETATM   15  C   UNL     1      41.833  -8.882  13.716  1.00  0.00    -0.026 A 
HETATM   16  C   UNL     1      43.261  -7.022  14.350  1.00  0.00     0.012 A 
HETATM   17  C   UNL     1      41.497  -9.889  12.800  1.00  0.00     0.015 A 
HETATM   18  C   UNL     1      41.118  -8.713  14.912  1.00  0.00     0.012 A 
HETATM   19  C   UNL     1      42.211 -10.042  11.608  1.00  0.00     0.037 A 
HETATM   20  C   UNL     1      41.469  -7.709  15.815  1.00  0.00     0.001 A 
HETATM   21  C   UNL     1      42.540  -6.865  15.536  1.00  0.00     0.001 A 
ENDBRANCH  11  12
ENDBRANCH  10  11
ENDBRANCH   7  10
ENDBRANCH   4   6
ENDBRANCH   2   4
BRANCH   3  22
HETATM   22  C   UNL     1      41.932 -14.522   4.835  1.00  0.00     0.247 C 
HETATM   23  N   UNL     1      43.045 -15.057   4.220  1.00  0.00    -0.324 N 
HETATM   24  H   UNL     1      43.835 -14.442   4.074  1.00  0.00     0.169 HD
HETATM   25  O   UNL     1      40.875 -15.094   5.071  1.00  0.00    -0.268 OA
BRANCH  23  26
HETATM   26  C   UNL     1      43.210 -16.388   3.780  1.00  0.00     0.035 A 
HETATM   27  C   UNL     1      42.763 -16.864   2.545  1.00  0.00     0.030 A 
HETATM   28  C   UNL     1      42.948 -18.204   2.181  1.00  0.00     0.019 A 
HETATM   29  C   UNL     1      43.582 -19.089   3.056  1.00  0.00     0.032 A 
HETATM   30  C   UNL     1      44.052 -18.614   4.286  1.00  0.00     0.019 A 
HETATM   31  C   UNL     1      43.861 -17.275   4.646  1.00  0.00     0.030 A 
BRANCH  29  32
HETATM   32  C   UNL     1      43.795 -20.522   2.721  1.00  0.00     0.249 C 
HETATM   33  N   UNL     1      44.148 -21.364   3.738  1.00  0.00    -0.366 N 
HETATM   34  H   UNL     1      44.461 -21.039   4.640  1.00  0.00     0.159 HD
HETATM   35  H   UNL     1      44.386 -22.311   3.473  1.00  0.00     0.159 HD
HETATM   36  O   UNL     1      43.697 -20.933   1.571  1.00  0.00    -0.268 OA
ENDBRANCH  29  32
ENDBRANCH  23  26
ENDBRANCH   3  22
TORSDOF 8
ENDMDL
MODEL 3
REMARK VINA RESULT:      -9.2      4.305      9.061
REMARK  8 active torsions:
REMARK  status: ('A' for Active; 'I' for Inactive)
REMARK    1  A    between atoms: C_2  and  N_3 
REMARK    2  A    between atoms: N_3  and  N_4 
REMARK       I    between atoms: N_4  and  C_5 
REMARK    3  A    between atoms: C_5  and  C_6 
REMARK    4  A    between atoms: C_6  and  O_7 
REMARK    5  A    between atoms: O_7  and  C_8 
REMARK    6  A    between atoms: C_19  and  C_20 
REMARK       I    between atoms: C_20  and  N_21 
REMARK    7  A    between atoms: N_21  and  C_22 
REMARK    8  A    between atoms: C_25  and  C_26 
REMARK       I    between atoms: C_26  and  N_27 
ROOT
HETATM    1  C   UNL     1      43.586 -13.100   7.230  1.00  0.00     0.070 C 
HETATM    2  C   UNL     1      44.096 -11.946   6.389  1.00  0.00     0.027 C 
HETATM    3  C   UNL     1      44.455 -10.764   6.932  1.00  0.00     0.100 C 
ENDROOT
BRANCH   2   4
HETATM    4  N   UNL     1      44.149 -12.221   5.024  1.00  0.00    -0.302 N 
HETATM    5  H   UNL     1      45.113 -12.289   4.674  1.00  0.00     0.186 HD
BRANCH   4   6
HETATM    6  N   UNL     1      43.267 -11.659   4.097  1.00  0.00    -0.268 N 
HETATM    7  C   UNL     1      42.073 -12.273   3.771  1.00  0.00     0.260 C 
HETATM    8  O   UNL     1      41.168 -11.614   3.254  1.00  0.00    -0.269 OA
HETATM    9  H   UNL     1      43.278 -10.644   4.039  1.00  0.00     0.190 HD
BRANCH   7  10
HETATM   10  C   UNL     1      41.966 -13.784   3.971  1.00  0.00     0.280 C 
BRANCH  10  11
HETATM   11  O   UNL     1      42.923 -14.481   3.179  1.00  0.00    -0.342 OA
BRANCH  11  12
HETATM   12  C   UNL     1      43.247 -15.731   3.635  1.00  0.00     0.070 A 
HETATM   13  C   UNL     1      43.082 -16.770   2.717  1.00  0.00     0.049 A 
HETATM   14  C   UNL     1      43.374 -18.100   3.066  1.00  0.00    -0.023 A 
HETATM   15  C   UNL     1      43.826 -18.388   4.374  1.00  0.00    -0.026 A 
HETATM   16  C   UNL     1      43.231 -19.152   2.146  1.00  0.00     0.012 A 
HETATM   17  C   UNL     1      43.958 -17.340   5.296  1.00  0.00     0.015 A 
HETATM   18  C   UNL     1      44.127 -19.713   4.725  1.00  0.00     0.012 A 
HETATM   19  C   UNL     1      43.664 -16.022   4.932  1.00  0.00     0.037 A 
HETATM   20  C   UNL     1      43.984 -20.745   3.797  1.00  0.00     0.001 A 
HETATM   21  C   UNL     1      43.535 -20.465   2.509  1.00  0.00     0.001 A 
ENDBRANCH  11  12
ENDBRANCH  10  11
ENDBRANCH   7  10
ENDBRANCH   4   6
ENDBRANCH   2   4
BRANCH   3  22
HETATM   22  C   UNL     1      44.566 -10.531   8.399  1.00  0.00     0.247 C 
HETATM   23  N   UNL     1      43.478  -9.847   8.898  1.00  0.00    -0.324 N 
HETATM   24  H   UNL     1      42.746  -9.598   8.246  1.00  0.00     0.169 HD
HETATM   25  O   UNL     1      45.558 -10.890   9.019  1.00  0.00    -0.268 OA
BRANCH  23  26
HETATM   26  C   UNL     1      43.263  -9.465  10.241  1.00  0.00     0.035 A 
HETATM   27  C   UNL     1      43.040 -10.368  11.283  1.00  0.00     0.030 A 
HETATM   28  C   UNL     1      42.818  -9.916  12.591  1.00  0.00     0.019 A 
HETATM   29  C   UNL     1      42.811  -8.548  12.870  1.00  0.00     0.032 A 
HETATM   30  C   UNL     1      43.054  -7.638  11.835  1.00  0.00     0.019 A 
HETATM   31  C   UNL     1      43.272  -8.095  10.529  1.00  0.00     0.030 A 
BRANCH  29  32
HETATM   32  C   UNL     1      42.572  -8.017  14.238  1.00  0.00     0.249 C 
HETATM   33  N   UNL     1      43.178  -6.839  14.576  1.00  0.00    -0.366 N 
HETATM   34  H   UNL     1      43.921  -6.426  14.032  1.00  0.00     0.159 HD
HETATM   35  H   UNL     1      43.084  -6.548  15.540  1.00  0.00     0.159 HD
HETATM   36  O   UNL     1      41.889  -8.626  15.052  1.00  0.00    -0.268 OA
ENDBRANCH  29  32
ENDBRANCH  23  26
ENDBRANCH   3  22
TORSDOF 8
ENDMDL
MODEL 4
REMARK VINA RESULT:      -9.1      5.157      9.642
REMARK  8 active torsions:
REMARK  status: ('A' for Active; 'I' for Inactive)
REMARK    1  A    between atoms: C_2  and  N_3 
REMARK    2  A    between atoms: N_3  and  N_4 
REMARK       I    between atoms: N_4  and  C_5 
REMARK    3  A    between atoms: C_5  and  C_6 
REMARK    4  A    between atoms: C_6  and  O_7 
REMARK    5  A    between atoms: O_7  and  C_8 
REMARK    6  A    between atoms: C_19  and  C_20 
REMARK       I    between atoms: C_20  and  N_21 
REMARK    7  A    between atoms: N_21  and  C_22 
REMARK    8  A    between atoms: C_25  and  C_26 
REMARK       I    between atoms: C_26  and  N_27 
ROOT
HETATM    1  C   UNL     1      42.468  -9.616   7.210  1.00  0.00     0.070 C 
HETATM    2  C   UNL     1      43.182 -10.908   7.553  1.00  0.00     0.027 C 
HETATM    3  C   UNL     1      43.918 -11.047   8.676  1.00  0.00     0.100 C 
ENDROOT
BRANCH   2   4
HETATM    4  N   UNL     1      43.012 -11.916   6.607  1.00  0.00    -0.302 N 
HETATM    5  H   UNL     1      43.646 -11.813   5.804  1.00  0.00     0.186 HD
BRANCH   4   6
HETATM    6  N   UNL     1      41.761 -12.431   6.255  1.00  0.00    -0.268 N 
HETATM    7  C   UNL     1      41.513 -13.790   6.257  1.00  0.00     0.260 C 
HETATM    8  O   UNL     1      40.351 -14.199   6.303  1.00  0.00    -0.269 OA
HETATM    9  H   UNL     1      40.966 -11.831   6.457  1.00  0.00     0.190 HD
BRANCH   7  10
HETATM   10  C   UNL     1      42.701 -14.736   6.091  1.00  0.00     0.280 C 
BRANCH  10  11
HETATM   11  O   UNL     1      43.249 -14.655   4.779  1.00  0.00    -0.342 OA
BRANCH  11  12
HETATM   12  C   UNL     1      43.248 -15.835   4.081  1.00  0.00     0.070 A 
HETATM   13  C   UNL     1      43.646 -16.962   4.803  1.00  0.00     0.049 A 
HETATM   14  C   UNL     1      43.693 -18.230   4.198  1.00  0.00    -0.023 A 
HETATM   15  C   UNL     1      43.347 -18.359   2.834  1.00  0.00    -0.026 A 
HETATM   16  C   UNL     1      44.073 -19.376   4.917  1.00  0.00     0.012 A 
HETATM   17  C   UNL     1      42.979 -17.214   2.112  1.00  0.00     0.015 A 
HETATM   18  C   UNL     1      43.385 -19.625   2.227  1.00  0.00     0.012 A 
HETATM   19  C   UNL     1      42.936 -15.960   2.729  1.00  0.00     0.037 A 
HETATM   20  C   UNL     1      43.759 -20.753   2.958  1.00  0.00     0.001 A 
HETATM   21  C   UNL     1      44.105 -20.628   4.301  1.00  0.00     0.001 A 
ENDBRANCH  11  12
ENDBRANCH  10  11
ENDBRANCH   7  10
ENDBRANCH   4   6
ENDBRANCH   2   4
BRANCH   3  22
HETATM   22  C   UNL     1      43.954 -10.035   9.768  1.00  0.00     0.247 C 
HETATM   23  N   UNL     1      42.981 -10.263  10.719  1.00  0.00    -0.324 N 
HETATM   24  H   UNL     1      42.381 -11.066  10.585  1.00  0.00     0.169 HD
HETATM   25  O   UNL     1      44.752  -9.107   9.739  1.00  0.00    -0.268 OA
BRANCH  23  26
HETATM   26  C   UNL     1      42.739  -9.499  11.881  1.00  0.00     0.035 A 
HETATM   27  C   UNL     1      43.440  -8.335  12.210  1.00  0.00     0.030 A 
HETATM   28  C   UNL     1      43.157  -7.634  13.390  1.00  0.00     0.019 A 
HETATM   29  C   UNL     1      42.167  -8.096  14.261  1.00  0.00     0.032 A 
HETATM   30  C   UNL     1      41.448  -9.249  13.928  1.00  0.00     0.019 A 
HETATM   31  C   UNL     1      41.737  -9.947  12.749  1.00  0.00     0.030 A 
BRANCH  29  32
HETATM   32  C   UNL     1      41.835  -7.395  15.529  1.00  0.00     0.249 C 
HETATM   33  N   UNL     1      42.835  -6.698  16.148  1.00  0.00    -0.366 N 
HETATM   34  H   UNL     1      43.809  -6.798  15.905  1.00  0.00     0.159 HD
HETATM   35  H   UNL     1      42.616  -6.313  17.058  1.00  0.00     0.159 HD
HETATM   36  O   UNL     1      40.719  -7.466  16.028  1.00  0.00    -0.268 OA
ENDBRANCH  29  32
ENDBRANCH  23  26
ENDBRANCH   3  22
TORSDOF 8
ENDMDL
MODEL 5
REMARK VINA RESULT:      -9.0      5.833     10.274
REMARK  8 active torsions:
REMARK  status: ('A' for Active; 'I' for Inactive)
REMARK    1  A    between atoms: C_2  and  N_3 
REMARK    2  A    between atoms: N_3  and  N_4 
REMARK       I    between atoms: N_4  and  C_5 
REMARK    3  A    between atoms: C_5  and  C_6 
REMARK    4  A    between atoms: C_6  and  O_7 
REMARK    5  A    between atoms: O_7  and  C_8 
REMARK    6  A    between atoms: C_19  and  C_20 
REMARK       I    between atoms: C_20  and  N_21 
REMARK    7  A    between atoms: N_21  and  C_22 
REMARK    8  A    between atoms: C_25  and  C_26 
REMARK       I    between atoms: C_26  and  N_27 
ROOT
HETATM    1  C   UNL     1      44.763  -8.819   8.385  1.00  0.00     0.070 C 
HETATM    2  C   UNL     1      44.527 -10.287   8.680  1.00  0.00     0.027 C 
HETATM    3  C   UNL     1      43.769 -10.699   9.718  1.00  0.00     0.100 C 
ENDROOT
BRANCH   2   4
HETATM    4  N   UNL     1      45.166 -11.152   7.794  1.00  0.00    -0.302 N 
HETATM    5  H   UNL     1      46.082 -11.465   8.142  1.00  0.00     0.186 HD
BRANCH   4   6
HETATM    6  N   UNL     1      45.134 -10.986   6.407  1.00  0.00    -0.268 N 
HETATM    7  C   UNL     1      44.129 -11.538   5.636  1.00  0.00     0.260 C 
HETATM    8  O   UNL     1      43.911 -11.095   4.507  1.00  0.00    -0.269 OA
HETATM    9  H   UNL     1      45.540 -10.121   6.058  1.00  0.00     0.190 HD
BRANCH   7  10
HETATM   10  C   UNL     1      43.396 -12.761   6.184  1.00  0.00     0.280 C 
BRANCH  10  11
HETATM   11  O   UNL     1      42.766 -13.500   5.141  1.00  0.00    -0.342 OA
BRANCH  11  12
HETATM   12  C   UNL     1      43.155 -14.810   5.048  1.00  0.00     0.070 A 
HETATM   13  C   UNL     1      42.826 -15.453   3.852  1.00  0.00     0.049 A 
HETATM   14  C   UNL     1      43.165 -16.800   3.636  1.00  0.00    -0.023 A 
HETATM   15  C   UNL     1      43.833 -17.516   4.656  1.00  0.00    -0.026 A 
HETATM   16  C   UNL     1      42.858 -17.453   2.431  1.00  0.00     0.012 A 
HETATM   17  C   UNL     1      44.130 -16.868   5.863  1.00  0.00     0.015 A 
HETATM   18  C   UNL     1      44.181 -18.860   4.442  1.00  0.00     0.012 A 
HETATM   19  C   UNL     1      43.787 -15.527   6.061  1.00  0.00     0.037 A 
HETATM   20  C   UNL     1      43.873 -19.491   3.236  1.00  0.00     0.001 A 
HETATM   21  C   UNL     1      43.211 -18.789   2.233  1.00  0.00     0.001 A 
ENDBRANCH  11  12
ENDBRANCH  10  11
ENDBRANCH   7  10
ENDBRANCH   4   6
ENDBRANCH   2   4
BRANCH   3  22
HETATM   22  C   UNL     1      42.947  -9.781  10.554  1.00  0.00     0.247 C 
HETATM   23  N   UNL     1      43.383  -9.742  11.862  1.00  0.00    -0.324 N 
HETATM   24  H   UNL     1      44.188 -10.307  12.101  1.00  0.00     0.169 HD
HETATM   25  O   UNL     1      41.982  -9.195  10.082  1.00  0.00    -0.268 OA
BRANCH  23  26
HETATM   26  C   UNL     1      42.833  -8.977  12.914  1.00  0.00     0.035 A 
HETATM   27  C   UNL     1      41.711  -9.361  13.654  1.00  0.00     0.030 A 
HETATM   28  C   UNL     1      41.209  -8.544  14.676  1.00  0.00     0.019 A 
HETATM   29  C   UNL     1      41.826  -7.325  14.967  1.00  0.00     0.032 A 
HETATM   30  C   UNL     1      42.962  -6.944  14.244  1.00  0.00     0.019 A 
HETATM   31  C   UNL     1      43.458  -7.763  13.222  1.00  0.00     0.030 A 
BRANCH  29  32
HETATM   32  C   UNL     1      41.328  -6.417  16.034  1.00  0.00     0.249 C 
HETATM   33  N   UNL     1      42.250  -5.868  16.880  1.00  0.00    -0.366 N 
HETATM   34  H   UNL     1      43.203  -6.195  16.944  1.00  0.00     0.159 HD
HETATM   35  H   UNL     1      41.883  -5.336  17.659  1.00  0.00     0.159 HD
HETATM   36  O   UNL     1      40.132  -6.196  16.181  1.00  0.00    -0.268 OA
ENDBRANCH  29  32
ENDBRANCH  23  26
ENDBRANCH   3  22
TORSDOF 8
ENDMDL
MODEL 6
REMARK VINA RESULT:      -8.9      2.377      7.122
REMARK  8 active torsions:
REMARK  status: ('A' for Active; 'I' for Inactive)
REMARK    1  A    between atoms: C_2  and  N_3 
REMARK    2  A    between atoms: N_3  and  N_4 
REMARK       I    between atoms: N_4  and  C_5 
REMARK    3  A    between atoms: C_5  and  C_6 
REMARK    4  A    between atoms: C_6  and  O_7 
REMARK    5  A    between atoms: O_7  and  C_8 
REMARK    6  A    between atoms: C_19  and  C_20 
REMARK       I    between atoms: C_20  and  N_21 
REMARK    7  A    between atoms: N_21  and  C_22 
REMARK    8  A    between atoms: C_25  and  C_26 
REMARK       I    between atoms: C_26  and  N_27 
ROOT
HETATM    1  C   UNL     1      39.450 -11.252   3.142  1.00  0.00     0.070 C 
HETATM    2  C   UNL     1      39.503 -12.764   3.224  1.00  0.00     0.027 C 
HETATM    3  C   UNL     1      40.147 -13.409   4.219  1.00  0.00     0.100 C 
ENDROOT
BRANCH   2   4
HETATM    4  N   UNL     1      38.840 -13.410   2.183  1.00  0.00    -0.302 N 
HETATM    5  H   UNL     1      38.499 -14.342   2.452  1.00  0.00     0.186 HD
BRANCH   4   6
HETATM    6  N   UNL     1      39.260 -13.345   0.851  1.00  0.00    -0.268 N 
HETATM    7  C   UNL     1      39.818 -14.437   0.215  1.00  0.00     0.260 C 
HETATM    8  O   UNL     1      39.843 -14.480  -1.016  1.00  0.00    -0.269 OA
HETATM    9  H   UNL     1      38.745 -12.698   0.259  1.00  0.00     0.190 HD
BRANCH   7  10
HETATM   10  C   UNL     1      40.485 -15.506   1.079  1.00  0.00     0.280 C 
BRANCH  10  11
HETATM   11  O   UNL     1      41.766 -15.078   1.536  1.00  0.00    -0.342 OA
BRANCH  11  12
HETATM   12  C   UNL     1      42.403 -15.960   2.369  1.00  0.00     0.070 A 
HETATM   13  C   UNL     1      42.460 -17.281   1.918  1.00  0.00     0.049 A 
HETATM   14  C   UNL     1      43.082 -18.282   2.684  1.00  0.00    -0.023 A 
HETATM   15  C   UNL     1      43.642 -17.945   3.938  1.00  0.00    -0.026 A 
HETATM   16  C   UNL     1      43.164 -19.610   2.234  1.00  0.00     0.012 A 
HETATM   17  C   UNL     1      43.551 -16.622   4.393  1.00  0.00     0.015 A 
HETATM   18  C   UNL     1      44.272 -18.940   4.703  1.00  0.00     0.012 A 
HETATM   19  C   UNL     1      42.929 -15.638   3.618  1.00  0.00     0.037 A 
HETATM   20  C   UNL     1      44.348 -20.253   4.239  1.00  0.00     0.001 A 
HETATM   21  C   UNL     1      43.794 -20.588   3.006  1.00  0.00     0.001 A 
ENDBRANCH  11  12
ENDBRANCH  10  11
ENDBRANCH   7  10
ENDBRANCH   4   6
ENDBRANCH   2   4
BRANCH   3  22
HETATM   22  C   UNL     1      40.701 -12.725   5.420  1.00  0.00     0.247 C 
HETATM   23  N   UNL     1      41.952 -12.192   5.183  1.00  0.00    -0.324 N 
HETATM   24  H   UNL     1      42.336 -12.308   4.254  1.00  0.00     0.169 HD
HETATM   25  O   UNL     1      40.085 -12.714   6.478  1.00  0.00    -0.268 OA
BRANCH  23  26
HETATM   26  C   UNL     1      42.756 -11.481   6.100  1.00  0.00     0.035 A 
HETATM   27  C   UNL     1      43.900 -12.008   6.706  1.00  0.00     0.030 A 
HETATM   28  C   UNL     1      44.643 -11.249   7.620  1.00  0.00     0.019 A 
HETATM   29  C   UNL     1      44.244  -9.950   7.943  1.00  0.00     0.032 A 
HETATM   30  C   UNL     1      43.112  -9.410   7.324  1.00  0.00     0.019 A 
HETATM   31  C   UNL     1      42.371 -10.173   6.414  1.00  0.00     0.030 A 
BRANCH  29  32
HETATM   32  C   UNL     1      44.992  -9.108   8.914  1.00  0.00     0.249 C 
HETATM   33  N   UNL     1      45.186  -9.610  10.170  1.00  0.00    -0.366 N 
HETATM   34  H   UNL     1      44.688 -10.412  10.527  1.00  0.00     0.159 HD
HETATM   35  H   UNL     1      45.607  -8.982  10.843  1.00  0.00     0.159 HD
HETATM   36  O   UNL     1      45.390  -7.988   8.617  1.00  0.00    -0.268 OA
ENDBRANCH  29  32
ENDBRANCH  23  26
ENDBRANCH   3  22
TORSDOF 8
ENDMDL
MODEL 7
REMARK VINA RESULT:      -8.5      2.759      6.249
REMARK  8 active torsions:
REMARK  status: ('A' for Active; 'I' for Inactive)
REMARK    1  A    between atoms: C_2  and  N_3 
REMARK    2  A    between atoms: N_3  and  N_4 
REMARK       I    between atoms: N_4  and  C_5 
REMARK    3  A    between atoms: C_5  and  C_6 
REMARK    4  A    between atoms: C_6  and  O_7 
REMARK    5  A    between atoms: O_7  and  C_8 
REMARK    6  A    between atoms: C_19  and  C_20 
REMARK       I    between atoms: C_20  and  N_21 
REMARK    7  A    between atoms: N_21  and  C_22 
REMARK    8  A    between atoms: C_25  and  C_26 
REMARK       I    between atoms: C_26  and  N_27 
ROOT
HETATM    1  C   UNL     1      44.360 -12.808   6.480  1.00  0.00     0.070 C 
HETATM    2  C   UNL     1      42.945 -12.396   6.130  1.00  0.00     0.027 C 
HETATM    3  C   UNL     1      42.025 -13.281   5.693  1.00  0.00     0.100 C 
ENDROOT
BRANCH   2   4
HETATM    4  N   UNL     1      42.696 -11.035   6.293  1.00  0.00    -0.302 N 
HETATM    5  H   UNL     1      43.554 -10.470   6.249  1.00  0.00     0.186 HD
BRANCH   4   6
HETATM    6  N   UNL     1      41.756 -10.533   7.197  1.00  0.00    -0.268 N 
HETATM    7  C   UNL     1      40.458 -10.257   6.812  1.00  0.00     0.260 C 
HETATM    8  O   UNL     1      39.572 -10.170   7.665  1.00  0.00    -0.269 OA
HETATM    9  H   UNL     1      41.884 -10.814   8.166  1.00  0.00     0.190 HD
BRANCH   7  10
HETATM   10  C   UNL     1      40.197  -9.961   5.336  1.00  0.00     0.280 C 
BRANCH  10  11
HETATM   11  O   UNL     1      39.119 -10.746   4.832  1.00  0.00    -0.342 OA
BRANCH  11  12
HETATM   12  C   UNL     1      39.350 -11.322   3.610  1.00  0.00     0.070 A 
HETATM   13  C   UNL     1      39.414 -12.717   3.604  1.00  0.00     0.049 A 
HETATM   14  C   UNL     1      39.651 -13.426   2.414  1.00  0.00    -0.023 A 
HETATM   15  C   UNL     1      39.844 -12.711   1.210  1.00  0.00    -0.026 A 
HETATM   16  C   UNL     1      39.699 -14.830   2.390  1.00  0.00     0.012 A 
HETATM   17  C   UNL     1      39.807 -11.310   1.235  1.00  0.00     0.015 A 
HETATM   18  C   UNL     1      40.073 -13.416   0.017  1.00  0.00     0.012 A 
HETATM   19  C   UNL     1      39.569 -10.620   2.427  1.00  0.00     0.037 A 
HETATM   20  C   UNL     1      40.112 -14.810   0.011  1.00  0.00     0.001 A 
HETATM   21  C   UNL     1      39.927 -15.517   1.196  1.00  0.00     0.001 A 
ENDBRANCH  11  12
ENDBRANCH  10  11
ENDBRANCH   7  10
ENDBRANCH   4   6
ENDBRANCH   2   4
BRANCH   3  22
HETATM   22  C   UNL     1      42.237 -14.755   5.687  1.00  0.00     0.247 C 
HETATM   23  N   UNL     1      42.721 -15.204   4.476  1.00  0.00    -0.324 N 
HETATM   24  H   UNL     1      42.885 -14.512   3.756  1.00  0.00     0.169 HD
HETATM   25  O   UNL     1      41.950 -15.435   6.663  1.00  0.00    -0.268 OA
BRANCH  23  26
HETATM   26  C   UNL     1      43.032 -16.537   4.131  1.00  0.00     0.035 A 
HETATM   27  C   UNL     1      43.732 -17.415   4.963  1.00  0.00     0.030 A 
HETATM   28  C   UNL     1      44.020 -18.723   4.549  1.00  0.00     0.019 A 
HETATM   29  C   UNL     1      43.612 -19.166   3.289  1.00  0.00     0.032 A 
HETATM   30  C   UNL     1      42.893 -18.299   2.459  1.00  0.00     0.019 A 
HETATM   31  C   UNL     1      42.611 -16.993   2.876  1.00  0.00     0.030 A 
BRANCH  29  32
HETATM   32  C   UNL     1      43.900 -20.540   2.799  1.00  0.00     0.249 C 
HETATM   33  N   UNL     1      44.298 -21.470   3.718  1.00  0.00    -0.366 N 
HETATM   34  H   UNL     1      44.595 -21.230   4.652  1.00  0.00     0.159 HD
HETATM   35  H   UNL     1      44.586 -22.368   3.351  1.00  0.00     0.159 HD
HETATM   36  O   UNL     1      43.823 -20.827   1.611  1.00  0.00    -0.268 OA
ENDBRANCH  29  32
ENDBRANCH  23  26
ENDBRANCH   3  22
TORSDOF 8
ENDMDL
MODEL 8
REMARK VINA RESULT:      -8.3      5.265      9.096
REMARK  8 active torsions:
REMARK  status: ('A' for Active; 'I' for Inactive)
REMARK    1  A    between atoms: C_2  and  N_3 
REMARK    2  A    between atoms: N_3  and  N_4 
REMARK       I    between atoms: N_4  and  C_5 
REMARK    3  A    between atoms: C_5  and  C_6 
REMARK    4  A    between atoms: C_6  and  O_7 
REMARK    5  A    between atoms: O_7  and  C_8 
REMARK    6  A    between atoms: C_19  and  C_20 
REMARK       I    between atoms: C_20  and  N_21 
REMARK    7  A    between atoms: N_21  and  C_22 
REMARK    8  A    between atoms: C_25  and  C_26 
REMARK       I    between atoms: C_26  and  N_27 
ROOT
HETATM    1  C   UNL     1      44.606  -8.838   8.248  1.00  0.00     0.070 C 
HETATM    2  C   UNL     1      44.687 -10.210   8.887  1.00  0.00     0.027 C 
HETATM    3  C   UNL     1      44.196 -10.460  10.118  1.00  0.00     0.100 C 
ENDROOT
BRANCH   2   4
HETATM    4  N   UNL     1      45.315 -11.167   8.093  1.00  0.00    -0.302 N 
HETATM    5  H   UNL     1      46.195 -11.504   8.506  1.00  0.00     0.186 HD
BRANCH   4   6
HETATM    6  N   UNL     1      45.357 -11.096   6.698  1.00  0.00    -0.268 N 
HETATM    7  C   UNL     1      44.342 -11.614   5.917  1.00  0.00     0.260 C 
HETATM    8  O   UNL     1      44.212 -11.233   4.752  1.00  0.00    -0.269 OA
HETATM    9  H   UNL     1      45.852 -10.295   6.313  1.00  0.00     0.190 HD
BRANCH   7  10
HETATM   10  C   UNL     1      43.482 -12.730   6.508  1.00  0.00     0.280 C 
BRANCH  10  11
HETATM   11  O   UNL     1      42.786 -13.444   5.490  1.00  0.00    -0.342 OA
BRANCH  11  12
HETATM   12  C   UNL     1      43.204 -14.736   5.305  1.00  0.00     0.070 A 
HETATM   13  C   UNL     1      42.817 -15.327   4.100  1.00  0.00     0.049 A 
HETATM   14  C   UNL     1      43.178 -16.651   3.794  1.00  0.00    -0.023 A 
HETATM   15  C   UNL     1      43.929 -17.396   4.731  1.00  0.00    -0.026 A 
HETATM   16  C   UNL     1      42.812 -17.252   2.578  1.00  0.00     0.012 A 
HETATM   17  C   UNL     1      44.285 -16.801   5.950  1.00  0.00     0.015 A 
HETATM   18  C   UNL     1      44.299 -18.716   4.426  1.00  0.00     0.012 A 
HETATM   19  C   UNL     1      43.919 -15.483   6.238  1.00  0.00     0.037 A 
HETATM   20  C   UNL     1      43.932 -19.296   3.211  1.00  0.00     0.001 A 
HETATM   21  C   UNL     1      43.188 -18.565   2.289  1.00  0.00     0.001 A 
ENDBRANCH  11  12
ENDBRANCH  10  11
ENDBRANCH   7  10
ENDBRANCH   4   6
ENDBRANCH   2   4
BRANCH   3  22
HETATM   22  C   UNL     1      43.371  -9.488  10.890  1.00  0.00     0.247 C 
HETATM   23  N   UNL     1      42.031  -9.584  10.578  1.00  0.00    -0.324 N 
HETATM   24  H   UNL     1      41.761 -10.282   9.897  1.00  0.00     0.169 HD
HETATM   25  O   UNL     1      43.894  -8.694  11.661  1.00  0.00    -0.268 OA
BRANCH  23  26
HETATM   26  C   UNL     1      40.979  -8.816  11.124  1.00  0.00     0.035 A 
HETATM   27  C   UNL     1      40.145  -7.987  10.369  1.00  0.00     0.030 A 
HETATM   28  C   UNL     1      39.129  -7.240  10.981  1.00  0.00     0.019 A 
HETATM   29  C   UNL     1      38.940  -7.311  12.363  1.00  0.00     0.032 A 
HETATM   30  C   UNL     1      39.758  -8.155  13.122  1.00  0.00     0.019 A 
HETATM   31  C   UNL     1      40.774  -8.896  12.506  1.00  0.00     0.030 A 
BRANCH  29  32
HETATM   32  C   UNL     1      37.883  -6.532  13.061  1.00  0.00     0.249 C 
HETATM   33  N   UNL     1      37.167  -5.633  12.322  1.00  0.00    -0.366 N 
HETATM   34  H   UNL     1      37.444  -5.332  11.399  1.00  0.00     0.159 HD
HETATM   35  H   UNL     1      36.524  -5.043  12.834  1.00  0.00     0.159 HD
HETATM   36  O   UNL     1      37.682  -6.657  14.262  1.00  0.00    -0.268 OA
ENDBRANCH  29  32
ENDBRANCH  23  26
ENDBRANCH   3  22
TORSDOF 8
ENDMDL
MODEL 9
REMARK VINA RESULT:      -8.3      4.073      8.582
REMARK  8 active torsions:
REMARK  status: ('A' for Active; 'I' for Inactive)
REMARK    1  A    between atoms: C_2  and  N_3 
REMARK    2  A    between atoms: N_3  and  N_4 
REMARK       I    between atoms: N_4  and  C_5 
REMARK    3  A    between atoms: C_5  and  C_6 
REMARK    4  A    between atoms: C_6  and  O_7 
REMARK    5  A    between atoms: O_7  and  C_8 
REMARK    6  A    between atoms: C_19  and  C_20 
REMARK       I    between atoms: C_20  and  N_21 
REMARK    7  A    between atoms: N_21  and  C_22 
REMARK    8  A    between atoms: C_25  and  C_26 
REMARK       I    between atoms: C_26  and  N_27 
ROOT
HETATM    1  C   UNL     1      41.563  -9.090   4.468  1.00  0.00     0.070 C 
HETATM    2  C   UNL     1      42.494 -10.279   4.602  1.00  0.00     0.027 C 
HETATM    3  C   UNL     1      42.936 -10.715   5.799  1.00  0.00     0.100 C 
ENDROOT
BRANCH   2   4
HETATM    4  N   UNL     1      42.847 -10.860   3.386  1.00  0.00    -0.302 N 
HETATM    5  H   UNL     1      43.612 -10.357   2.917  1.00  0.00     0.186 HD
BRANCH   4   6
HETATM    6  N   UNL     1      41.913 -11.391   2.492  1.00  0.00    -0.268 N 
HETATM    7  C   UNL     1      41.825 -12.751   2.263  1.00  0.00     0.260 C 
HETATM    8  O   UNL     1      40.795 -13.223   1.776  1.00  0.00    -0.269 OA
HETATM    9  H   UNL     1      41.048 -10.865   2.396  1.00  0.00     0.190 HD
BRANCH   7  10
HETATM   10  C   UNL     1      43.065 -13.604   2.526  1.00  0.00     0.280 C 
BRANCH  10  11
HETATM   11  O   UNL     1      42.934 -14.901   1.951  1.00  0.00    -0.342 OA
BRANCH  11  12
HETATM   12  C   UNL     1      43.205 -15.938   2.804  1.00  0.00     0.070 A 
HETATM   13  C   UNL     1      43.241 -17.206   2.219  1.00  0.00     0.049 A 
HETATM   14  C   UNL     1      43.503 -18.352   2.990  1.00  0.00    -0.023 A 
HETATM   15  C   UNL     1      43.715 -18.217   4.381  1.00  0.00    -0.026 A 
HETATM   16  C   UNL     1      43.562 -19.631   2.411  1.00  0.00     0.012 A 
HETATM   17  C   UNL     1      43.645 -16.942   4.961  1.00  0.00     0.015 A 
HETATM   18  C   UNL     1      43.985 -19.358   5.153  1.00  0.00     0.012 A 
HETATM   19  C   UNL     1      43.384 -15.812   4.180  1.00  0.00     0.037 A 
HETATM   20  C   UNL     1      44.045 -20.620   4.561  1.00  0.00     0.001 A 
HETATM   21  C   UNL     1      43.832 -20.757   3.192  1.00  0.00     0.001 A 
ENDBRANCH  11  12
ENDBRANCH  10  11
ENDBRANCH   7  10
ENDBRANCH   4   6
ENDBRANCH   2   4
BRANCH   3  22
HETATM   22  C   UNL     1      42.422 -10.209   7.102  1.00  0.00     0.247 C 
HETATM   23  N   UNL     1      43.443  -9.909   7.981  1.00  0.00    -0.324 N 
HETATM   24  H   UNL     1      44.391 -10.048   7.656  1.00  0.00     0.169 HD
HETATM   25  O   UNL     1      41.220 -10.136   7.318  1.00  0.00    -0.268 OA
BRANCH  23  26
HETATM   26  C   UNL     1      43.308  -9.409   9.294  1.00  0.00     0.035 A 
HETATM   27  C   UNL     1      42.985  -8.083   9.595  1.00  0.00     0.030 A 
HETATM   28  C   UNL     1      42.883  -7.651  10.924  1.00  0.00     0.019 A 
HETATM   29  C   UNL     1      43.110  -8.546  11.973  1.00  0.00     0.032 A 
HETATM   30  C   UNL     1      43.414  -9.880  11.679  1.00  0.00     0.019 A 
HETATM   31  C   UNL     1      43.518 -10.305  10.349  1.00  0.00     0.030 A 
BRANCH  29  32
HETATM   32  C   UNL     1      43.024  -8.136  13.399  1.00  0.00     0.249 C 
HETATM   33  N   UNL     1      42.211  -8.867  14.220  1.00  0.00    -0.366 N 
HETATM   34  H   UNL     1      41.529  -9.527  13.876  1.00  0.00     0.159 HD
HETATM   35  H   UNL     1      42.088  -8.513  15.160  1.00  0.00     0.159 HD
HETATM   36  O   UNL     1      43.626  -7.158  13.823  1.00  0.00    -0.268 OA
ENDBRANCH  29  32
ENDBRANCH  23  26
ENDBRANCH   3  22
TORSDOF 8
ENDMDL
MODEL 10
REMARK VINA RESULT:      -8.2      2.681      3.467
REMARK  8 active torsions:
REMARK  status: ('A' for Active; 'I' for Inactive)
REMARK    1  A    between atoms: C_2  and  N_3 
REMARK    2  A    between atoms: N_3  and  N_4 
REMARK       I    between atoms: N_4  and  C_5 
REMARK    3  A    between atoms: C_5  and  C_6 
REMARK    4  A    between atoms: C_6  and  O_7 
REMARK    5  A    between atoms: O_7  and  C_8 
REMARK    6  A    between atoms: C_19  and  C_20 
REMARK       I    between atoms: C_20  and  N_21 
REMARK    7  A    between atoms: N_21  and  C_22 
REMARK    8  A    between atoms: C_25  and  C_26 
REMARK       I    between atoms: C_26  and  N_27 
ROOT
HETATM    1  C   UNL     1      39.579 -11.129   4.156  1.00  0.00     0.070 C 
HETATM    2  C   UNL     1      40.165 -12.502   3.897  1.00  0.00     0.027 C 
HETATM    3  C   UNL     1      40.178 -13.058   2.668  1.00  0.00     0.100 C 
ENDROOT
BRANCH   2   4
HETATM    4  N   UNL     1      40.670 -13.126   5.035  1.00  0.00    -0.302 N 
HETATM    5  H   UNL     1      41.692 -13.034   5.113  1.00  0.00     0.186 HD
BRANCH   4   6
HETATM    6  N   UNL     1      40.193 -14.349   5.513  1.00  0.00    -0.268 N 
HETATM    7  C   UNL     1      40.946 -15.137   6.363  1.00  0.00     0.260 C 
HETATM    8  O   UNL     1      40.392 -16.000   7.047  1.00  0.00    -0.269 OA
HETATM    9  H   UNL     1      39.183 -14.416   5.620  1.00  0.00     0.190 HD
BRANCH   7  10
HETATM   10  C   UNL     1      42.464 -14.973   6.334  1.00  0.00     0.280 C 
BRANCH  10  11
HETATM   11  O   UNL     1      42.942 -14.794   5.004  1.00  0.00    -0.342 OA
BRANCH  11  12
HETATM   12  C   UNL     1      43.058 -15.948   4.274  1.00  0.00     0.070 A 
HETATM   13  C   UNL     1      43.446 -17.080   4.995  1.00  0.00     0.049 A 
HETATM   14  C   UNL     1      43.606 -18.324   4.360  1.00  0.00    -0.023 A 
HETATM   15  C   UNL     1      43.387 -18.422   2.967  1.00  0.00    -0.026 A 
HETATM   16  C   UNL     1      43.976 -19.474   5.075  1.00  0.00     0.012 A 
HETATM   17  C   UNL     1      43.029 -17.271   2.249  1.00  0.00     0.015 A 
HETATM   18  C   UNL     1      43.538 -19.663   2.329  1.00  0.00     0.012 A 
HETATM   19  C   UNL     1      42.872 -16.042   2.897  1.00  0.00     0.037 A 
HETATM   20  C   UNL     1      43.901 -20.797   3.056  1.00  0.00     0.001 A 
HETATM   21  C   UNL     1      44.122 -20.703   4.428  1.00  0.00     0.001 A 
ENDBRANCH  11  12
ENDBRANCH  10  11
ENDBRANCH   7  10
ENDBRANCH   4   6
ENDBRANCH   2   4
BRANCH   3  22
HETATM   22  C   UNL     1      39.801 -12.325   1.427  1.00  0.00     0.247 C 
HETATM   23  N   UNL     1      40.905 -11.967   0.681  1.00  0.00    -0.324 N 
HETATM   24  H   UNL     1      41.812 -12.240   1.034  1.00  0.00     0.169 HD
HETATM   25  O   UNL     1      38.630 -12.063   1.183  1.00  0.00    -0.268 OA
BRANCH  23  26
HETATM   26  C   UNL     1      40.905 -11.267  -0.546  1.00  0.00     0.035 A 
HETATM   27  C   UNL     1      40.631 -11.858  -1.782  1.00  0.00     0.030 A 
HETATM   28  C   UNL     1      40.664 -11.105  -2.963  1.00  0.00     0.019 A 
HETATM   29  C   UNL     1      40.980  -9.745  -2.919  1.00  0.00     0.032 A 
HETATM   30  C   UNL     1      41.236  -9.142  -1.683  1.00  0.00     0.019 A 
HETATM   31  C   UNL     1      41.204  -9.900  -0.506  1.00  0.00     0.030 A 
BRANCH  29  32
HETATM   32  C   UNL     1      41.038  -8.903  -4.144  1.00  0.00     0.249 C 
HETATM   33  N   UNL     1      42.087  -8.035  -4.266  1.00  0.00    -0.366 N 
HETATM   34  H   UNL     1      42.697  -7.796  -3.499  1.00  0.00     0.159 HD
HETATM   35  H   UNL     1      42.055  -7.402  -5.055  1.00  0.00     0.159 HD
HETATM   36  O   UNL     1      40.162  -8.952  -4.998  1.00  0.00    -0.268 OA
ENDBRANCH  29  32
ENDBRANCH  23  26
ENDBRANCH   3  22
TORSDOF 8
ENDMDL
