MODEL 1
REMARK VINA RESULT:      -8.4      0.000      0.000
REMARK  8 active torsions:
REMARK  status: ('A' for Active; 'I' for Inactive)
REMARK    1  A    between atoms: N_4  and  C_5 
REMARK    2  A    between atoms: C_5  and  C_6 
REMARK    3  A    between atoms: C_11  and  C_12 
REMARK    4  A    between atoms: C_12  and  C_13 
REMARK       I    between atoms: C_13  and  N_14 
REMARK    5  A    between atoms: N_14  and  N_15 
REMARK       I    between atoms: N_15  and  C_16 
REMARK    6  A    between atoms: C_16  and  C_17 
REMARK    7  A    between atoms: C_21  and  C_22 
REMARK    8  A    between atoms: C_25  and  O_26 
ROOT
HETATM    1  N   UNL     1      43.559 -12.015   7.893  1.00  0.00    -0.262 N 
HETATM    2  C   UNL     1      43.036 -11.685   6.661  1.00  0.00     0.288 C 
HETATM    3  O   UNL     1      42.661 -10.543   6.403  1.00  0.00    -0.264 OA
HETATM    4  H   UNL     1      43.870 -12.948   8.151  1.00  0.00     0.190 HD
ENDROOT
BRANCH   1   5
HETATM    5  N   UNL     1      43.595 -11.044   8.895  1.00  0.00    -0.267 N 
HETATM    6  C   UNL     1      44.811 -10.487   9.232  1.00  0.00     0.240 C 
HETATM    7  O   UNL     1      45.857 -10.789   8.652  1.00  0.00    -0.272 OA
HETATM    8  H   UNL     1      42.710 -10.802   9.337  1.00  0.00     0.190 HD
BRANCH   6   9
HETATM    9  C   UNL     1      44.755  -9.521  10.397  1.00  0.00     0.147 C 
BRANCH   9  10
HETATM   10  C   UNL     1      43.389  -8.962  10.612  1.00  0.00     0.001 A 
HETATM   11  C   UNL     1      42.731  -7.952   9.859  1.00  0.00     0.059 A 
HETATM   12  C   UNL     1      43.234  -7.177   8.697  1.00  0.00     0.073 C 
HETATM   13  N   UNL     1      41.500  -7.720  10.316  1.00  0.00    -0.177 NA
HETATM   14  N   UNL     1      41.338  -8.595  11.324  1.00  0.00    -0.273 N 
HETATM   15  C   UNL     1      42.465  -9.340  11.575  1.00  0.00     0.035 A 
HETATM   16  C   UNL     1      42.573 -10.357  12.654  1.00  0.00     0.070 C 
BRANCH  14  17
HETATM   17  C   UNL     1      40.039  -8.653  11.975  1.00  0.00     0.155 C 
BRANCH  17  18
HETATM   18  C   UNL     1      39.694  -7.378  12.765  1.00  0.00    -0.003 C 
HETATM   19  C   UNL     1      38.188  -7.237  12.995  1.00  0.00     0.011 C 
HETATM   20  C   UNL     1      40.425  -7.384  14.108  1.00  0.00     0.011 C 
ENDBRANCH  17  18
ENDBRANCH  14  17
ENDBRANCH   9  10
ENDBRANCH   6   9
ENDBRANCH   1   5
BRANCH   2  21
HETATM   21  C   UNL     1      42.952 -12.762   5.715  1.00  0.00     0.121 A 
HETATM   22  N   UNL     1      42.314 -12.618   4.515  1.00  0.00    -0.272 N 
HETATM   23  H   UNL     1      41.855 -11.782   4.166  1.00  0.00     0.189 HD
HETATM   24  N   UNL     1      42.320 -13.720   3.754  1.00  0.00    -0.174 NA
HETATM   25  C   UNL     1      42.979 -14.637   4.480  1.00  0.00     0.089 A 
HETATM   26  C   UNL     1      43.399 -14.068   5.717  1.00  0.00     0.071 A 
BRANCH  25  27
HETATM   27  C   UNL     1      43.189 -16.006   3.989  1.00  0.00    -0.005 A 
HETATM   28  C   UNL     1      43.745 -16.984   4.825  1.00  0.00     0.016 A 
HETATM   29  C   UNL     1      43.941 -18.290   4.367  1.00  0.00     0.037 A 
HETATM   30  C   UNL     1      43.589 -18.649   3.066  1.00  0.00     0.068 A 
HETATM   31  C   UNL     1      43.045 -17.683   2.222  1.00  0.00     0.037 A 
HETATM   32  C   UNL     1      42.847 -16.372   2.681  1.00  0.00     0.016 A 
BRANCH  30  33
HETATM   33  O   UNL     1      43.829 -19.956   2.746  1.00  0.00    -0.356 OA
HETATM   34  C   UNL     1      43.915 -20.876   3.826  1.00  0.00     0.210 C 
ENDBRANCH  30  33
ENDBRANCH  25  27
ENDBRANCH   2  21
TORSDOF 8
ENDMDL
MODEL 2
REMARK VINA RESULT:      -8.4      2.579     11.233
REMARK  8 active torsions:
REMARK  status: ('A' for Active; 'I' for Inactive)
REMARK    1  A    between atoms: N_4  and  C_5 
REMARK    2  A    between atoms: C_5  and  C_6 
REMARK    3  A    between atoms: C_11  and  C_12 
REMARK    4  A    between atoms: C_12  and  C_13 
REMARK       I    between atoms: C_13  and  N_14 
REMARK    5  A    between atoms: N_14  and  N_15 
REMARK       I    between atoms: N_15  and  C_16 
REMARK    6  A    between atoms: C_16  and  C_17 
REMARK    7  A    between atoms: C_21  and  C_22 
REMARK    8  A    between atoms: C_25  and  O_26 
ROOT
HETATM    1  N   UNL     1      43.264 -10.568   8.124  1.00  0.00    -0.262 N 
HETATM    2  C   UNL     1      44.229 -10.546   9.108  1.00  0.00     0.288 C 
HETATM    3  O   UNL     1      45.413 -10.769   8.859  1.00  0.00    -0.264 OA
HETATM    4  H   UNL     1      42.276 -10.400   8.288  1.00  0.00     0.190 HD
ENDROOT
BRANCH   1   5
HETATM    5  N   UNL     1      43.631 -10.925   6.825  1.00  0.00    -0.267 N 
HETATM    6  C   UNL     1      42.638 -11.214   5.913  1.00  0.00     0.240 C 
HETATM    7  O   UNL     1      41.440 -11.130   6.195  1.00  0.00    -0.272 OA
HETATM    8  H   UNL     1      44.628 -10.963   6.619  1.00  0.00     0.190 HD
BRANCH   6   9
HETATM    9  C   UNL     1      43.143 -11.688   4.566  1.00  0.00     0.147 C 
BRANCH   9  10
HETATM   10  C   UNL     1      42.632 -13.043   4.208  1.00  0.00     0.001 A 
HETATM   11  C   UNL     1      41.827 -13.405   3.094  1.00  0.00     0.059 A 
HETATM   12  C   UNL     1      41.264 -12.538   2.027  1.00  0.00     0.073 C 
HETATM   13  N   UNL     1      41.580 -14.715   3.069  1.00  0.00    -0.177 NA
HETATM   14  N   UNL     1      42.251 -15.210   4.125  1.00  0.00    -0.273 N 
HETATM   15  C   UNL     1      42.867 -14.237   4.873  1.00  0.00     0.035 A 
HETATM   16  C   UNL     1      43.647 -14.502   6.111  1.00  0.00     0.070 C 
BRANCH  14  17
HETATM   17  C   UNL     1      42.254 -16.651   4.316  1.00  0.00     0.155 C 
BRANCH  17  18
HETATM   18  C   UNL     1      43.475 -17.348   3.688  1.00  0.00    -0.003 C 
HETATM   19  C   UNL     1      44.129 -18.338   4.653  1.00  0.00     0.011 C 
HETATM   20  C   UNL     1      43.057 -18.072   2.406  1.00  0.00     0.011 C 
ENDBRANCH  17  18
ENDBRANCH  14  17
ENDBRANCH   9  10
ENDBRANCH   6   9
ENDBRANCH   1   5
BRANCH   2  21
HETATM   21  C   UNL     1      43.756 -10.257  10.433  1.00  0.00     0.121 A 
HETATM   22  N   UNL     1      43.401 -11.248  11.303  1.00  0.00    -0.272 N 
HETATM   23  H   UNL     1      43.431 -12.249  11.132  1.00  0.00     0.189 HD
HETATM   24  N   UNL     1      42.975 -10.807  12.494  1.00  0.00    -0.174 NA
HETATM   25  C   UNL     1      43.039  -9.469  12.409  1.00  0.00     0.089 A 
HETATM   26  C   UNL     1      43.534  -9.086  11.129  1.00  0.00     0.071 A 
BRANCH  25  27
HETATM   27  C   UNL     1      42.635  -8.604  13.526  1.00  0.00    -0.005 A 
HETATM   28  C   UNL     1      43.290  -7.386  13.755  1.00  0.00     0.016 A 
HETATM   29  C   UNL     1      42.907  -6.555  14.812  1.00  0.00     0.037 A 
HETATM   30  C   UNL     1      41.864  -6.920  15.664  1.00  0.00     0.068 A 
HETATM   31  C   UNL     1      41.212  -8.133  15.452  1.00  0.00     0.037 A 
HETATM   32  C   UNL     1      41.595  -8.968  14.392  1.00  0.00     0.016 A 
BRANCH  30  33
HETATM   33  O   UNL     1      41.588  -6.018  16.652  1.00  0.00    -0.356 OA
HETATM   34  C   UNL     1      40.884  -4.843  16.271  1.00  0.00     0.210 C 
ENDBRANCH  30  33
ENDBRANCH  25  27
ENDBRANCH   2  21
TORSDOF 8
ENDMDL
MODEL 3
REMARK VINA RESULT:      -8.3      1.395      1.739
REMARK  8 active torsions:
REMARK  status: ('A' for Active; 'I' for Inactive)
REMARK    1  A    between atoms: N_4  and  C_5 
REMARK    2  A    between atoms: C_5  and  C_6 
REMARK    3  A    between atoms: C_11  and  C_12 
REMARK    4  A    between atoms: C_12  and  C_13 
REMARK       I    between atoms: C_13  and  N_14 
REMARK    5  A    between atoms: N_14  and  N_15 
REMARK       I    between atoms: N_15  and  C_16 
REMARK    6  A    between atoms: C_16  and  C_17 
REMARK    7  A    between atoms: C_21  and  C_22 
REMARK    8  A    between atoms: C_25  and  O_26 
ROOT
HETATM    1  N   UNL     1      43.610 -11.474   8.668  1.00  0.00    -0.262 N 
HETATM    2  C   UNL     1      43.934 -11.604   7.335  1.00  0.00     0.288 C 
HETATM    3  O   UNL     1      44.526 -10.717   6.723  1.00  0.00    -0.264 OA
HETATM    4  H   UNL     1      43.113 -12.177   9.208  1.00  0.00     0.190 HD
ENDROOT
BRANCH   1   5
HETATM    5  N   UNL     1      43.898 -10.273   9.320  1.00  0.00    -0.267 N 
HETATM    6  C   UNL     1      44.061 -10.287  10.689  1.00  0.00     0.240 C 
HETATM    7  O   UNL     1      44.000 -11.326  11.349  1.00  0.00    -0.272 OA
HETATM    8  H   UNL     1      43.964  -9.437   8.742  1.00  0.00     0.190 HD
BRANCH   6   9
HETATM    9  C   UNL     1      44.269  -8.920  11.308  1.00  0.00     0.147 C 
BRANCH   9  10
HETATM   10  C   UNL     1      42.984  -8.199  11.547  1.00  0.00     0.001 A 
HETATM   11  C   UNL     1      42.397  -7.177  10.754  1.00  0.00     0.059 A 
HETATM   12  C   UNL     1      42.913  -6.543   9.514  1.00  0.00     0.073 C 
HETATM   13  N   UNL     1      41.226  -6.778  11.252  1.00  0.00    -0.177 NA
HETATM   14  N   UNL     1      41.028  -7.559  12.329  1.00  0.00    -0.273 N 
HETATM   15  C   UNL     1      42.081  -8.405  12.580  1.00  0.00     0.035 A 
HETATM   16  C   UNL     1      42.140  -9.351  13.725  1.00  0.00     0.070 C 
BRANCH  14  17
HETATM   17  C   UNL     1      39.770  -7.427  13.045  1.00  0.00     0.155 C 
BRANCH  17  18
HETATM   18  C   UNL     1      39.681  -6.146  13.895  1.00  0.00    -0.003 C 
HETATM   19  C   UNL     1      38.231  -5.735  14.161  1.00  0.00     0.011 C 
HETATM   20  C   UNL     1      40.414  -6.352  15.222  1.00  0.00     0.011 C 
ENDBRANCH  17  18
ENDBRANCH  14  17
ENDBRANCH   9  10
ENDBRANCH   6   9
ENDBRANCH   1   5
BRANCH   2  21
HETATM   21  C   UNL     1      43.525 -12.834   6.716  1.00  0.00     0.121 A 
HETATM   22  N   UNL     1      42.210 -13.119   6.481  1.00  0.00    -0.272 N 
HETATM   23  H   UNL     1      41.410 -12.531   6.697  1.00  0.00     0.189 HD
HETATM   24  N   UNL     1      42.000 -14.309   5.903  1.00  0.00    -0.174 NA
HETATM   25  C   UNL     1      43.224 -14.842   5.758  1.00  0.00     0.089 A 
HETATM   26  C   UNL     1      44.209 -13.938   6.250  1.00  0.00     0.071 A 
BRANCH  25  27
HETATM   27  C   UNL     1      43.422 -16.171   5.165  1.00  0.00    -0.005 A 
HETATM   28  C   UNL     1      43.234 -16.373   3.791  1.00  0.00     0.016 A 
HETATM   29  C   UNL     1      43.426 -17.634   3.219  1.00  0.00     0.037 A 
HETATM   30  C   UNL     1      43.810 -18.721   4.004  1.00  0.00     0.068 A 
HETATM   31  C   UNL     1      43.990 -18.536   5.373  1.00  0.00     0.037 A 
HETATM   32  C   UNL     1      43.797 -17.271   5.948  1.00  0.00     0.016 A 
BRANCH  30  33
HETATM   33  O   UNL     1      43.968 -19.895   3.321  1.00  0.00    -0.356 OA
HETATM   34  C   UNL     1      43.255 -20.028   2.098  1.00  0.00     0.210 C 
ENDBRANCH  30  33
ENDBRANCH  25  27
ENDBRANCH   2  21
TORSDOF 8
ENDMDL
MODEL 4
REMARK VINA RESULT:      -8.2      0.903      1.970
REMARK  8 active torsions:
REMARK  status: ('A' for Active; 'I' for Inactive)
REMARK    1  A    between atoms: N_4  and  C_5 
REMARK    2  A    between atoms: C_5  and  C_6 
REMARK    3  A    between atoms: C_11  and  C_12 
REMARK    4  A    between atoms: C_12  and  C_13 
REMARK       I    between atoms: C_13  and  N_14 
REMARK    5  A    between atoms: N_14  and  N_15 
REMARK       I    between atoms: N_15  and  C_16 
REMARK    6  A    between atoms: C_16  and  C_17 
REMARK    7  A    between atoms: C_21  and  C_22 
REMARK    8  A    between atoms: C_25  and  O_26 
ROOT
HETATM    1  N   UNL     1      43.403 -11.576   7.842  1.00  0.00    -0.262 N 
HETATM    2  C   UNL     1      42.871 -11.455   6.577  1.00  0.00     0.288 C 
HETATM    3  O   UNL     1      42.571 -10.360   6.103  1.00  0.00    -0.264 OA
HETATM    4  H   UNL     1      43.656 -12.461   8.274  1.00  0.00     0.190 HD
ENDROOT
BRANCH   1   5
HETATM    5  N   UNL     1      43.535 -10.433   8.633  1.00  0.00    -0.267 N 
HETATM    6  C   UNL     1      44.739 -10.201   9.263  1.00  0.00     0.240 C 
HETATM    7  O   UNL     1      45.712 -10.944   9.120  1.00  0.00    -0.272 OA
HETATM    8  H   UNL     1      42.719  -9.829   8.712  1.00  0.00     0.190 HD
BRANCH   6   9
HETATM    9  C   UNL     1      44.744  -8.992  10.177  1.00  0.00     0.147 C 
BRANCH   9  10
HETATM   10  C   UNL     1      43.464  -8.837  10.927  1.00  0.00     0.001 A 
HETATM   11  C   UNL     1      42.884  -9.739  11.859  1.00  0.00     0.059 A 
HETATM   12  C   UNL     1      43.376 -11.068  12.302  1.00  0.00     0.073 C 
HETATM   13  N   UNL     1      41.745  -9.263  12.363  1.00  0.00    -0.177 NA
HETATM   14  N   UNL     1      41.604  -8.048  11.803  1.00  0.00    -0.273 N 
HETATM   15  C   UNL     1      42.592  -7.759  10.893  1.00  0.00     0.035 A 
HETATM   16  C   UNL     1      42.661  -6.500  10.105  1.00  0.00     0.070 C 
BRANCH  14  17
HETATM   17  C   UNL     1      40.485  -7.225  12.232  1.00  0.00     0.155 C 
BRANCH  17  18
HETATM   18  C   UNL     1      39.114  -7.874  11.970  1.00  0.00    -0.003 C 
HETATM   19  C   UNL     1      38.000  -7.203  12.776  1.00  0.00     0.011 C 
HETATM   20  C   UNL     1      38.784  -7.808  10.477  1.00  0.00     0.011 C 
ENDBRANCH  17  18
ENDBRANCH  14  17
ENDBRANCH   9  10
ENDBRANCH   6   9
ENDBRANCH   1   5
BRANCH   2  21
HETATM   21  C   UNL     1      42.686 -12.686   5.861  1.00  0.00     0.121 A 
HETATM   22  N   UNL     1      41.532 -12.958   5.184  1.00  0.00    -0.272 N 
HETATM   23  H   UNL     1      40.716 -12.359   5.105  1.00  0.00     0.189 HD
HETATM   24  N   UNL     1      41.519 -14.153   4.577  1.00  0.00    -0.174 NA
HETATM   25  C   UNL     1      42.709 -14.701   4.871  1.00  0.00     0.089 A 
HETATM   26  C   UNL     1      43.474 -13.803   5.670  1.00  0.00     0.071 A 
BRANCH  25  27
HETATM   27  C   UNL     1      43.082 -16.039   4.393  1.00  0.00    -0.005 A 
HETATM   28  C   UNL     1      42.636 -16.498   3.146  1.00  0.00     0.016 A 
HETATM   29  C   UNL     1      42.991 -17.768   2.681  1.00  0.00     0.037 A 
HETATM   30  C   UNL     1      43.800 -18.607   3.449  1.00  0.00     0.068 A 
HETATM   31  C   UNL     1      44.241 -18.166   4.695  1.00  0.00     0.037 A 
HETATM   32  C   UNL     1      43.885 -16.892   5.162  1.00  0.00     0.016 A 
BRANCH  30  33
HETATM   33  O   UNL     1      44.076 -19.818   2.878  1.00  0.00    -0.356 OA
HETATM   34  C   UNL     1      43.200 -20.258   1.849  1.00  0.00     0.210 C 
ENDBRANCH  30  33
ENDBRANCH  25  27
ENDBRANCH   2  21
TORSDOF 8
ENDMDL
MODEL 5
REMARK VINA RESULT:      -8.1      1.333      2.283
REMARK  8 active torsions:
REMARK  status: ('A' for Active; 'I' for Inactive)
REMARK    1  A    between atoms: N_4  and  C_5 
REMARK    2  A    between atoms: C_5  and  C_6 
REMARK    3  A    between atoms: C_11  and  C_12 
REMARK    4  A    between atoms: C_12  and  C_13 
REMARK       I    between atoms: C_13  and  N_14 
REMARK    5  A    between atoms: N_14  and  N_15 
REMARK       I    between atoms: N_15  and  C_16 
REMARK    6  A    between atoms: C_16  and  C_17 
REMARK    7  A    between atoms: C_21  and  C_22 
REMARK    8  A    between atoms: C_25  and  O_26 
ROOT
HETATM    1  N   UNL     1      42.402 -11.131   7.254  1.00  0.00    -0.262 N 
HETATM    2  C   UNL     1      43.427 -12.044   7.130  1.00  0.00     0.288 C 
HETATM    3  O   UNL     1      44.439 -11.980   7.827  1.00  0.00    -0.264 OA
HETATM    4  H   UNL     1      41.556 -11.141   6.691  1.00  0.00     0.190 HD
ENDROOT
BRANCH   1   5
HETATM    5  N   UNL     1      42.550 -10.064   8.142  1.00  0.00    -0.267 N 
HETATM    6  C   UNL     1      41.439  -9.316   8.467  1.00  0.00     0.240 C 
HETATM    7  O   UNL     1      40.316  -9.581   8.032  1.00  0.00    -0.272 OA
HETATM    8  H   UNL     1      43.487  -9.886   8.500  1.00  0.00     0.190 HD
BRANCH   6   9
HETATM    9  C   UNL     1      41.726  -8.123   9.356  1.00  0.00     0.147 C 
BRANCH   9  10
HETATM   10  C   UNL     1      41.890  -8.504  10.789  1.00  0.00     0.001 A 
HETATM   11  C   UNL     1      43.069  -8.955  11.442  1.00  0.00     0.059 A 
HETATM   12  C   UNL     1      44.419  -9.194  10.873  1.00  0.00     0.073 C 
HETATM   13  N   UNL     1      42.858  -9.177  12.740  1.00  0.00    -0.177 NA
HETATM   14  N   UNL     1      41.574  -8.834  12.943  1.00  0.00    -0.273 N 
HETATM   15  C   UNL     1      40.929  -8.462  11.789  1.00  0.00     0.035 A 
HETATM   16  C   UNL     1      39.497  -8.067  11.720  1.00  0.00     0.070 C 
BRANCH  14  17
HETATM   17  C   UNL     1      41.063  -8.877  14.303  1.00  0.00     0.155 C 
BRANCH  17  18
HETATM   18  C   UNL     1      41.774  -7.898  15.255  1.00  0.00    -0.003 C 
HETATM   19  C   UNL     1      41.891  -6.496  14.652  1.00  0.00     0.011 C 
HETATM   20  C   UNL     1      41.022  -7.829  16.586  1.00  0.00     0.011 C 
ENDBRANCH  17  18
ENDBRANCH  14  17
ENDBRANCH   9  10
ENDBRANCH   6   9
ENDBRANCH   1   5
BRANCH   2  21
HETATM   21  C   UNL     1      43.236 -13.059   6.132  1.00  0.00     0.121 A 
HETATM   22  N   UNL     1      42.446 -12.852   5.037  1.00  0.00    -0.272 N 
HETATM   23  H   UNL     1      41.934 -12.006   4.806  1.00  0.00     0.189 HD
HETATM   24  N   UNL     1      42.369 -13.902   4.209  1.00  0.00    -0.174 NA
HETATM   25  C   UNL     1      43.130 -14.849   4.781  1.00  0.00     0.089 A 
HETATM   26  C   UNL     1      43.698 -14.352   5.989  1.00  0.00     0.071 A 
BRANCH  25  27
HETATM   27  C   UNL     1      43.293 -16.178   4.177  1.00  0.00    -0.005 A 
HETATM   28  C   UNL     1      44.024 -17.175   4.837  1.00  0.00     0.016 A 
HETATM   29  C   UNL     1      44.179 -18.444   4.271  1.00  0.00     0.037 A 
HETATM   30  C   UNL     1      43.609 -18.746   3.034  1.00  0.00     0.068 A 
HETATM   31  C   UNL     1      42.888 -17.760   2.363  1.00  0.00     0.037 A 
HETATM   32  C   UNL     1      42.732 -16.487   2.930  1.00  0.00     0.016 A 
BRANCH  30  33
HETATM   33  O   UNL     1      43.831 -20.021   2.596  1.00  0.00    -0.356 OA
HETATM   34  C   UNL     1      43.879 -21.041   3.585  1.00  0.00     0.210 C 
ENDBRANCH  30  33
ENDBRANCH  25  27
ENDBRANCH   2  21
TORSDOF 8
ENDMDL
MODEL 6
REMARK VINA RESULT:      -8.0      1.876      2.654
REMARK  8 active torsions:
REMARK  status: ('A' for Active; 'I' for Inactive)
REMARK    1  A    between atoms: N_4  and  C_5 
REMARK    2  A    between atoms: C_5  and  C_6 
REMARK    3  A    between atoms: C_11  and  C_12 
REMARK    4  A    between atoms: C_12  and  C_13 
REMARK       I    between atoms: C_13  and  N_14 
REMARK    5  A    between atoms: N_14  and  N_15 
REMARK       I    between atoms: N_15  and  C_16 
REMARK    6  A    between atoms: C_16  and  C_17 
REMARK    7  A    between atoms: C_21  and  C_22 
REMARK    8  A    between atoms: C_25  and  O_26 
ROOT
HETATM    1  N   UNL     1      41.086 -11.433   6.764  1.00  0.00    -0.262 N 
HETATM    2  C   UNL     1      42.140 -11.504   5.880  1.00  0.00     0.288 C 
HETATM    3  O   UNL     1      42.977 -10.606   5.797  1.00  0.00    -0.264 OA
HETATM    4  H   UNL     1      40.368 -12.146   6.856  1.00  0.00     0.190 HD
ENDROOT
BRANCH   1   5
HETATM    5  N   UNL     1      40.923 -10.278   7.532  1.00  0.00    -0.267 N 
HETATM    6  C   UNL     1      39.681 -10.009   8.065  1.00  0.00     0.240 C 
HETATM    7  O   UNL     1      38.722 -10.771   7.921  1.00  0.00    -0.272 OA
HETATM    8  H   UNL     1      41.741  -9.682   7.650  1.00  0.00     0.190 HD
BRANCH   6   9
HETATM    9  C   UNL     1      39.587  -8.684   8.794  1.00  0.00     0.147 C 
BRANCH   9  10
HETATM   10  C   UNL     1      40.731  -8.460   9.724  1.00  0.00     0.001 A 
HETATM   11  C   UNL     1      41.828  -7.571   9.560  1.00  0.00     0.059 A 
HETATM   12  C   UNL     1      42.135  -6.667   8.422  1.00  0.00     0.073 C 
HETATM   13  N   UNL     1      42.653  -7.607  10.607  1.00  0.00    -0.177 NA
HETATM   14  N   UNL     1      42.082  -8.473  11.463  1.00  0.00    -0.273 N 
HETATM   15  C   UNL     1      40.942  -9.052  10.961  1.00  0.00     0.035 A 
HETATM   16  C   UNL     1      40.132 -10.069  11.682  1.00  0.00     0.070 C 
BRANCH  14  17
HETATM   17  C   UNL     1      42.707  -8.660  12.762  1.00  0.00     0.155 C 
BRANCH  17  18
HETATM   18  C   UNL     1      42.148  -7.726  13.850  1.00  0.00    -0.003 C 
HETATM   19  C   UNL     1      41.466  -8.503  14.977  1.00  0.00     0.011 C 
HETATM   20  C   UNL     1      43.274  -6.863  14.423  1.00  0.00     0.011 C 
ENDBRANCH  17  18
ENDBRANCH  14  17
ENDBRANCH   9  10
ENDBRANCH   6   9
ENDBRANCH   1   5
BRANCH   2  21
HETATM   21  C   UNL     1      42.187 -12.685   5.064  1.00  0.00     0.121 A 
HETATM   22  N   UNL     1      41.494 -12.776   3.890  1.00  0.00    -0.272 N 
HETATM   23  H   UNL     1      40.903 -12.063   3.474  1.00  0.00     0.189 HD
HETATM   24  N   UNL     1      41.640 -13.947   3.256  1.00  0.00    -0.174 NA
HETATM   25  C   UNL     1      42.454 -14.667   4.044  1.00  0.00     0.089 A 
HETATM   26  C   UNL     1      42.825 -13.902   5.187  1.00  0.00     0.071 A 
BRANCH  25  27
HETATM   27  C   UNL     1      42.850 -16.038   3.697  1.00  0.00    -0.005 A 
HETATM   28  C   UNL     1      42.509 -16.584   2.452  1.00  0.00     0.016 A 
HETATM   29  C   UNL     1      42.888 -17.886   2.112  1.00  0.00     0.037 A 
HETATM   30  C   UNL     1      43.616 -18.672   3.005  1.00  0.00     0.068 A 
HETATM   31  C   UNL     1      43.953 -18.145   4.250  1.00  0.00     0.037 A 
HETATM   32  C   UNL     1      43.573 -16.838   4.592  1.00  0.00     0.016 A 
BRANCH  30  33
HETATM   33  O   UNL     1      43.926 -19.922   2.549  1.00  0.00    -0.356 OA
HETATM   34  C   UNL     1      43.916 -20.976   3.504  1.00  0.00     0.210 C 
ENDBRANCH  30  33
ENDBRANCH  25  27
ENDBRANCH   2  21
TORSDOF 8
ENDMDL
MODEL 7
REMARK VINA RESULT:      -8.0      6.676     11.143
REMARK  8 active torsions:
REMARK  status: ('A' for Active; 'I' for Inactive)
REMARK    1  A    between atoms: N_4  and  C_5 
REMARK    2  A    between atoms: C_5  and  C_6 
REMARK    3  A    between atoms: C_11  and  C_12 
REMARK    4  A    between atoms: C_12  and  C_13 
REMARK       I    between atoms: C_13  and  N_14 
REMARK    5  A    between atoms: N_14  and  N_15 
REMARK       I    between atoms: N_15  and  C_16 
REMARK    6  A    between atoms: C_16  and  C_17 
REMARK    7  A    between atoms: C_21  and  C_22 
REMARK    8  A    between atoms: C_25  and  O_26 
ROOT
HETATM    1  N   UNL     1      39.754 -13.303   1.927  1.00  0.00    -0.262 N 
HETATM    2  C   UNL     1      39.989 -13.665   0.618  1.00  0.00     0.288 C 
HETATM    3  O   UNL     1      40.093 -14.843   0.281  1.00  0.00    -0.264 OA
HETATM    4  H   UNL     1      39.672 -12.343   2.249  1.00  0.00     0.190 HD
ENDROOT
BRANCH   1   5
HETATM    5  N   UNL     1      39.707 -14.298   2.906  1.00  0.00    -0.267 N 
HETATM    6  C   UNL     1      40.662 -14.292   3.900  1.00  0.00     0.240 C 
HETATM    7  O   UNL     1      41.529 -13.419   3.976  1.00  0.00    -0.272 OA
HETATM    8  H   UNL     1      38.964 -14.991   2.826  1.00  0.00     0.190 HD
BRANCH   6   9
HETATM    9  C   UNL     1      40.582 -15.470   4.850  1.00  0.00     0.147 C 
BRANCH   9  10
HETATM   10  C   UNL     1      41.810 -16.317   4.815  1.00  0.00     0.001 A 
HETATM   11  C   UNL     1      42.687 -16.626   5.889  1.00  0.00     0.059 A 
HETATM   12  C   UNL     1      42.633 -16.169   7.301  1.00  0.00     0.073 C 
HETATM   13  N   UNL     1      43.671 -17.440   5.503  1.00  0.00    -0.177 NA
HETATM   14  N   UNL     1      43.416 -17.695   4.208  1.00  0.00    -0.273 N 
HETATM   15  C   UNL     1      42.328 -17.006   3.729  1.00  0.00     0.035 A 
HETATM   16  C   UNL     1      41.845 -17.077   2.324  1.00  0.00     0.070 C 
BRANCH  14  17
HETATM   17  C   UNL     1      44.275 -18.643   3.518  1.00  0.00     0.155 C 
BRANCH  17  18
HETATM   18  C   UNL     1      43.595 -19.996   3.242  1.00  0.00    -0.003 C 
HETATM   19  C   UNL     1      43.893 -20.511   1.832  1.00  0.00     0.011 C 
HETATM   20  C   UNL     1      44.050 -21.027   4.277  1.00  0.00     0.011 C 
ENDBRANCH  17  18
ENDBRANCH  14  17
ENDBRANCH   9  10
ENDBRANCH   6   9
ENDBRANCH   1   5
BRANCH   2  21
HETATM   21  C   UNL     1      40.112 -12.578  -0.313  1.00  0.00     0.121 A 
HETATM   22  N   UNL     1      39.179 -12.353  -1.284  1.00  0.00    -0.272 N 
HETATM   23  H   UNL     1      38.334 -12.890  -1.454  1.00  0.00     0.189 HD
HETATM   24  N   UNL     1      39.448 -11.304  -2.073  1.00  0.00    -0.174 NA
HETATM   25  C   UNL     1      40.613 -10.818  -1.614  1.00  0.00     0.089 A 
HETATM   26  C   UNL     1      41.057 -11.589  -0.501  1.00  0.00     0.071 A 
BRANCH  25  27
HETATM   27  C   UNL     1      41.261  -9.655  -2.233  1.00  0.00    -0.005 A 
HETATM   28  C   UNL     1      40.939  -9.274  -3.543  1.00  0.00     0.016 A 
HETATM   29  C   UNL     1      41.548  -8.165  -4.137  1.00  0.00     0.037 A 
HETATM   30  C   UNL     1      42.490  -7.409  -3.438  1.00  0.00     0.068 A 
HETATM   31  C   UNL     1      42.826  -7.783  -2.138  1.00  0.00     0.037 A 
HETATM   32  C   UNL     1      42.216  -8.897  -1.541  1.00  0.00     0.016 A 
BRANCH  30  33
HETATM   33  O   UNL     1      43.005  -6.350  -4.130  1.00  0.00    -0.356 OA
HETATM   34  C   UNL     1      42.098  -5.607  -4.935  1.00  0.00     0.210 C 
ENDBRANCH  30  33
ENDBRANCH  25  27
ENDBRANCH   2  21
TORSDOF 8
ENDMDL
MODEL 8
REMARK VINA RESULT:      -7.9      3.068     11.602
REMARK  8 active torsions:
REMARK  status: ('A' for Active; 'I' for Inactive)
REMARK    1  A    between atoms: N_4  and  C_5 
REMARK    2  A    between atoms: C_5  and  C_6 
REMARK    3  A    between atoms: C_11  and  C_12 
REMARK    4  A    between atoms: C_12  and  C_13 
REMARK       I    between atoms: C_13  and  N_14 
REMARK    5  A    between atoms: N_14  and  N_15 
REMARK       I    between atoms: N_15  and  C_16 
REMARK    6  A    between atoms: C_16  and  C_17 
REMARK    7  A    between atoms: C_21  and  C_22 
REMARK    8  A    between atoms: C_25  and  O_26 
ROOT
HETATM    1  N   UNL     1      43.292 -10.797   9.414  1.00  0.00    -0.262 N 
HETATM    2  C   UNL     1      44.033 -10.411  10.510  1.00  0.00     0.288 C 
HETATM    3  O   UNL     1      45.252 -10.568  10.555  1.00  0.00    -0.264 OA
HETATM    4  H   UNL     1      42.284 -10.695   9.340  1.00  0.00     0.190 HD
ENDROOT
BRANCH   1   5
HETATM    5  N   UNL     1      43.933 -11.452   8.360  1.00  0.00    -0.267 N 
HETATM    6  C   UNL     1      43.701 -11.016   7.073  1.00  0.00     0.240 C 
HETATM    7  O   UNL     1      42.981 -10.047   6.825  1.00  0.00    -0.272 OA
HETATM    8  H   UNL     1      44.539 -12.234   8.602  1.00  0.00     0.190 HD
BRANCH   6   9
HETATM    9  C   UNL     1      44.363 -11.856   6.000  1.00  0.00     0.147 C 
BRANCH   9  10
HETATM   10  C   UNL     1      43.409 -12.791   5.336  1.00  0.00     0.001 A 
HETATM   11  C   UNL     1      42.884 -14.009   5.845  1.00  0.00     0.059 A 
HETATM   12  C   UNL     1      43.167 -14.679   7.139  1.00  0.00     0.073 C 
HETATM   13  N   UNL     1      42.031 -14.574   4.990  1.00  0.00    -0.177 NA
HETATM   14  N   UNL     1      41.963 -13.716   3.956  1.00  0.00    -0.273 N 
HETATM   15  C   UNL     1      42.810 -12.643   4.093  1.00  0.00     0.035 A 
HETATM   16  C   UNL     1      42.961 -11.562   3.083  1.00  0.00     0.070 C 
BRANCH  14  17
HETATM   17  C   UNL     1      41.027 -14.012   2.885  1.00  0.00     0.155 C 
BRANCH  17  18
HETATM   18  C   UNL     1      41.144 -15.450   2.349  1.00  0.00    -0.003 C 
HETATM   19  C   UNL     1      39.971 -15.820   1.439  1.00  0.00     0.011 C 
HETATM   20  C   UNL     1      42.462 -15.616   1.590  1.00  0.00     0.011 C 
ENDBRANCH  17  18
ENDBRANCH  14  17
ENDBRANCH   9  10
ENDBRANCH   6   9
ENDBRANCH   1   5
BRANCH   2  21
HETATM   21  C   UNL     1      43.286  -9.825  11.588  1.00  0.00     0.121 A 
HETATM   22  N   UNL     1      42.210 -10.456  12.144  1.00  0.00    -0.272 N 
HETATM   23  H   UNL     1      41.832 -11.362  11.883  1.00  0.00     0.189 HD
HETATM   24  N   UNL     1      41.622  -9.771  13.133  1.00  0.00    -0.174 NA
HETATM   25  C   UNL     1      42.328  -8.633  13.232  1.00  0.00     0.089 A 
HETATM   26  C   UNL     1      43.389  -8.636  12.281  1.00  0.00     0.071 A 
BRANCH  25  27
HETATM   27  C   UNL     1      41.984  -7.593  14.210  1.00  0.00    -0.005 A 
HETATM   28  C   UNL     1      41.823  -6.261  13.804  1.00  0.00     0.016 A 
HETATM   29  C   UNL     1      41.489  -5.266  14.729  1.00  0.00     0.037 A 
HETATM   30  C   UNL     1      41.308  -5.578  16.076  1.00  0.00     0.068 A 
HETATM   31  C   UNL     1      41.475  -6.897  16.494  1.00  0.00     0.037 A 
HETATM   32  C   UNL     1      41.810  -7.896  15.567  1.00  0.00     0.016 A 
BRANCH  30  33
HETATM   33  O   UNL     1      40.980  -4.516  16.872  1.00  0.00    -0.356 OA
HETATM   34  C   UNL     1      41.023  -4.730  18.277  1.00  0.00     0.210 C 
ENDBRANCH  30  33
ENDBRANCH  25  27
ENDBRANCH   2  21
TORSDOF 8
ENDMDL
MODEL 9
REMARK VINA RESULT:      -7.6      2.164      3.161
REMARK  8 active torsions:
REMARK  status: ('A' for Active; 'I' for Inactive)
REMARK    1  A    between atoms: N_4  and  C_5 
REMARK    2  A    between atoms: C_5  and  C_6 
REMARK    3  A    between atoms: C_11  and  C_12 
REMARK    4  A    between atoms: C_12  and  C_13 
REMARK       I    between atoms: C_13  and  N_14 
REMARK    5  A    between atoms: N_14  and  N_15 
REMARK       I    between atoms: N_15  and  C_16 
REMARK    6  A    between atoms: C_16  and  C_17 
REMARK    7  A    between atoms: C_21  and  C_22 
REMARK    8  A    between atoms: C_25  and  O_26 
ROOT
HETATM    1  N   UNL     1      40.843 -11.238   6.636  1.00  0.00    -0.262 N 
HETATM    2  C   UNL     1      40.146 -11.914   5.658  1.00  0.00     0.288 C 
HETATM    3  O   UNL     1      39.250 -11.374   5.011  1.00  0.00    -0.264 OA
HETATM    4  H   UNL     1      41.582 -11.650   7.199  1.00  0.00     0.190 HD
ENDROOT
BRANCH   1   5
HETATM    5  N   UNL     1      40.472  -9.929   6.949  1.00  0.00    -0.267 N 
HETATM    6  C   UNL     1      41.445  -9.051   7.377  1.00  0.00     0.240 C 
HETATM    7  O   UNL     1      42.634  -9.371   7.454  1.00  0.00    -0.272 OA
HETATM    8  H   UNL     1      39.486  -9.692   6.853  1.00  0.00     0.190 HD
BRANCH   6   9
HETATM    9  C   UNL     1      40.923  -7.690   7.788  1.00  0.00     0.147 C 
BRANCH   9  10
HETATM   10  C   UNL     1      40.979  -7.477   9.263  1.00  0.00     0.001 A 
HETATM   11  C   UNL     1      40.005  -7.836  10.234  1.00  0.00     0.059 A 
HETATM   12  C   UNL     1      38.682  -8.478  10.036  1.00  0.00     0.073 C 
HETATM   13  N   UNL     1      40.400  -7.520  11.468  1.00  0.00    -0.177 NA
HETATM   14  N   UNL     1      41.632  -7.004  11.312  1.00  0.00    -0.273 N 
HETATM   15  C   UNL     1      42.014  -6.913   9.996  1.00  0.00     0.035 A 
HETATM   16  C   UNL     1      43.311  -6.350   9.537  1.00  0.00     0.070 C 
BRANCH  14  17
HETATM   17  C   UNL     1      42.378  -6.646  12.508  1.00  0.00     0.155 C 
BRANCH  17  18
HETATM   18  C   UNL     1      43.098  -7.840  13.160  1.00  0.00    -0.003 C 
HETATM   19  C   UNL     1      42.238  -8.511  14.233  1.00  0.00     0.011 C 
HETATM   20  C   UNL     1      43.483  -8.862  12.089  1.00  0.00     0.011 C 
ENDBRANCH  17  18
ENDBRANCH  14  17
ENDBRANCH   9  10
ENDBRANCH   6   9
ENDBRANCH   1   5
BRANCH   2  21
HETATM   21  C   UNL     1      40.529 -13.284   5.457  1.00  0.00     0.121 A 
HETATM   22  N   UNL     1      39.947 -14.304   6.153  1.00  0.00    -0.272 N 
HETATM   23  H   UNL     1      39.213 -14.225   6.851  1.00  0.00     0.189 HD
HETATM   24  N   UNL     1      40.424 -15.518   5.851  1.00  0.00    -0.174 NA
HETATM   25  C   UNL     1      41.371 -15.296   4.925  1.00  0.00     0.089 A 
HETATM   26  C   UNL     1      41.459 -13.902   4.645  1.00  0.00     0.071 A 
BRANCH  25  27
HETATM   27  C   UNL     1      42.152 -16.394   4.340  1.00  0.00    -0.005 A 
HETATM   28  C   UNL     1      41.949 -16.780   3.007  1.00  0.00     0.016 A 
HETATM   29  C   UNL     1      42.693 -17.820   2.442  1.00  0.00     0.037 A 
HETATM   30  C   UNL     1      43.655 -18.498   3.192  1.00  0.00     0.068 A 
HETATM   31  C   UNL     1      43.858 -18.130   4.521  1.00  0.00     0.037 A 
HETATM   32  C   UNL     1      43.112 -17.087   5.089  1.00  0.00     0.016 A 
BRANCH  30  33
HETATM   33  O   UNL     1      44.313 -19.488   2.520  1.00  0.00    -0.356 OA
HETATM   34  C   UNL     1      43.514 -20.416   1.798  1.00  0.00     0.210 C 
ENDBRANCH  30  33
ENDBRANCH  25  27
ENDBRANCH   2  21
TORSDOF 8
ENDMDL
MODEL 10
REMARK VINA RESULT:      -7.5      2.727     11.021
REMARK  8 active torsions:
REMARK  status: ('A' for Active; 'I' for Inactive)
REMARK    1  A    between atoms: N_4  and  C_5 
REMARK    2  A    between atoms: C_5  and  C_6 
REMARK    3  A    between atoms: C_11  and  C_12 
REMARK    4  A    between atoms: C_12  and  C_13 
REMARK       I    between atoms: C_13  and  N_14 
REMARK    5  A    between atoms: N_14  and  N_15 
REMARK       I    between atoms: N_15  and  C_16 
REMARK    6  A    between atoms: C_16  and  C_17 
REMARK    7  A    between atoms: C_21  and  C_22 
REMARK    8  A    between atoms: C_25  and  O_26 
ROOT
HETATM    1  N   UNL     1      41.380 -10.834   7.277  1.00  0.00    -0.262 N 
HETATM    2  C   UNL     1      42.509 -10.061   7.442  1.00  0.00     0.288 C 
HETATM    3  O   UNL     1      43.368  -9.974   6.565  1.00  0.00    -0.264 OA
HETATM    4  H   UNL     1      40.653 -10.941   7.979  1.00  0.00     0.190 HD
ENDROOT
BRANCH   1   5
HETATM    5  N   UNL     1      41.244 -11.594   6.114  1.00  0.00    -0.267 N 
HETATM    6  C   UNL     1      40.005 -12.114   5.806  1.00  0.00     0.240 C 
HETATM    7  O   UNL     1      39.009 -11.898   6.499  1.00  0.00    -0.272 OA
HETATM    8  H   UNL     1      42.082 -11.734   5.553  1.00  0.00     0.190 HD
BRANCH   6   9
HETATM    9  C   UNL     1      39.988 -13.006   4.581  1.00  0.00     0.147 C 
BRANCH   9  10
HETATM   10  C   UNL     1      40.938 -14.150   4.694  1.00  0.00     0.001 A 
HETATM   11  C   UNL     1      40.887 -15.241   5.603  1.00  0.00     0.059 A 
HETATM   12  C   UNL     1      39.907 -15.508   6.686  1.00  0.00     0.073 C 
HETATM   13  N   UNL     1      41.887 -16.100   5.400  1.00  0.00    -0.177 NA
HETATM   14  N   UNL     1      42.557 -15.603   4.346  1.00  0.00    -0.273 N 
HETATM   15  C   UNL     1      42.053 -14.402   3.907  1.00  0.00     0.035 A 
HETATM   16  C   UNL     1      42.622 -13.617   2.779  1.00  0.00     0.070 C 
BRANCH  14  17
HETATM   17  C   UNL     1      43.666 -16.378   3.815  1.00  0.00     0.155 C 
BRANCH  17  18
HETATM   18  C   UNL     1      43.369 -17.886   3.722  1.00  0.00    -0.003 C 
HETATM   19  C   UNL     1      43.000 -18.311   2.300  1.00  0.00     0.011 C 
HETATM   20  C   UNL     1      44.582 -18.684   4.204  1.00  0.00     0.011 C 
ENDBRANCH  17  18
ENDBRANCH  14  17
ENDBRANCH   9  10
ENDBRANCH   6   9
ENDBRANCH   1   5
BRANCH   2  21
HETATM   21  C   UNL     1      42.616  -9.380   8.702  1.00  0.00     0.121 A 
HETATM   22  N   UNL     1      43.372  -8.252   8.849  1.00  0.00    -0.272 N 
HETATM   23  H   UNL     1      43.913  -7.783   8.129  1.00  0.00     0.189 HD
HETATM   24  N   UNL     1      43.369  -7.746  10.089  1.00  0.00    -0.174 NA
HETATM   25  C   UNL     1      42.589  -8.578  10.799  1.00  0.00     0.089 A 
HETATM   26  C   UNL     1      42.091  -9.613   9.957  1.00  0.00     0.071 A 
BRANCH  25  27
HETATM   27  C   UNL     1      42.343  -8.370  12.232  1.00  0.00    -0.005 A 
HETATM   28  C   UNL     1      41.241  -8.970  12.859  1.00  0.00     0.016 A 
HETATM   29  C   UNL     1      41.004  -8.782  14.223  1.00  0.00     0.037 A 
HETATM   30  C   UNL     1      41.858  -7.992  14.993  1.00  0.00     0.068 A 
HETATM   31  C   UNL     1      42.950  -7.382  14.380  1.00  0.00     0.037 A 
HETATM   32  C   UNL     1      43.190  -7.570  13.010  1.00  0.00     0.016 A 
BRANCH  30  33
HETATM   33  O   UNL     1      41.516  -7.894  16.313  1.00  0.00    -0.356 OA
HETATM   34  C   UNL     1      42.001  -6.759  17.019  1.00  0.00     0.210 C 
ENDBRANCH  30  33
ENDBRANCH  25  27
ENDBRANCH   2  21
TORSDOF 8
ENDMDL
