MODEL 1
REMARK VINA RESULT:      -9.1      0.000      0.000
REMARK  11 active torsions:
REMARK  status: ('A' for Active; 'I' for Inactive)
REMARK    1  A    between atoms: N_13  and  C_14 
REMARK    2  A    between atoms: C_14  and  C_15 
REMARK    3  A    between atoms: N_20  and  C_21 
REMARK    4  A    between atoms: C_21  and  C_22 
REMARK    5  A    between atoms: C_22  and  O_23 
REMARK    6  A    between atoms: C_22  and  C_24 
REMARK    7  A    between atoms: C_24  and  N_25 
REMARK    8  A    between atoms: N_25  and  C_27 
REMARK    9  A    between atoms: N_25  and  C_34 
REMARK   10  A    between atoms: C_27  and  C_28 
REMARK   11  A    between atoms: C_34  and  C_35 
ROOT
HETATM    1  C   UNL     1      41.460  -7.580   7.607  1.00  0.00     0.163 C 
HETATM    2  N   UNL     1      42.528  -8.566   7.613  1.00  0.00    -0.285 N 
HETATM    3  C   UNL     1      43.756  -8.276   8.215  1.00  0.00     0.332 A 
HETATM    4  O   UNL     1      43.978  -7.185   8.744  1.00  0.00    -0.246 OA
HETATM    5  N   UNL     1      44.745  -9.282   8.169  1.00  0.00    -0.269 N 
HETATM    6  C   UNL     1      46.031  -8.991   8.773  1.00  0.00     0.164 C 
HETATM    7  C   UNL     1      44.638 -10.487   7.476  1.00  0.00     0.282 A 
HETATM    8  O   UNL     1      45.559 -11.282   7.296  1.00  0.00    -0.265 OA
HETATM    9  C   UNL     1      43.346 -10.700   6.926  1.00  0.00     0.166 A 
HETATM   10  C   UNL     1      42.353  -9.776   6.986  1.00  0.00     0.186 A 
HETATM   11  N   UNL     1      41.247 -10.184   6.312  1.00  0.00    -0.044 NA
HETATM   12  C   UNL     1      41.542 -11.377   5.843  1.00  0.00     0.705 A 
HETATM   13  N   UNL     1      40.773 -12.160   5.058  1.00  0.00    -0.218 N 
HETATM   14  N   UNL     1      42.824 -11.740   6.202  1.00  0.00    -0.170 N 
HETATM   15  H   UNL     1      40.825 -13.171   5.139  1.00  0.00     0.178 HD
ENDROOT
BRANCH  14  16
HETATM   16  C   UNL     1      43.561 -12.922   5.783  1.00  0.00     0.181 C 
BRANCH  16  17
HETATM   17  C   UNL     1      43.222 -14.121   6.676  1.00  0.00     0.163 C 
BRANCH  17  18
HETATM   18  O   UNL     1      43.296 -13.766   8.060  1.00  0.00    -0.392 OA
HETATM   19  H   UNL     1      43.890 -14.405   8.512  1.00  0.00     0.210 HD
ENDBRANCH  17  18
BRANCH  17  20
HETATM   20  C   UNL     1      44.120 -15.347   6.396  1.00  0.00     0.268 C 
BRANCH  20  21
HETATM   21  N   UNL     1      43.549 -16.381   5.418  1.00  0.00    -0.061 N 
HETATM   22  H   UNL     1      43.979 -16.250   4.500  1.00  0.00     0.280 HD
BRANCH  21  23
HETATM   23  C   UNL     1      43.847 -17.814   5.841  1.00  0.00     0.273 C 
BRANCH  23  24
HETATM   24  C   UNL     1      43.860 -18.823   4.723  1.00  0.00    -0.033 A 
HETATM   25  C   UNL     1      43.825 -18.409   3.382  1.00  0.00     0.009 A 
HETATM   26  C   UNL     1      43.820 -19.353   2.353  1.00  0.00     0.001 A 
HETATM   27  C   UNL     1      43.856 -20.713   2.653  1.00  0.00     0.000 A 
HETATM   28  C   UNL     1      43.901 -21.135   3.979  1.00  0.00     0.001 A 
HETATM   29  C   UNL     1      43.902 -20.196   5.011  1.00  0.00     0.009 A 
ENDBRANCH  23  24
ENDBRANCH  21  23
BRANCH  21  30
HETATM   30  C   UNL     1      42.057 -16.141   5.209  1.00  0.00     0.273 C 
BRANCH  30  31
HETATM   31  C   UNL     1      41.707 -15.791   3.785  1.00  0.00    -0.033 A 
HETATM   32  C   UNL     1      40.447 -16.124   3.262  1.00  0.00     0.009 A 
HETATM   33  C   UNL     1      40.127 -15.813   1.939  1.00  0.00     0.001 A 
HETATM   34  C   UNL     1      41.058 -15.167   1.130  1.00  0.00     0.000 A 
HETATM   35  C   UNL     1      42.308 -14.823   1.641  1.00  0.00     0.001 A 
HETATM   36  C   UNL     1      42.632 -15.131   2.963  1.00  0.00     0.009 A 
ENDBRANCH  30  31
ENDBRANCH  21  30
ENDBRANCH  20  21
ENDBRANCH  17  20
ENDBRANCH  16  17
ENDBRANCH  14  16
BRANCH  13  37
HETATM   37  C   UNL     1      39.369 -11.762   4.907  1.00  0.00     0.203 C 
BRANCH  37  38
HETATM   38  C   UNL     1      38.962 -11.555   3.484  1.00  0.00     0.070 A 
HETATM   39  O   UNL     1      38.296 -10.395   3.189  1.00  0.00    -0.325 OA
HETATM   40  C   UNL     1      38.051 -10.412   1.853  1.00  0.00     0.142 A 
HETATM   41  C   UNL     1      38.546 -11.561   1.285  1.00  0.00     0.027 A 
HETATM   42  C   UNL     1      39.136 -12.302   2.338  1.00  0.00     0.036 A 
ENDBRANCH  37  38
ENDBRANCH  13  37
TORSDOF 11
ENDMDL
MODEL 2
REMARK VINA RESULT:      -9.1      0.939      3.364
REMARK  11 active torsions:
REMARK  status: ('A' for Active; 'I' for Inactive)
REMARK    1  A    between atoms: N_13  and  C_14 
REMARK    2  A    between atoms: C_14  and  C_15 
REMARK    3  A    between atoms: N_20  and  C_21 
REMARK    4  A    between atoms: C_21  and  C_22 
REMARK    5  A    between atoms: C_22  and  O_23 
REMARK    6  A    between atoms: C_22  and  C_24 
REMARK    7  A    between atoms: C_24  and  N_25 
REMARK    8  A    between atoms: N_25  and  C_27 
REMARK    9  A    between atoms: N_25  and  C_34 
REMARK   10  A    between atoms: C_27  and  C_28 
REMARK   11  A    between atoms: C_34  and  C_35 
ROOT
HETATM    1  C   UNL     1      41.260  -7.646   8.305  1.00  0.00     0.163 C 
HETATM    2  N   UNL     1      42.268  -8.693   8.305  1.00  0.00    -0.285 N 
HETATM    3  C   UNL     1      43.363  -8.623   9.172  1.00  0.00     0.332 A 
HETATM    4  O   UNL     1      43.516  -7.678   9.948  1.00  0.00    -0.246 OA
HETATM    5  N   UNL     1      44.302  -9.675   9.103  1.00  0.00    -0.269 N 
HETATM    6  C   UNL     1      45.453  -9.608   9.983  1.00  0.00     0.164 C 
HETATM    7  C   UNL     1      44.289 -10.707   8.166  1.00  0.00     0.282 A 
HETATM    8  O   UNL     1      45.197 -11.520   8.001  1.00  0.00    -0.265 OA
HETATM    9  C   UNL     1      43.125 -10.708   7.353  1.00  0.00     0.166 A 
HETATM   10  C   UNL     1      42.175  -9.739   7.419  1.00  0.00     0.186 A 
HETATM   11  N   UNL     1      41.210  -9.920   6.480  1.00  0.00    -0.044 NA
HETATM   12  C   UNL     1      41.548 -11.016   5.836  1.00  0.00     0.705 A 
HETATM   13  N   UNL     1      40.920 -11.567   4.777  1.00  0.00    -0.218 N 
HETATM   14  N   UNL     1      42.718 -11.541   6.345  1.00  0.00    -0.170 N 
HETATM   15  H   UNL     1      40.917 -12.576   4.653  1.00  0.00     0.178 HD
ENDROOT
BRANCH  14  16
HETATM   16  C   UNL     1      43.478 -12.671   5.834  1.00  0.00     0.181 C 
BRANCH  16  17
HETATM   17  C   UNL     1      42.999 -13.982   6.467  1.00  0.00     0.163 C 
BRANCH  17  18
HETATM   18  O   UNL     1      43.285 -14.008   7.869  1.00  0.00    -0.392 OA
HETATM   19  H   UNL     1      44.190 -13.652   8.006  1.00  0.00     0.210 HD
ENDBRANCH  17  18
BRANCH  17  20
HETATM   20  C   UNL     1      43.598 -15.231   5.781  1.00  0.00     0.268 C 
BRANCH  20  21
HETATM   21  N   UNL     1      42.641 -16.018   4.878  1.00  0.00    -0.061 N 
HETATM   22  H   UNL     1      42.367 -16.882   5.350  1.00  0.00     0.280 HD
BRANCH  21  23
HETATM   23  C   UNL     1      41.358 -15.254   4.578  1.00  0.00     0.273 C 
BRANCH  23  24
HETATM   24  C   UNL     1      41.082 -15.014   3.116  1.00  0.00    -0.033 A 
HETATM   25  C   UNL     1      40.176 -15.825   2.414  1.00  0.00     0.009 A 
HETATM   26  C   UNL     1      39.939 -15.604   1.056  1.00  0.00     0.001 A 
HETATM   27  C   UNL     1      40.599 -14.572   0.391  1.00  0.00     0.000 A 
HETATM   28  C   UNL     1      41.492 -13.756   1.080  1.00  0.00     0.001 A 
HETATM   29  C   UNL     1      41.734 -13.974   2.436  1.00  0.00     0.009 A 
ENDBRANCH  23  24
ENDBRANCH  21  23
BRANCH  21  30
HETATM   30  C   UNL     1      43.360 -16.457   3.605  1.00  0.00     0.273 C 
BRANCH  30  31
HETATM   31  C   UNL     1      43.497 -17.954   3.489  1.00  0.00    -0.033 A 
HETATM   32  C   UNL     1      43.950 -18.712   4.582  1.00  0.00     0.009 A 
HETATM   33  C   UNL     1      44.091 -20.096   4.471  1.00  0.00     0.001 A 
HETATM   34  C   UNL     1      43.779 -20.735   3.274  1.00  0.00     0.000 A 
HETATM   35  C   UNL     1      43.320 -19.995   2.186  1.00  0.00     0.001 A 
HETATM   36  C   UNL     1      43.176 -18.611   2.292  1.00  0.00     0.009 A 
ENDBRANCH  30  31
ENDBRANCH  21  30
ENDBRANCH  20  21
ENDBRANCH  17  20
ENDBRANCH  16  17
ENDBRANCH  14  16
BRANCH  13  37
HETATM   37  C   UNL     1      39.590 -11.040   4.452  1.00  0.00     0.203 C 
BRANCH  37  38
HETATM   38  C   UNL     1      39.254 -11.132   3.000  1.00  0.00     0.070 A 
HETATM   39  O   UNL     1      39.901 -10.271   2.155  1.00  0.00    -0.325 OA
HETATM   40  C   UNL     1      39.461 -10.549   0.900  1.00  0.00     0.142 A 
HETATM   41  C   UNL     1      38.544 -11.571   0.924  1.00  0.00     0.027 A 
HETATM   42  C   UNL     1      38.407 -11.950   2.281  1.00  0.00     0.036 A 
ENDBRANCH  37  38
ENDBRANCH  13  37
TORSDOF 11
ENDMDL
MODEL 3
REMARK VINA RESULT:      -9.0      1.625      4.764
REMARK  11 active torsions:
REMARK  status: ('A' for Active; 'I' for Inactive)
REMARK    1  A    between atoms: N_13  and  C_14 
REMARK    2  A    between atoms: C_14  and  C_15 
REMARK    3  A    between atoms: N_20  and  C_21 
REMARK    4  A    between atoms: C_21  and  C_22 
REMARK    5  A    between atoms: C_22  and  O_23 
REMARK    6  A    between atoms: C_22  and  C_24 
REMARK    7  A    between atoms: C_24  and  N_25 
REMARK    8  A    between atoms: N_25  and  C_27 
REMARK    9  A    between atoms: N_25  and  C_34 
REMARK   10  A    between atoms: C_27  and  C_28 
REMARK   11  A    between atoms: C_34  and  C_35 
ROOT
HETATM    1  C   UNL     1      41.158  -7.868   6.262  1.00  0.00     0.163 C 
HETATM    2  N   UNL     1      41.067  -9.166   5.615  1.00  0.00    -0.285 N 
HETATM    3  C   UNL     1      40.019  -9.446   4.732  1.00  0.00     0.332 A 
HETATM    4  O   UNL     1      39.141  -8.617   4.484  1.00  0.00    -0.246 OA
HETATM    5  N   UNL     1      39.996 -10.733   4.153  1.00  0.00    -0.269 N 
HETATM    6  C   UNL     1      38.905 -11.046   3.250  1.00  0.00     0.164 C 
HETATM    7  C   UNL     1      40.859 -11.779   4.478  1.00  0.00     0.282 A 
HETATM    8  O   UNL     1      40.730 -12.942   4.101  1.00  0.00    -0.265 OA
HETATM    9  C   UNL     1      41.903 -11.387   5.357  1.00  0.00     0.166 A 
HETATM   10  C   UNL     1      41.987 -10.145   5.901  1.00  0.00     0.186 A 
HETATM   11  N   UNL     1      43.024 -10.050   6.773  1.00  0.00    -0.044 NA
HETATM   12  C   UNL     1      43.602 -11.231   6.761  1.00  0.00     0.705 A 
HETATM   13  N   UNL     1      44.647 -11.637   7.513  1.00  0.00    -0.218 N 
HETATM   14  N   UNL     1      42.950 -12.086   5.897  1.00  0.00    -0.170 N 
HETATM   15  H   UNL     1      45.312 -12.310   7.142  1.00  0.00     0.178 HD
ENDROOT
BRANCH  14  16
HETATM   16  C   UNL     1      43.206 -13.503   5.691  1.00  0.00     0.181 C 
BRANCH  16  17
HETATM   17  C   UNL     1      42.521 -14.345   6.773  1.00  0.00     0.163 C 
BRANCH  17  18
HETATM   18  O   UNL     1      43.217 -14.241   8.019  1.00  0.00    -0.392 OA
HETATM   19  H   UNL     1      43.814 -15.016   8.105  1.00  0.00     0.210 HD
ENDBRANCH  17  18
BRANCH  17  20
HETATM   20  C   UNL     1      42.377 -15.831   6.371  1.00  0.00     0.268 C 
BRANCH  20  21
HETATM   21  N   UNL     1      42.960 -16.211   5.005  1.00  0.00    -0.061 N 
HETATM   22  H   UNL     1      43.245 -15.362   4.512  1.00  0.00     0.280 HD
BRANCH  21  23
HETATM   23  C   UNL     1      44.200 -17.089   5.122  1.00  0.00     0.273 C 
BRANCH  23  24
HETATM   24  C   UNL     1      44.079 -18.454   4.498  1.00  0.00    -0.033 A 
HETATM   25  C   UNL     1      44.051 -18.607   3.102  1.00  0.00     0.009 A 
HETATM   26  C   UNL     1      43.923 -19.875   2.534  1.00  0.00     0.001 A 
HETATM   27  C   UNL     1      43.826 -20.999   3.352  1.00  0.00     0.000 A 
HETATM   28  C   UNL     1      43.863 -20.862   4.736  1.00  0.00     0.001 A 
HETATM   29  C   UNL     1      43.988 -19.596   5.309  1.00  0.00     0.009 A 
ENDBRANCH  23  24
ENDBRANCH  21  23
BRANCH  21  30
HETATM   30  C   UNL     1      41.883 -16.849   4.132  1.00  0.00     0.273 C 
BRANCH  30  31
HETATM   31  C   UNL     1      41.549 -16.031   2.911  1.00  0.00    -0.033 A 
HETATM   32  C   UNL     1      40.242 -16.025   2.397  1.00  0.00     0.009 A 
HETATM   33  C   UNL     1      39.934 -15.278   1.258  1.00  0.00     0.001 A 
HETATM   34  C   UNL     1      40.925 -14.532   0.625  1.00  0.00     0.000 A 
HETATM   35  C   UNL     1      42.223 -14.522   1.131  1.00  0.00     0.001 A 
HETATM   36  C   UNL     1      42.535 -15.266   2.270  1.00  0.00     0.009 A 
ENDBRANCH  30  31
ENDBRANCH  21  30
ENDBRANCH  20  21
ENDBRANCH  17  20
ENDBRANCH  16  17
ENDBRANCH  14  16
BRANCH  13  37
HETATM   37  C   UNL     1      45.377 -10.593   8.243  1.00  0.00     0.203 C 
BRANCH  37  38
HETATM   38  C   UNL     1      44.741 -10.226   9.544  1.00  0.00     0.070 A 
HETATM   39  O   UNL     1      44.084 -11.221  10.218  1.00  0.00    -0.325 OA
HETATM   40  C   UNL     1      43.614 -10.670  11.367  1.00  0.00     0.142 A 
HETATM   41  C   UNL     1      43.956  -9.342  11.443  1.00  0.00     0.027 A 
HETATM   42  C   UNL     1      44.685  -9.052  10.265  1.00  0.00     0.036 A 
ENDBRANCH  37  38
ENDBRANCH  13  37
TORSDOF 11
ENDMDL
MODEL 4
REMARK VINA RESULT:      -8.8      3.187      8.470
REMARK  11 active torsions:
REMARK  status: ('A' for Active; 'I' for Inactive)
REMARK    1  A    between atoms: N_13  and  C_14 
REMARK    2  A    between atoms: C_14  and  C_15 
REMARK    3  A    between atoms: N_20  and  C_21 
REMARK    4  A    between atoms: C_21  and  C_22 
REMARK    5  A    between atoms: C_22  and  O_23 
REMARK    6  A    between atoms: C_22  and  C_24 
REMARK    7  A    between atoms: C_24  and  N_25 
REMARK    8  A    between atoms: N_25  and  C_27 
REMARK    9  A    between atoms: N_25  and  C_34 
REMARK   10  A    between atoms: C_27  and  C_28 
REMARK   11  A    between atoms: C_34  and  C_35 
ROOT
HETATM    1  C   UNL     1      39.132 -14.878  -1.769  1.00  0.00     0.163 C 
HETATM    2  N   UNL     1      39.714 -13.613  -1.352  1.00  0.00    -0.285 N 
HETATM    3  C   UNL     1      39.659 -12.496  -2.193  1.00  0.00     0.332 A 
HETATM    4  O   UNL     1      39.133 -12.548  -3.306  1.00  0.00    -0.246 OA
HETATM    5  N   UNL     1      40.257 -11.309  -1.718  1.00  0.00    -0.269 N 
HETATM    6  C   UNL     1      40.225 -10.146  -2.586  1.00  0.00     0.164 C 
HETATM    7  C   UNL     1      40.995 -11.191  -0.541  1.00  0.00     0.282 A 
HETATM    8  O   UNL     1      41.654 -10.206  -0.218  1.00  0.00    -0.265 OA
HETATM    9  C   UNL     1      40.965 -12.367   0.254  1.00  0.00     0.166 A 
HETATM   10  C   UNL     1      40.363 -13.518  -0.146  1.00  0.00     0.186 A 
HETATM   11  N   UNL     1      40.550 -14.519   0.753  1.00  0.00    -0.044 NA
HETATM   12  C   UNL     1      41.257 -13.989   1.727  1.00  0.00     0.705 A 
HETATM   13  N   UNL     1      41.737 -14.614   2.823  1.00  0.00    -0.218 N 
HETATM   14  N   UNL     1      41.531 -12.662   1.467  1.00  0.00    -0.170 N 
HETATM   15  H   UNL     1      41.824 -14.111   3.701  1.00  0.00     0.178 HD
ENDROOT
BRANCH  14  16
HETATM   16  C   UNL     1      42.379 -11.764   2.236  1.00  0.00     0.181 C 
BRANCH  16  17
HETATM   17  C   UNL     1      41.558 -10.995   3.277  1.00  0.00     0.163 C 
BRANCH  17  18
HETATM   18  O   UNL     1      40.853  -9.907   2.671  1.00  0.00    -0.392 OA
HETATM   19  H   UNL     1      41.427  -9.110   2.706  1.00  0.00     0.210 HD
ENDBRANCH  17  18
BRANCH  17  20
HETATM   20  C   UNL     1      42.417 -10.480   4.453  1.00  0.00     0.268 C 
BRANCH  20  21
HETATM   21  N   UNL     1      42.197 -11.185   5.797  1.00  0.00    -0.061 N 
HETATM   22  H   UNL     1      42.993 -11.797   5.990  1.00  0.00     0.280 HD
BRANCH  21  23
HETATM   23  C   UNL     1      42.103 -10.208   6.962  1.00  0.00     0.273 C 
BRANCH  23  24
HETATM   24  C   UNL     1      43.413  -9.873   7.625  1.00  0.00    -0.033 A 
HETATM   25  C   UNL     1      44.441 -10.826   7.708  1.00  0.00     0.009 A 
HETATM   26  C   UNL     1      45.646 -10.510   8.339  1.00  0.00     0.001 A 
HETATM   27  C   UNL     1      45.836  -9.243   8.886  1.00  0.00     0.000 A 
HETATM   28  C   UNL     1      44.827  -8.287   8.802  1.00  0.00     0.001 A 
HETATM   29  C   UNL     1      43.620  -8.598   8.176  1.00  0.00     0.009 A 
ENDBRANCH  23  24
ENDBRANCH  21  23
BRANCH  21  30
HETATM   30  C   UNL     1      40.983 -12.106   5.717  1.00  0.00     0.273 C 
BRANCH  30  31
HETATM   31  C   UNL     1      41.277 -13.515   6.164  1.00  0.00    -0.033 A 
HETATM   32  C   UNL     1      42.591 -13.899   6.478  1.00  0.00     0.009 A 
HETATM   33  C   UNL     1      42.867 -15.208   6.878  1.00  0.00     0.001 A 
HETATM   34  C   UNL     1      41.838 -16.141   6.970  1.00  0.00     0.000 A 
HETATM   35  C   UNL     1      40.529 -15.769   6.670  1.00  0.00     0.001 A 
HETATM   36  C   UNL     1      40.248 -14.461   6.271  1.00  0.00     0.009 A 
ENDBRANCH  30  31
ENDBRANCH  21  30
ENDBRANCH  20  21
ENDBRANCH  17  20
ENDBRANCH  16  17
ENDBRANCH  14  16
BRANCH  13  37
HETATM   37  C   UNL     1      41.221 -15.961   3.090  1.00  0.00     0.203 C 
BRANCH  37  38
HETATM   38  C   UNL     1      42.281 -17.014   3.081  1.00  0.00     0.070 A 
HETATM   39  O   UNL     1      42.162 -18.008   2.146  1.00  0.00    -0.325 OA
HETATM   40  C   UNL     1      43.234 -18.827   2.307  1.00  0.00     0.142 A 
HETATM   41  C   UNL     1      44.037 -18.378   3.328  1.00  0.00     0.027 A 
HETATM   42  C   UNL     1      43.423 -17.206   3.830  1.00  0.00     0.036 A 
ENDBRANCH  37  38
ENDBRANCH  13  37
TORSDOF 11
ENDMDL
MODEL 5
REMARK VINA RESULT:      -8.7      2.439      7.220
REMARK  11 active torsions:
REMARK  status: ('A' for Active; 'I' for Inactive)
REMARK    1  A    between atoms: N_13  and  C_14 
REMARK    2  A    between atoms: C_14  and  C_15 
REMARK    3  A    between atoms: N_20  and  C_21 
REMARK    4  A    between atoms: C_21  and  C_22 
REMARK    5  A    between atoms: C_22  and  O_23 
REMARK    6  A    between atoms: C_22  and  C_24 
REMARK    7  A    between atoms: C_24  and  N_25 
REMARK    8  A    between atoms: N_25  and  C_27 
REMARK    9  A    between atoms: N_25  and  C_34 
REMARK   10  A    between atoms: C_27  and  C_28 
REMARK   11  A    between atoms: C_34  and  C_35 
ROOT
HETATM    1  C   UNL     1      44.745 -16.039   6.842  1.00  0.00     0.163 C 
HETATM    2  N   UNL     1      43.452 -15.499   6.456  1.00  0.00    -0.285 N 
HETATM    3  C   UNL     1      42.392 -16.355   6.141  1.00  0.00     0.332 A 
HETATM    4  O   UNL     1      42.518 -17.580   6.168  1.00  0.00    -0.246 OA
HETATM    5  N   UNL     1      41.172 -15.751   5.765  1.00  0.00    -0.269 N 
HETATM    6  C   UNL     1      40.068 -16.625   5.418  1.00  0.00     0.164 C 
HETATM    7  C   UNL     1      40.975 -14.385   5.570  1.00  0.00     0.282 A 
HETATM    8  O   UNL     1      39.966 -13.882   5.080  1.00  0.00    -0.265 OA
HETATM    9  C   UNL     1      42.097 -13.601   5.945  1.00  0.00     0.166 A 
HETATM   10  C   UNL     1      43.275 -14.140   6.354  1.00  0.00     0.186 A 
HETATM   11  N   UNL     1      44.216 -13.184   6.569  1.00  0.00    -0.044 NA
HETATM   12  C   UNL     1      43.619 -12.040   6.311  1.00  0.00     0.705 A 
HETATM   13  N   UNL     1      44.170 -10.809   6.332  1.00  0.00    -0.218 N 
HETATM   14  N   UNL     1      42.310 -12.247   5.929  1.00  0.00    -0.170 N 
HETATM   15  H   UNL     1      43.611 -10.004   6.601  1.00  0.00     0.178 HD
ENDROOT
BRANCH  14  16
HETATM   16  C   UNL     1      41.359 -11.256   5.451  1.00  0.00     0.181 C 
BRANCH  16  17
HETATM   17  C   UNL     1      41.648 -10.879   3.994  1.00  0.00     0.163 C 
BRANCH  17  18
HETATM   18  O   UNL     1      42.115  -9.530   3.897  1.00  0.00    -0.392 OA
HETATM   19  H   UNL     1      42.407  -9.369   2.973  1.00  0.00     0.210 HD
ENDBRANCH  17  18
BRANCH  17  20
HETATM   20  C   UNL     1      40.427 -11.083   3.070  1.00  0.00     0.268 C 
BRANCH  20  21
HETATM   21  N   UNL     1      40.650 -12.004   1.865  1.00  0.00    -0.061 N 
HETATM   22  H   UNL     1      40.015 -12.804   1.929  1.00  0.00     0.280 HD
BRANCH  21  23
HETATM   23  C   UNL     1      40.354 -11.316   0.538  1.00  0.00     0.273 C 
BRANCH  23  24
HETATM   24  C   UNL     1      40.169 -12.240  -0.636  1.00  0.00    -0.033 A 
HETATM   25  C   UNL     1      39.167 -13.224  -0.625  1.00  0.00     0.009 A 
HETATM   26  C   UNL     1      39.014 -14.086  -1.712  1.00  0.00     0.001 A 
HETATM   27  C   UNL     1      39.854 -13.971  -2.818  1.00  0.00     0.000 A 
HETATM   28  C   UNL     1      40.844 -12.994  -2.844  1.00  0.00     0.001 A 
HETATM   29  C   UNL     1      41.004 -12.131  -1.760  1.00  0.00     0.009 A 
ENDBRANCH  23  24
ENDBRANCH  21  23
BRANCH  21  30
HETATM   30  C   UNL     1      42.057 -12.595   1.906  1.00  0.00     0.273 C 
BRANCH  30  31
HETATM   31  C   UNL     1      42.065 -14.094   2.061  1.00  0.00    -0.033 A 
HETATM   32  C   UNL     1      43.246 -14.763   2.425  1.00  0.00     0.009 A 
HETATM   33  C   UNL     1      43.258 -16.153   2.555  1.00  0.00     0.001 A 
HETATM   34  C   UNL     1      42.097 -16.886   2.325  1.00  0.00     0.000 A 
HETATM   35  C   UNL     1      40.918 -16.232   1.972  1.00  0.00     0.001 A 
HETATM   36  C   UNL     1      40.899 -14.843   1.842  1.00  0.00     0.009 A 
ENDBRANCH  30  31
ENDBRANCH  21  30
ENDBRANCH  20  21
ENDBRANCH  17  20
ENDBRANCH  16  17
ENDBRANCH  14  16
BRANCH  13  37
HETATM   37  C   UNL     1      45.501 -10.694   6.939  1.00  0.00     0.203 C 
BRANCH  37  38
HETATM   38  C   UNL     1      45.472 -10.162   8.334  1.00  0.00     0.070 A 
HETATM   39  O   UNL     1      45.219 -11.060   9.337  1.00  0.00    -0.325 OA
HETATM   40  C   UNL     1      45.264 -10.366  10.505  1.00  0.00     0.142 A 
HETATM   41  C   UNL     1      45.540  -9.041  10.270  1.00  0.00     0.027 A 
HETATM   42  C   UNL     1      45.675  -8.906   8.867  1.00  0.00     0.036 A 
ENDBRANCH  37  38
ENDBRANCH  13  37
TORSDOF 11
ENDMDL
MODEL 6
REMARK VINA RESULT:      -8.7      1.933      5.874
REMARK  11 active torsions:
REMARK  status: ('A' for Active; 'I' for Inactive)
REMARK    1  A    between atoms: N_13  and  C_14 
REMARK    2  A    between atoms: C_14  and  C_15 
REMARK    3  A    between atoms: N_20  and  C_21 
REMARK    4  A    between atoms: C_21  and  C_22 
REMARK    5  A    between atoms: C_22  and  O_23 
REMARK    6  A    between atoms: C_22  and  C_24 
REMARK    7  A    between atoms: C_24  and  N_25 
REMARK    8  A    between atoms: N_25  and  C_27 
REMARK    9  A    between atoms: N_25  and  C_34 
REMARK   10  A    between atoms: C_27  and  C_28 
REMARK   11  A    between atoms: C_34  and  C_35 
ROOT
HETATM    1  C   UNL     1      46.145 -10.343   7.962  1.00  0.00     0.163 C 
HETATM    2  N   UNL     1      44.775  -9.942   7.683  1.00  0.00    -0.285 N 
HETATM    3  C   UNL     1      44.322  -8.671   8.048  1.00  0.00     0.332 A 
HETATM    4  O   UNL     1      45.053  -7.861   8.622  1.00  0.00    -0.246 OA
HETATM    5  N   UNL     1      42.976  -8.362   7.752  1.00  0.00    -0.269 N 
HETATM    6  C   UNL     1      42.484  -7.055   8.141  1.00  0.00     0.164 C 
HETATM    7  C   UNL     1      42.038  -9.256   7.236  1.00  0.00     0.282 A 
HETATM    8  O   UNL     1      40.833  -9.036   7.141  1.00  0.00    -0.265 OA
HETATM    9  C   UNL     1      42.603 -10.507   6.871  1.00  0.00     0.166 A 
HETATM   10  C   UNL     1      43.903 -10.828   7.098  1.00  0.00     0.186 A 
HETATM   11  N   UNL     1      44.173 -12.109   6.739  1.00  0.00    -0.044 NA
HETATM   12  C   UNL     1      43.041 -12.587   6.268  1.00  0.00     0.705 A 
HETATM   13  N   UNL     1      42.801 -13.843   5.838  1.00  0.00    -0.218 N 
HETATM   14  N   UNL     1      42.047 -11.633   6.323  1.00  0.00    -0.170 N 
HETATM   15  H   UNL     1      42.136 -14.008   5.087  1.00  0.00     0.178 HD
ENDROOT
BRANCH  14  16
HETATM   16  C   UNL     1      40.636 -11.802   6.010  1.00  0.00     0.181 C 
BRANCH  16  17
HETATM   17  C   UNL     1      40.330 -11.313   4.590  1.00  0.00     0.163 C 
BRANCH  17  18
HETATM   18  O   UNL     1      39.686 -10.036   4.617  1.00  0.00    -0.392 OA
HETATM   19  H   UNL     1      40.189  -9.424   4.036  1.00  0.00     0.210 HD
ENDBRANCH  17  18
BRANCH  17  20
HETATM   20  C   UNL     1      39.478 -12.319   3.783  1.00  0.00     0.268 C 
BRANCH  20  21
HETATM   21  N   UNL     1      40.096 -12.813   2.470  1.00  0.00    -0.061 N 
HETATM   22  H   UNL     1      39.702 -13.727   2.235  1.00  0.00     0.280 HD
BRANCH  21  23
HETATM   23  C   UNL     1      39.793 -11.890   1.296  1.00  0.00     0.273 C 
BRANCH  23  24
HETATM   24  C   UNL     1      39.275 -12.576   0.059  1.00  0.00    -0.033 A 
HETATM   25  C   UNL     1      38.212 -12.027  -0.675  1.00  0.00     0.009 A 
HETATM   26  C   UNL     1      37.729 -12.679  -1.811  1.00  0.00     0.001 A 
HETATM   27  C   UNL     1      38.305 -13.879  -2.225  1.00  0.00     0.000 A 
HETATM   28  C   UNL     1      39.366 -14.428  -1.510  1.00  0.00     0.001 A 
HETATM   29  C   UNL     1      39.851 -13.782  -0.373  1.00  0.00     0.009 A 
ENDBRANCH  23  24
ENDBRANCH  21  23
BRANCH  21  30
HETATM   30  C   UNL     1      41.594 -13.046   2.648  1.00  0.00     0.273 C 
BRANCH  30  31
HETATM   31  C   UNL     1      41.994 -14.488   2.467  1.00  0.00    -0.033 A 
HETATM   32  C   UNL     1      41.176 -15.518   2.959  1.00  0.00     0.009 A 
HETATM   33  C   UNL     1      41.554 -16.854   2.804  1.00  0.00     0.001 A 
HETATM   34  C   UNL     1      42.745 -17.171   2.158  1.00  0.00     0.000 A 
HETATM   35  C   UNL     1      43.560 -16.158   1.658  1.00  0.00     0.001 A 
HETATM   36  C   UNL     1      43.187 -14.822   1.809  1.00  0.00     0.009 A 
ENDBRANCH  30  31
ENDBRANCH  21  30
ENDBRANCH  20  21
ENDBRANCH  17  20
ENDBRANCH  16  17
ENDBRANCH  14  16
BRANCH  13  37
HETATM   37  C   UNL     1      43.971 -14.707   5.641  1.00  0.00     0.203 C 
BRANCH  37  38
HETATM   38  C   UNL     1      43.679 -16.157   5.847  1.00  0.00     0.070 A 
HETATM   39  O   UNL     1      44.402 -17.050   5.103  1.00  0.00    -0.325 OA
HETATM   40  C   UNL     1      43.990 -18.291   5.469  1.00  0.00     0.142 A 
HETATM   41  C   UNL     1      43.015 -18.212   6.434  1.00  0.00     0.027 A 
HETATM   42  C   UNL     1      42.812 -16.833   6.681  1.00  0.00     0.036 A 
ENDBRANCH  37  38
ENDBRANCH  13  37
TORSDOF 11
ENDMDL
MODEL 7
REMARK VINA RESULT:      -8.6      3.370      8.254
REMARK  11 active torsions:
REMARK  status: ('A' for Active; 'I' for Inactive)
REMARK    1  A    between atoms: N_13  and  C_14 
REMARK    2  A    between atoms: C_14  and  C_15 
REMARK    3  A    between atoms: N_20  and  C_21 
REMARK    4  A    between atoms: C_21  and  C_22 
REMARK    5  A    between atoms: C_22  and  O_23 
REMARK    6  A    between atoms: C_22  and  C_24 
REMARK    7  A    between atoms: C_24  and  N_25 
REMARK    8  A    between atoms: N_25  and  C_27 
REMARK    9  A    between atoms: N_25  and  C_34 
REMARK   10  A    between atoms: C_27  and  C_28 
REMARK   11  A    between atoms: C_34  and  C_35 
ROOT
HETATM    1  C   UNL     1      43.753 -17.414   7.388  1.00  0.00     0.163 C 
HETATM    2  N   UNL     1      43.609 -17.302   5.946  1.00  0.00    -0.285 N 
HETATM    3  C   UNL     1      43.719 -18.434   5.133  1.00  0.00     0.332 A 
HETATM    4  O   UNL     1      43.950 -19.550   5.603  1.00  0.00    -0.246 OA
HETATM    5  N   UNL     1      43.577 -18.239   3.742  1.00  0.00    -0.269 N 
HETATM    6  C   UNL     1      43.707 -19.400   2.883  1.00  0.00     0.164 C 
HETATM    7  C   UNL     1      43.455 -17.002   3.109  1.00  0.00     0.282 A 
HETATM    8  O   UNL     1      43.504 -16.825   1.894  1.00  0.00    -0.265 OA
HETATM    9  C   UNL     1      43.323 -15.921   4.020  1.00  0.00     0.166 A 
HETATM   10  C   UNL     1      43.409 -16.072   5.367  1.00  0.00     0.186 A 
HETATM   11  N   UNL     1      43.337 -14.878   6.011  1.00  0.00    -0.044 NA
HETATM   12  C   UNL     1      43.187 -13.978   5.063  1.00  0.00     0.705 A 
HETATM   13  N   UNL     1      43.124 -12.638   5.212  1.00  0.00    -0.218 N 
HETATM   14  N   UNL     1      43.166 -14.575   3.820  1.00  0.00    -0.170 N 
HETATM   15  H   UNL     1      42.554 -12.081   4.581  1.00  0.00     0.178 HD
ENDROOT
BRANCH  14  16
HETATM   16  C   UNL     1      43.135 -13.920   2.522  1.00  0.00     0.181 C 
BRANCH  16  17
HETATM   17  C   UNL     1      41.737 -14.002   1.900  1.00  0.00     0.163 C 
BRANCH  17  18
HETATM   18  O   UNL     1      41.787 -14.615   0.608  1.00  0.00    -0.392 OA
HETATM   19  H   UNL     1      42.455 -15.335   0.633  1.00  0.00     0.210 HD
ENDBRANCH  17  18
BRANCH  17  20
HETATM   20  C   UNL     1      41.042 -12.625   1.806  1.00  0.00     0.268 C 
BRANCH  20  21
HETATM   21  N   UNL     1      40.605 -12.195   0.401  1.00  0.00    -0.061 N 
HETATM   22  H   UNL     1      41.059 -12.794  -0.292  1.00  0.00     0.280 HD
BRANCH  21  23
HETATM   23  C   UNL     1      39.103 -12.335   0.187  1.00  0.00     0.273 C 
BRANCH  23  24
HETATM   24  C   UNL     1      38.701 -13.070  -1.066  1.00  0.00    -0.033 A 
HETATM   25  C   UNL     1      39.424 -14.190  -1.505  1.00  0.00     0.009 A 
HETATM   26  C   UNL     1      39.053 -14.854  -2.676  1.00  0.00     0.001 A 
HETATM   27  C   UNL     1      37.957 -14.409  -3.413  1.00  0.00     0.000 A 
HETATM   28  C   UNL     1      37.227 -13.305  -2.982  1.00  0.00     0.001 A 
HETATM   29  C   UNL     1      37.596 -12.636  -1.814  1.00  0.00     0.009 A 
ENDBRANCH  23  24
ENDBRANCH  21  23
BRANCH  21  30
HETATM   30  C   UNL     1      41.099 -10.781   0.106  1.00  0.00     0.273 C 
BRANCH  30  31
HETATM   31  C   UNL     1      40.689 -10.283  -1.256  1.00  0.00    -0.033 A 
HETATM   32  C   UNL     1      39.827  -9.181  -1.379  1.00  0.00     0.009 A 
HETATM   33  C   UNL     1      39.435  -8.727  -2.640  1.00  0.00     0.001 A 
HETATM   34  C   UNL     1      39.899  -9.367  -3.786  1.00  0.00     0.000 A 
HETATM   35  C   UNL     1      40.762 -10.456  -3.677  1.00  0.00     0.001 A 
HETATM   36  C   UNL     1      41.158 -10.912  -2.419  1.00  0.00     0.009 A 
ENDBRANCH  30  31
ENDBRANCH  21  30
ENDBRANCH  20  21
ENDBRANCH  17  20
ENDBRANCH  16  17
ENDBRANCH  14  16
BRANCH  13  37
HETATM   37  C   UNL     1      42.959 -12.135   6.580  1.00  0.00     0.203 C 
BRANCH  37  38
HETATM   38  C   UNL     1      44.188 -11.483   7.124  1.00  0.00     0.070 A 
HETATM   39  O   UNL     1      44.059 -10.795   8.301  1.00  0.00    -0.325 OA
HETATM   40  C   UNL     1      45.291 -10.314   8.611  1.00  0.00     0.142 A 
HETATM   41  C   UNL     1      46.208 -10.681   7.656  1.00  0.00     0.027 A 
HETATM   42  C   UNL     1      45.497 -11.437   6.693  1.00  0.00     0.036 A 
ENDBRANCH  37  38
ENDBRANCH  13  37
TORSDOF 11
ENDMDL
MODEL 8
REMARK VINA RESULT:      -8.3      2.806      7.958
REMARK  11 active torsions:
REMARK  status: ('A' for Active; 'I' for Inactive)
REMARK    1  A    between atoms: N_13  and  C_14 
REMARK    2  A    between atoms: C_14  and  C_15 
REMARK    3  A    between atoms: N_20  and  C_21 
REMARK    4  A    between atoms: C_21  and  C_22 
REMARK    5  A    between atoms: C_22  and  O_23 
REMARK    6  A    between atoms: C_22  and  C_24 
REMARK    7  A    between atoms: C_24  and  N_25 
REMARK    8  A    between atoms: N_25  and  C_27 
REMARK    9  A    between atoms: N_25  and  C_34 
REMARK   10  A    between atoms: C_27  and  C_28 
REMARK   11  A    between atoms: C_34  and  C_35 
ROOT
HETATM    1  C   UNL     1      43.564 -17.212   7.159  1.00  0.00     0.163 C 
HETATM    2  N   UNL     1      43.464 -17.068   5.716  1.00  0.00    -0.285 N 
HETATM    3  C   UNL     1      43.576 -18.186   4.884  1.00  0.00     0.332 A 
HETATM    4  O   UNL     1      43.772 -19.315   5.337  1.00  0.00    -0.246 OA
HETATM    5  N   UNL     1      43.479 -17.960   3.493  1.00  0.00    -0.269 N 
HETATM    6  C   UNL     1      43.611 -19.106   2.614  1.00  0.00     0.164 C 
HETATM    7  C   UNL     1      43.399 -16.708   2.883  1.00  0.00     0.282 A 
HETATM    8  O   UNL     1      43.487 -16.508   1.673  1.00  0.00    -0.265 OA
HETATM    9  C   UNL     1      43.261 -15.644   3.812  1.00  0.00     0.166 A 
HETATM   10  C   UNL     1      43.305 -15.823   5.158  1.00  0.00     0.186 A 
HETATM   11  N   UNL     1      43.237 -14.641   5.823  1.00  0.00    -0.044 NA
HETATM   12  C   UNL     1      43.132 -13.719   4.890  1.00  0.00     0.705 A 
HETATM   13  N   UNL     1      43.091 -12.382   5.065  1.00  0.00    -0.218 N 
HETATM   14  N   UNL     1      43.136 -14.291   3.635  1.00  0.00    -0.170 N 
HETATM   15  H   UNL     1      42.551 -11.801   4.430  1.00  0.00     0.178 HD
ENDROOT
BRANCH  14  16
HETATM   16  C   UNL     1      43.156 -13.609   2.350  1.00  0.00     0.181 C 
BRANCH  16  17
HETATM   17  C   UNL     1      41.746 -13.515   1.759  1.00  0.00     0.163 C 
BRANCH  17  18
HETATM   18  O   UNL     1      41.606 -14.384   0.630  1.00  0.00    -0.392 OA
HETATM   19  H   UNL     1      41.144 -13.891  -0.084  1.00  0.00     0.210 HD
ENDBRANCH  17  18
BRANCH  17  20
HETATM   20  C   UNL     1      41.356 -12.072   1.367  1.00  0.00     0.268 C 
BRANCH  20  21
HETATM   21  N   UNL     1      39.912 -11.878   0.891  1.00  0.00    -0.061 N 
HETATM   22  H   UNL     1      39.421 -12.774   0.928  1.00  0.00     0.280 HD
BRANCH  21  23
HETATM   23  C   UNL     1      39.129 -10.912   1.772  1.00  0.00     0.273 C 
BRANCH  23  24
HETATM   24  C   UNL     1      39.210 -11.185   3.251  1.00  0.00    -0.033 A 
HETATM   25  C   UNL     1      39.340 -12.497   3.733  1.00  0.00     0.009 A 
HETATM   26  C   UNL     1      39.398 -12.740   5.107  1.00  0.00     0.001 A 
HETATM   27  C   UNL     1      39.332 -11.679   6.007  1.00  0.00     0.000 A 
HETATM   28  C   UNL     1      39.214 -10.373   5.540  1.00  0.00     0.001 A 
HETATM   29  C   UNL     1      39.152 -10.124   4.169  1.00  0.00     0.009 A 
ENDBRANCH  23  24
ENDBRANCH  21  23
BRANCH  21  30
HETATM   30  C   UNL     1      39.893 -11.463  -0.578  1.00  0.00     0.273 C 
BRANCH  30  31
HETATM   31  C   UNL     1      39.235 -12.481  -1.473  1.00  0.00    -0.033 A 
HETATM   32  C   UNL     1      39.989 -13.525  -2.034  1.00  0.00     0.009 A 
HETATM   33  C   UNL     1      39.383 -14.461  -2.875  1.00  0.00     0.001 A 
HETATM   34  C   UNL     1      38.023 -14.365  -3.160  1.00  0.00     0.000 A 
HETATM   35  C   UNL     1      37.263 -13.340  -2.601  1.00  0.00     0.001 A 
HETATM   36  C   UNL     1      37.864 -12.403  -1.759  1.00  0.00     0.009 A 
ENDBRANCH  30  31
ENDBRANCH  21  30
ENDBRANCH  20  21
ENDBRANCH  17  20
ENDBRANCH  16  17
ENDBRANCH  14  16
BRANCH  13  37
HETATM   37  C   UNL     1      42.895 -11.903   6.438  1.00  0.00     0.203 C 
BRANCH  37  38
HETATM   38  C   UNL     1      44.138 -11.351   7.056  1.00  0.00     0.070 A 
HETATM   39  O   UNL     1      44.029 -10.831   8.318  1.00  0.00    -0.325 OA
HETATM   40  C   UNL     1      45.270 -10.415   8.680  1.00  0.00     0.142 A 
HETATM   41  C   UNL     1      46.175 -10.658   7.674  1.00  0.00     0.027 A 
HETATM   42  C   UNL     1      45.445 -11.263   6.622  1.00  0.00     0.036 A 
ENDBRANCH  37  38
ENDBRANCH  13  37
TORSDOF 11
ENDMDL
MODEL 9
REMARK VINA RESULT:      -8.2      3.365      7.405
REMARK  11 active torsions:
REMARK  status: ('A' for Active; 'I' for Inactive)
REMARK    1  A    between atoms: N_13  and  C_14 
REMARK    2  A    between atoms: C_14  and  C_15 
REMARK    3  A    between atoms: N_20  and  C_21 
REMARK    4  A    between atoms: C_21  and  C_22 
REMARK    5  A    between atoms: C_22  and  O_23 
REMARK    6  A    between atoms: C_22  and  C_24 
REMARK    7  A    between atoms: C_24  and  N_25 
REMARK    8  A    between atoms: N_25  and  C_27 
REMARK    9  A    between atoms: N_25  and  C_34 
REMARK   10  A    between atoms: C_27  and  C_28 
REMARK   11  A    between atoms: C_34  and  C_35 
ROOT
HETATM    1  C   UNL     1      44.296 -12.335   7.109  1.00  0.00     0.163 C 
HETATM    2  N   UNL     1      43.194 -12.082   6.196  1.00  0.00    -0.285 N 
HETATM    3  C   UNL     1      42.566 -10.833   6.173  1.00  0.00     0.332 A 
HETATM    4  O   UNL     1      42.913  -9.919   6.923  1.00  0.00    -0.246 OA
HETATM    5  N   UNL     1      41.497 -10.671   5.265  1.00  0.00    -0.269 N 
HETATM    6  C   UNL     1      40.823  -9.387   5.241  1.00  0.00     0.164 C 
HETATM    7  C   UNL     1      40.944 -11.683   4.481  1.00  0.00     0.282 A 
HETATM    8  O   UNL     1      39.910 -11.580   3.824  1.00  0.00    -0.265 OA
HETATM    9  C   UNL     1      41.669 -12.902   4.552  1.00  0.00     0.166 A 
HETATM   10  C   UNL     1      42.731 -13.085   5.380  1.00  0.00     0.186 A 
HETATM   11  N   UNL     1      43.193 -14.361   5.325  1.00  0.00    -0.044 NA
HETATM   12  C   UNL     1      42.429 -14.974   4.446  1.00  0.00     0.705 A 
HETATM   13  N   UNL     1      42.471 -16.276   4.095  1.00  0.00    -0.218 N 
HETATM   14  N   UNL     1      41.480 -14.112   3.938  1.00  0.00    -0.170 N 
HETATM   15  H   UNL     1      42.236 -16.557   3.147  1.00  0.00     0.178 HD
ENDROOT
BRANCH  14  16
HETATM   16  C   UNL     1      40.383 -14.432   3.039  1.00  0.00     0.181 C 
BRANCH  16  17
HETATM   17  C   UNL     1      40.865 -14.483   1.585  1.00  0.00     0.163 C 
BRANCH  17  18
HETATM   18  O   UNL     1      41.707 -15.619   1.365  1.00  0.00    -0.392 OA
HETATM   19  H   UNL     1      41.616 -16.224   2.133  1.00  0.00     0.210 HD
ENDBRANCH  17  18
BRANCH  17  20
HETATM   20  C   UNL     1      41.596 -13.192   1.153  1.00  0.00     0.268 C 
BRANCH  20  21
HETATM   21  N   UNL     1      40.834 -12.291   0.173  1.00  0.00    -0.061 N 
HETATM   22  H   UNL     1      41.174 -12.462  -0.776  1.00  0.00     0.280 HD
BRANCH  21  23
HETATM   23  C   UNL     1      39.337 -12.575   0.161  1.00  0.00     0.273 C 
BRANCH  23  24
HETATM   24  C   UNL     1      38.813 -13.196  -1.108  1.00  0.00    -0.033 A 
HETATM   25  C   UNL     1      37.683 -12.669  -1.752  1.00  0.00     0.009 A 
HETATM   26  C   UNL     1      37.196 -13.262  -2.918  1.00  0.00     0.001 A 
HETATM   27  C   UNL     1      37.835 -14.380  -3.452  1.00  0.00     0.000 A 
HETATM   28  C   UNL     1      38.962 -14.905  -2.827  1.00  0.00     0.001 A 
HETATM   29  C   UNL     1      39.451 -14.318  -1.660  1.00  0.00     0.009 A 
ENDBRANCH  23  24
ENDBRANCH  21  23
BRANCH  21  30
HETATM   30  C   UNL     1      41.140 -10.824   0.459  1.00  0.00     0.273 C 
BRANCH  30  31
HETATM   31  C   UNL     1      41.356 -10.009  -0.790  1.00  0.00    -0.033 A 
HETATM   32  C   UNL     1      40.716 -10.366  -1.989  1.00  0.00     0.009 A 
HETATM   33  C   UNL     1      40.927  -9.621  -3.151  1.00  0.00     0.001 A 
HETATM   34  C   UNL     1      41.772  -8.515  -3.126  1.00  0.00     0.000 A 
HETATM   35  C   UNL     1      42.405  -8.146  -1.941  1.00  0.00     0.001 A 
HETATM   36  C   UNL     1      42.196  -8.887  -0.777  1.00  0.00     0.009 A 
ENDBRANCH  30  31
ENDBRANCH  21  30
ENDBRANCH  20  21
ENDBRANCH  17  20
ENDBRANCH  16  17
ENDBRANCH  14  16
BRANCH  13  37
HETATM   37  C   UNL     1      43.638 -17.043   4.548  1.00  0.00     0.203 C 
BRANCH  37  38
HETATM   38  C   UNL     1      43.706 -18.417   3.966  1.00  0.00     0.070 A 
HETATM   39  O   UNL     1      44.002 -19.442   4.823  1.00  0.00    -0.325 OA
HETATM   40  C   UNL     1      43.987 -20.585   4.089  1.00  0.00     0.142 A 
HETATM   41  C   UNL     1      43.688 -20.312   2.776  1.00  0.00     0.027 A 
HETATM   42  C   UNL     1      43.506 -18.910   2.693  1.00  0.00     0.036 A 
ENDBRANCH  37  38
ENDBRANCH  13  37
TORSDOF 11
ENDMDL
MODEL 10
REMARK VINA RESULT:      -8.1      2.484      8.694
REMARK  11 active torsions:
REMARK  status: ('A' for Active; 'I' for Inactive)
REMARK    1  A    between atoms: N_13  and  C_14 
REMARK    2  A    between atoms: C_14  and  C_15 
REMARK    3  A    between atoms: N_20  and  C_21 
REMARK    4  A    between atoms: C_21  and  C_22 
REMARK    5  A    between atoms: C_22  and  O_23 
REMARK    6  A    between atoms: C_22  and  C_24 
REMARK    7  A    between atoms: C_24  and  N_25 
REMARK    8  A    between atoms: N_25  and  C_27 
REMARK    9  A    between atoms: N_25  and  C_34 
REMARK   10  A    between atoms: C_27  and  C_28 
REMARK   11  A    between atoms: C_34  and  C_35 
ROOT
HETATM    1  C   UNL     1      39.902 -14.117  -1.479  1.00  0.00     0.163 C 
HETATM    2  N   UNL     1      39.605 -13.623  -0.145  1.00  0.00    -0.285 N 
HETATM    3  C   UNL     1      38.839 -12.466   0.028  1.00  0.00     0.332 A 
HETATM    4  O   UNL     1      38.404 -11.827  -0.932  1.00  0.00    -0.246 OA
HETATM    5  N   UNL     1      38.605 -12.047   1.356  1.00  0.00    -0.269 N 
HETATM    6  C   UNL     1      37.827 -10.838   1.552  1.00  0.00     0.164 C 
HETATM    7  C   UNL     1      39.169 -12.620   2.494  1.00  0.00     0.282 A 
HETATM    8  O   UNL     1      39.100 -12.150   3.628  1.00  0.00    -0.265 OA
HETATM    9  C   UNL     1      39.903 -13.803   2.217  1.00  0.00     0.166 A 
HETATM   10  C   UNL     1      40.115 -14.266   0.957  1.00  0.00     0.186 A 
HETATM   11  N   UNL     1      40.918 -15.361   0.954  1.00  0.00    -0.044 NA
HETATM   12  C   UNL     1      41.196 -15.596   2.219  1.00  0.00     0.705 A 
HETATM   13  N   UNL     1      42.008 -16.553   2.713  1.00  0.00    -0.218 N 
HETATM   14  N   UNL     1      40.586 -14.665   3.034  1.00  0.00    -0.170 N 
HETATM   15  H   UNL     1      41.809 -16.977   3.614  1.00  0.00     0.178 HD
ENDROOT
BRANCH  14  16
HETATM   16  C   UNL     1      40.740 -14.510   4.472  1.00  0.00     0.181 C 
BRANCH  16  17
HETATM   17  C   UNL     1      41.957 -13.638   4.801  1.00  0.00     0.163 C 
BRANCH  17  18
HETATM   18  O   UNL     1      43.123 -14.110   4.120  1.00  0.00    -0.392 OA
HETATM   19  H   UNL     1      43.777 -14.401   4.793  1.00  0.00     0.210 HD
ENDBRANCH  17  18
BRANCH  17  20
HETATM   20  C   UNL     1      42.232 -13.543   6.318  1.00  0.00     0.268 C 
BRANCH  20  21
HETATM   21  N   UNL     1      42.660 -12.164   6.833  1.00  0.00    -0.061 N 
HETATM   22  H   UNL     1      42.213 -11.987   7.735  1.00  0.00     0.280 HD
BRANCH  21  23
HETATM   23  C   UNL     1      44.163 -12.064   7.060  1.00  0.00     0.273 C 
BRANCH  23  24
HETATM   24  C   UNL     1      44.597 -10.978   8.010  1.00  0.00    -0.033 A 
HETATM   25  C   UNL     1      43.908 -10.759   9.213  1.00  0.00     0.009 A 
HETATM   26  C   UNL     1      44.308  -9.739  10.079  1.00  0.00     0.001 A 
HETATM   27  C   UNL     1      45.399  -8.935   9.753  1.00  0.00     0.000 A 
HETATM   28  C   UNL     1      46.095  -9.149   8.567  1.00  0.00     0.001 A 
HETATM   29  C   UNL     1      45.698 -10.165   7.697  1.00  0.00     0.009 A 
ENDBRANCH  23  24
ENDBRANCH  21  23
BRANCH  21  30
HETATM   30  C   UNL     1      42.145 -11.070   5.901  1.00  0.00     0.273 C 
BRANCH  30  31
HETATM   31  C   UNL     1      41.536  -9.904   6.635  1.00  0.00    -0.033 A 
HETATM   32  C   UNL     1      42.217  -8.677   6.707  1.00  0.00     0.009 A 
HETATM   33  C   UNL     1      41.660  -7.600   7.400  1.00  0.00     0.001 A 
HETATM   34  C   UNL     1      40.422  -7.737   8.023  1.00  0.00     0.000 A 
HETATM   35  C   UNL     1      39.733  -8.946   7.950  1.00  0.00     0.001 A 
HETATM   36  C   UNL     1      40.285 -10.025   7.258  1.00  0.00     0.009 A 
ENDBRANCH  30  31
ENDBRANCH  21  30
ENDBRANCH  20  21
ENDBRANCH  17  20
ENDBRANCH  16  17
ENDBRANCH  14  16
BRANCH  13  37
HETATM   37  C   UNL     1      42.439 -17.598   1.776  1.00  0.00     0.203 C 
BRANCH  37  38
HETATM   38  C   UNL     1      43.058 -18.779   2.450  1.00  0.00     0.070 A 
HETATM   39  O   UNL     1      43.600 -18.575   3.691  1.00  0.00    -0.325 OA
HETATM   40  C   UNL     1      44.076 -19.774   4.113  1.00  0.00     0.142 A 
HETATM   41  C   UNL     1      43.851 -20.745   3.166  1.00  0.00     0.027 A 
HETATM   42  C   UNL     1      43.193 -20.103   2.090  1.00  0.00     0.036 A 
ENDBRANCH  37  38
ENDBRANCH  13  37
TORSDOF 11
ENDMDL
