MODEL 1
REMARK VINA RESULT:      -7.9      0.000      0.000
REMARK  6 active torsions:
REMARK  status: ('A' for Active; 'I' for Inactive)
REMARK    1  A    between atoms: C_2  and  N_3 
REMARK    2  A    between atoms: C_2  and  C_11 
REMARK       I    between atoms: N_3  and  C_4 
REMARK    3  A    between atoms: C_4  and  C_5 
REMARK    4  A    between atoms: C_14  and  O_15 
REMARK    5  A    between atoms: O_15  and  C_16 
REMARK    6  A    between atoms: C_16  and  C_17 
ROOT
HETATM    1  C   UNL     1      43.775 -12.545   6.061  1.00  0.00    -0.036 A 
HETATM    2  C   UNL     1      43.136 -12.566   4.810  1.00  0.00     0.012 A 
HETATM    3  C   UNL     1      42.713 -13.767   4.230  1.00  0.00     0.037 A 
HETATM    4  C   UNL     1      42.922 -14.973   4.893  1.00  0.00     0.069 A 
HETATM    5  C   UNL     1      43.515 -14.961   6.156  1.00  0.00     0.037 A 
HETATM    6  C   UNL     1      43.937 -13.760   6.739  1.00  0.00     0.012 A 
ENDROOT
BRANCH   1   7
HETATM    7  C   UNL     1      44.222 -11.210   6.627  1.00  0.00     0.113 C 
HETATM    8  C   UNL     1      45.740 -11.023   6.714  1.00  0.00     0.037 C 
BRANCH   7   9
HETATM    9  N   UNL     1      43.617 -11.016   7.934  1.00  0.00    -0.352 N 
HETATM   10  C   UNL     1      43.167  -9.788   8.343  1.00  0.00     0.225 C 
HETATM   11  O   UNL     1      43.141  -8.786   7.643  1.00  0.00    -0.273 OA
HETATM   12  H   UNL     1      43.653 -11.788   8.587  1.00  0.00     0.163 HD
BRANCH  10  13
HETATM   13  C   UNL     1      42.689  -9.754   9.740  1.00  0.00     0.119 A 
HETATM   14  C   UNL     1      43.675  -9.772  10.879  1.00  0.00     0.126 A 
HETATM   15 CL   UNL     1      43.234 -10.703  12.311  1.00  0.00    -0.101 Cl
HETATM   16 CL   UNL     1      45.403  -9.755  10.573  1.00  0.00    -0.101 Cl
HETATM   17  C   UNL     1      42.895  -8.522  10.593  1.00  0.00     0.060 A 
ENDBRANCH  10  13
ENDBRANCH   7   9
ENDBRANCH   1   7
BRANCH   4  18
HETATM   18  O   UNL     1      42.587 -16.214   4.425  1.00  0.00    -0.347 OA
BRANCH  18  19
HETATM   19  C   UNL     1      43.226 -16.636   3.219  1.00  0.00     0.215 C 
BRANCH  19  20
HETATM   20  C   UNL     1      43.488 -18.116   3.276  1.00  0.00    -0.017 A 
HETATM   21  C   UNL     1      44.001 -18.719   4.419  1.00  0.00     0.125 A 
HETATM   22  N   UNL     1      44.222 -20.049   4.544  1.00  0.00    -0.272 NA
HETATM   23  C   UNL     1      43.917 -20.819   3.478  1.00  0.00     0.116 A 
HETATM   24  C   UNL     1      43.392 -20.321   2.297  1.00  0.00     0.020 A 
HETATM   25  C   UNL     1      43.170 -18.951   2.199  1.00  0.00     0.012 A 
ENDBRANCH  19  20
ENDBRANCH  18  19
ENDBRANCH   4  18
TORSDOF 6
ENDMDL
MODEL 2
REMARK VINA RESULT:      -7.8      6.012      7.854
REMARK  6 active torsions:
REMARK  status: ('A' for Active; 'I' for Inactive)
REMARK    1  A    between atoms: C_2  and  N_3 
REMARK    2  A    between atoms: C_2  and  C_11 
REMARK       I    between atoms: N_3  and  C_4 
REMARK    3  A    between atoms: C_4  and  C_5 
REMARK    4  A    between atoms: C_14  and  O_15 
REMARK    5  A    between atoms: O_15  and  C_16 
REMARK    6  A    between atoms: C_16  and  C_17 
ROOT
HETATM    1  C   UNL     1      40.728 -13.911   3.113  1.00  0.00    -0.036 A 
HETATM    2  C   UNL     1      41.916 -13.516   3.752  1.00  0.00     0.012 A 
HETATM    3  C   UNL     1      42.660 -14.417   4.522  1.00  0.00     0.037 A 
HETATM    4  C   UNL     1      42.229 -15.733   4.667  1.00  0.00     0.069 A 
HETATM    5  C   UNL     1      41.075 -16.148   4.001  1.00  0.00     0.037 A 
HETATM    6  C   UNL     1      40.330 -15.249   3.228  1.00  0.00     0.012 A 
ENDROOT
BRANCH   1   7
HETATM    7  C   UNL     1      39.960 -12.881   2.305  1.00  0.00     0.113 C 
HETATM    8  C   UNL     1      38.838 -12.170   3.067  1.00  0.00     0.037 C 
BRANCH   7   9
HETATM    9  N   UNL     1      39.432 -13.510   1.105  1.00  0.00    -0.352 N 
HETATM   10  C   UNL     1      40.117 -13.481  -0.081  1.00  0.00     0.225 C 
HETATM   11  O   UNL     1      41.243 -13.027  -0.227  1.00  0.00    -0.273 OA
HETATM   12  H   UNL     1      38.483 -13.858   1.136  1.00  0.00     0.163 HD
BRANCH  10  13
HETATM   13  C   UNL     1      39.379 -14.067  -1.219  1.00  0.00     0.119 A 
HETATM   14  C   UNL     1      38.772 -13.174  -2.268  1.00  0.00     0.126 A 
HETATM   15 CL   UNL     1      37.204 -13.651  -2.923  1.00  0.00    -0.101 Cl
HETATM   16 CL   UNL     1      38.991 -11.434  -2.206  1.00  0.00    -0.101 Cl
HETATM   17  C   UNL     1      39.959 -14.024  -2.615  1.00  0.00     0.060 A 
ENDBRANCH  10  13
ENDBRANCH   7   9
ENDBRANCH   1   7
BRANCH   4  18
HETATM   18  O   UNL     1      42.844 -16.700   5.414  1.00  0.00    -0.347 OA
BRANCH  18  19
HETATM   19  C   UNL     1      44.138 -17.119   4.978  1.00  0.00     0.215 C 
BRANCH  19  20
HETATM   20  C   UNL     1      44.030 -18.444   4.275  1.00  0.00    -0.017 A 
HETATM   21  C   UNL     1      44.162 -19.645   4.964  1.00  0.00     0.125 A 
HETATM   22  N   UNL     1      44.037 -20.867   4.396  1.00  0.00    -0.272 NA
HETATM   23  C   UNL     1      43.767 -20.898   3.074  1.00  0.00     0.116 A 
HETATM   24  C   UNL     1      43.607 -19.763   2.296  1.00  0.00     0.020 A 
HETATM   25  C   UNL     1      43.734 -18.520   2.909  1.00  0.00     0.012 A 
ENDBRANCH  19  20
ENDBRANCH  18  19
ENDBRANCH   4  18
TORSDOF 6
ENDMDL
MODEL 3
REMARK VINA RESULT:      -7.6      1.577      2.138
REMARK  6 active torsions:
REMARK  status: ('A' for Active; 'I' for Inactive)
REMARK    1  A    between atoms: C_2  and  N_3 
REMARK    2  A    between atoms: C_2  and  C_11 
REMARK       I    between atoms: N_3  and  C_4 
REMARK    3  A    between atoms: C_4  and  C_5 
REMARK    4  A    between atoms: C_14  and  O_15 
REMARK    5  A    between atoms: O_15  and  C_16 
REMARK    6  A    between atoms: C_16  and  C_17 
ROOT
HETATM    1  C   UNL     1      44.334 -11.744   6.267  1.00  0.00    -0.036 A 
HETATM    2  C   UNL     1      43.916 -12.826   7.061  1.00  0.00     0.012 A 
HETATM    3  C   UNL     1      43.045 -13.800   6.561  1.00  0.00     0.037 A 
HETATM    4  C   UNL     1      42.575 -13.710   5.253  1.00  0.00     0.069 A 
HETATM    5  C   UNL     1      43.018 -12.665   4.442  1.00  0.00     0.037 A 
HETATM    6  C   UNL     1      43.891 -11.690   4.940  1.00  0.00     0.012 A 
ENDROOT
BRANCH   1   7
HETATM    7  C   UNL     1      45.268 -10.714   6.876  1.00  0.00     0.113 C 
HETATM    8  C   UNL     1      46.759 -11.000   6.677  1.00  0.00     0.037 C 
BRANCH   7   9
HETATM    9  N   UNL     1      44.969 -10.572   8.291  1.00  0.00    -0.352 N 
HETATM   10  C   UNL     1      45.114  -9.373   8.939  1.00  0.00     0.225 C 
HETATM   11  O   UNL     1      45.406  -8.317   8.396  1.00  0.00    -0.273 OA
HETATM   12  H   UNL     1      44.773 -11.413   8.816  1.00  0.00     0.163 HD
BRANCH  10  13
HETATM   13  C   UNL     1      44.877  -9.441  10.395  1.00  0.00     0.119 A 
HETATM   14  C   UNL     1      43.539  -9.045  10.963  1.00  0.00     0.126 A 
HETATM   15 CL   UNL     1      43.541  -8.181  12.501  1.00  0.00    -0.101 Cl
HETATM   16 CL   UNL     1      42.218  -8.571   9.909  1.00  0.00    -0.101 Cl
HETATM   17  C   UNL     1      43.951 -10.488  10.974  1.00  0.00     0.060 A 
ENDBRANCH  10  13
ENDBRANCH   7   9
ENDBRANCH   1   7
BRANCH   4  18
HETATM   18  O   UNL     1      41.699 -14.573   4.655  1.00  0.00    -0.347 OA
BRANCH  18  19
HETATM   19  C   UNL     1      41.620 -15.888   5.207  1.00  0.00     0.215 C 
BRANCH  19  20
HETATM   20  C   UNL     1      42.480 -16.826   4.404  1.00  0.00    -0.017 A 
HETATM   21  C   UNL     1      43.461 -17.607   5.006  1.00  0.00     0.125 A 
HETATM   22  N   UNL     1      44.239 -18.496   4.344  1.00  0.00    -0.272 NA
HETATM   23  C   UNL     1      44.032 -18.613   3.015  1.00  0.00     0.116 A 
HETATM   24  C   UNL     1      43.076 -17.891   2.320  1.00  0.00     0.020 A 
HETATM   25  C   UNL     1      42.286 -16.990   3.028  1.00  0.00     0.012 A 
ENDBRANCH  19  20
ENDBRANCH  18  19
ENDBRANCH   4  18
TORSDOF 6
ENDMDL
MODEL 4
REMARK VINA RESULT:      -7.3      4.041      9.119
REMARK  6 active torsions:
REMARK  status: ('A' for Active; 'I' for Inactive)
REMARK    1  A    between atoms: C_2  and  N_3 
REMARK    2  A    between atoms: C_2  and  C_11 
REMARK       I    between atoms: N_3  and  C_4 
REMARK    3  A    between atoms: C_4  and  C_5 
REMARK    4  A    between atoms: C_14  and  O_15 
REMARK    5  A    between atoms: O_15  and  C_16 
REMARK    6  A    between atoms: C_16  and  C_17 
ROOT
HETATM    1  C   UNL     1      42.267 -12.466   5.999  1.00  0.00    -0.036 A 
HETATM    2  C   UNL     1      41.961 -11.099   6.108  1.00  0.00     0.012 A 
HETATM    3  C   UNL     1      42.846 -10.204   6.721  1.00  0.00     0.037 A 
HETATM    4  C   UNL     1      44.056 -10.662   7.236  1.00  0.00     0.069 A 
HETATM    5  C   UNL     1      44.390 -12.009   7.093  1.00  0.00     0.037 A 
HETATM    6  C   UNL     1      43.507 -12.905   6.479  1.00  0.00     0.012 A 
ENDROOT
BRANCH   1   7
HETATM    7  C   UNL     1      41.258 -13.386   5.336  1.00  0.00     0.113 C 
HETATM    8  C   UNL     1      39.954 -13.579   6.115  1.00  0.00     0.037 C 
BRANCH   7   9
HETATM    9  N   UNL     1      41.881 -14.672   5.074  1.00  0.00    -0.352 N 
HETATM   10  C   UNL     1      41.562 -15.413   3.966  1.00  0.00     0.225 C 
HETATM   11  O   UNL     1      40.821 -15.041   3.068  1.00  0.00    -0.273 OA
HETATM   12  H   UNL     1      42.464 -15.068   5.800  1.00  0.00     0.163 HD
BRANCH  10  13
HETATM   13  C   UNL     1      42.205 -16.742   3.923  1.00  0.00     0.119 A 
HETATM   14  C   UNL     1      43.114 -17.106   2.778  1.00  0.00     0.126 A 
HETATM   15 CL   UNL     1      43.036 -18.765   2.183  1.00  0.00    -0.101 Cl
HETATM   16 CL   UNL     1      43.487 -15.941   1.519  1.00  0.00    -0.101 Cl
HETATM   17  C   UNL     1      43.695 -16.882   4.142  1.00  0.00     0.060 A 
ENDBRANCH  10  13
ENDBRANCH   7   9
ENDBRANCH   1   7
BRANCH   4  18
HETATM   18  O   UNL     1      44.990  -9.901   7.884  1.00  0.00    -0.347 OA
BRANCH  18  19
HETATM   19  C   UNL     1      45.394 -10.349   9.179  1.00  0.00     0.215 C 
BRANCH  19  20
HETATM   20  C   UNL     1      44.387  -9.906  10.204  1.00  0.00    -0.017 A 
HETATM   21  C   UNL     1      43.875 -10.788  11.150  1.00  0.00     0.125 A 
HETATM   22  N   UNL     1      42.998 -10.441  12.120  1.00  0.00    -0.272 NA
HETATM   23  C   UNL     1      42.608  -9.149  12.152  1.00  0.00     0.116 A 
HETATM   24  C   UNL     1      43.063  -8.187  11.265  1.00  0.00     0.020 A 
HETATM   25  C   UNL     1      43.970  -8.572  10.282  1.00  0.00     0.012 A 
ENDBRANCH  19  20
ENDBRANCH  18  19
ENDBRANCH   4  18
TORSDOF 6
ENDMDL
MODEL 5
REMARK VINA RESULT:      -7.1      4.270      9.193
REMARK  6 active torsions:
REMARK  status: ('A' for Active; 'I' for Inactive)
REMARK    1  A    between atoms: C_2  and  N_3 
REMARK    2  A    between atoms: C_2  and  C_11 
REMARK       I    between atoms: N_3  and  C_4 
REMARK    3  A    between atoms: C_4  and  C_5 
REMARK    4  A    between atoms: C_14  and  O_15 
REMARK    5  A    between atoms: O_15  and  C_16 
REMARK    6  A    between atoms: C_16  and  C_17 
ROOT
HETATM    1  C   UNL     1      42.326 -12.418   6.099  1.00  0.00    -0.036 A 
HETATM    2  C   UNL     1      42.011 -11.049   6.113  1.00  0.00     0.012 A 
HETATM    3  C   UNL     1      42.825 -10.124   6.775  1.00  0.00     0.037 A 
HETATM    4  C   UNL     1      43.974 -10.553   7.437  1.00  0.00     0.069 A 
HETATM    5  C   UNL     1      44.320 -11.903   7.391  1.00  0.00     0.037 A 
HETATM    6  C   UNL     1      43.508 -12.830   6.727  1.00  0.00     0.012 A 
ENDROOT
BRANCH   1   7
HETATM    7  C   UNL     1      41.393 -13.371   5.374  1.00  0.00     0.113 C 
HETATM    8  C   UNL     1      40.300 -13.991   6.249  1.00  0.00     0.037 C 
BRANCH   7   9
HETATM    9  N   UNL     1      42.176 -14.415   4.734  1.00  0.00    -0.352 N 
HETATM   10  C   UNL     1      42.661 -14.270   3.461  1.00  0.00     0.225 C 
HETATM   11  O   UNL     1      42.574 -13.250   2.793  1.00  0.00    -0.273 OA
HETATM   12  H   UNL     1      42.243 -15.307   5.206  1.00  0.00     0.163 HD
BRANCH  10  13
HETATM   13  C   UNL     1      43.333 -15.473   2.930  1.00  0.00     0.119 A 
HETATM   14  C   UNL     1      42.527 -16.563   2.273  1.00  0.00     0.126 A 
HETATM   15 CL   UNL     1      43.027 -18.228   2.573  1.00  0.00    -0.101 Cl
HETATM   16 CL   UNL     1      40.794 -16.393   2.054  1.00  0.00    -0.101 Cl
HETATM   17  C   UNL     1      43.431 -15.704   1.438  1.00  0.00     0.060 A 
ENDBRANCH  10  13
ENDBRANCH   7   9
ENDBRANCH   1   7
BRANCH   4  18
HETATM   18  O   UNL     1      44.834  -9.760   8.145  1.00  0.00    -0.347 OA
BRANCH  18  19
HETATM   19  C   UNL     1      45.283 -10.267   9.402  1.00  0.00     0.215 C 
BRANCH  19  20
HETATM   20  C   UNL     1      44.326  -9.855  10.486  1.00  0.00    -0.017 A 
HETATM   21  C   UNL     1      43.872  -8.544  10.595  1.00  0.00     0.125 A 
HETATM   22  N   UNL     1      42.983  -8.121  11.524  1.00  0.00    -0.272 NA
HETATM   23  C   UNL     1      42.520  -9.048  12.389  1.00  0.00     0.116 A 
HETATM   24  C   UNL     1      42.898 -10.381  12.361  1.00  0.00     0.020 A 
HETATM   25  C   UNL     1      43.809 -10.788  11.392  1.00  0.00     0.012 A 
ENDBRANCH  19  20
ENDBRANCH  18  19
ENDBRANCH   4  18
TORSDOF 6
ENDMDL
MODEL 6
REMARK VINA RESULT:      -7.1      2.518      2.914
REMARK  6 active torsions:
REMARK  status: ('A' for Active; 'I' for Inactive)
REMARK    1  A    between atoms: C_2  and  N_3 
REMARK    2  A    between atoms: C_2  and  C_11 
REMARK       I    between atoms: N_3  and  C_4 
REMARK    3  A    between atoms: C_4  and  C_5 
REMARK    4  A    between atoms: C_14  and  O_15 
REMARK    5  A    between atoms: O_15  and  C_16 
REMARK    6  A    between atoms: C_16  and  C_17 
ROOT
HETATM    1  C   UNL     1      43.423 -12.181   6.714  1.00  0.00    -0.036 A 
HETATM    2  C   UNL     1      42.186 -11.850   6.136  1.00  0.00     0.012 A 
HETATM    3  C   UNL     1      41.221 -12.829   5.877  1.00  0.00     0.037 A 
HETATM    4  C   UNL     1      41.476 -14.161   6.192  1.00  0.00     0.069 A 
HETATM    5  C   UNL     1      42.683 -14.495   6.807  1.00  0.00     0.037 A 
HETATM    6  C   UNL     1      43.650 -13.516   7.069  1.00  0.00     0.012 A 
ENDROOT
BRANCH   1   7
HETATM    7  C   UNL     1      44.433 -11.073   6.956  1.00  0.00     0.113 C 
HETATM    8  C   UNL     1      45.830 -11.340   6.391  1.00  0.00     0.037 C 
BRANCH   7   9
HETATM    9  N   UNL     1      44.512 -10.799   8.381  1.00  0.00    -0.352 N 
HETATM   10  C   UNL     1      44.031  -9.633   8.916  1.00  0.00     0.225 C 
HETATM   11  O   UNL     1      43.423  -8.776   8.291  1.00  0.00    -0.273 OA
HETATM   12  H   UNL     1      45.049 -11.438   8.953  1.00  0.00     0.163 HD
BRANCH  10  13
HETATM   13  C   UNL     1      44.300  -9.475  10.360  1.00  0.00     0.119 A 
HETATM   14  C   UNL     1      43.157  -9.334  11.332  1.00  0.00     0.126 A 
HETATM   15 CL   UNL     1      43.378  -8.217  12.679  1.00  0.00    -0.101 Cl
HETATM   16 CL   UNL     1      41.493  -9.431  10.784  1.00  0.00    -0.101 Cl
HETATM   17  C   UNL     1      43.976 -10.591  11.328  1.00  0.00     0.060 A 
ENDBRANCH  10  13
ENDBRANCH   7   9
ENDBRANCH   1   7
BRANCH   4  18
HETATM   18  O   UNL     1      40.635 -15.214   5.962  1.00  0.00    -0.347 OA
BRANCH  18  19
HETATM   19  C   UNL     1      41.215 -16.381   5.376  1.00  0.00     0.215 C 
BRANCH  19  20
HETATM   20  C   UNL     1      41.495 -16.129   3.919  1.00  0.00    -0.017 A 
HETATM   21  C   UNL     1      40.479 -15.787   3.033  1.00  0.00     0.125 A 
HETATM   22  N   UNL     1      40.673 -15.511   1.722  1.00  0.00    -0.272 NA
HETATM   23  C   UNL     1      41.942 -15.581   1.268  1.00  0.00     0.116 A 
HETATM   24  C   UNL     1      43.027 -15.903   2.066  1.00  0.00     0.020 A 
HETATM   25  C   UNL     1      42.798 -16.175   3.412  1.00  0.00     0.012 A 
ENDBRANCH  19  20
ENDBRANCH  18  19
ENDBRANCH   4  18
TORSDOF 6
ENDMDL
MODEL 7
REMARK VINA RESULT:      -7.1      2.422      3.713
REMARK  6 active torsions:
REMARK  status: ('A' for Active; 'I' for Inactive)
REMARK    1  A    between atoms: C_2  and  N_3 
REMARK    2  A    between atoms: C_2  and  C_11 
REMARK       I    between atoms: N_3  and  C_4 
REMARK    3  A    between atoms: C_4  and  C_5 
REMARK    4  A    between atoms: C_14  and  O_15 
REMARK    5  A    between atoms: O_15  and  C_16 
REMARK    6  A    between atoms: C_16  and  C_17 
ROOT
HETATM    1  C   UNL     1      43.891 -10.337   8.025  1.00  0.00    -0.036 A 
HETATM    2  C   UNL     1      45.075 -10.945   7.575  1.00  0.00     0.012 A 
HETATM    3  C   UNL     1      45.147 -11.548   6.314  1.00  0.00     0.037 A 
HETATM    4  C   UNL     1      44.033 -11.552   5.478  1.00  0.00     0.069 A 
HETATM    5  C   UNL     1      42.867 -10.911   5.897  1.00  0.00     0.037 A 
HETATM    6  C   UNL     1      42.793 -10.306   7.157  1.00  0.00     0.012 A 
ENDROOT
BRANCH   1   7
HETATM    7  C   UNL     1      43.875  -9.714   9.409  1.00  0.00     0.113 C 
HETATM    8  C   UNL     1      44.990 -10.193  10.344  1.00  0.00     0.037 C 
BRANCH   7   9
HETATM    9  N   UNL     1      42.576  -9.938  10.021  1.00  0.00    -0.352 N 
HETATM   10  C   UNL     1      41.759  -8.896  10.375  1.00  0.00     0.225 C 
HETATM   11  O   UNL     1      41.986  -7.720  10.135  1.00  0.00    -0.273 OA
HETATM   12  H   UNL     1      42.345 -10.883  10.298  1.00  0.00     0.163 HD
BRANCH  10  13
HETATM   13  C   UNL     1      40.532  -9.307  11.087  1.00  0.00     0.119 A 
HETATM   14  C   UNL     1      40.581  -9.625  12.559  1.00  0.00     0.126 A 
HETATM   15 CL   UNL     1      39.582 -10.963  13.128  1.00  0.00    -0.101 Cl
HETATM   16 CL   UNL     1      42.071  -9.443  13.470  1.00  0.00    -0.101 Cl
HETATM   17  C   UNL     1      39.882  -8.383  12.093  1.00  0.00     0.060 A 
ENDBRANCH  10  13
ENDBRANCH   7   9
ENDBRANCH   1   7
BRANCH   4  18
HETATM   18  O   UNL     1      43.962 -12.131   4.241  1.00  0.00    -0.347 OA
BRANCH  18  19
HETATM   19  C   UNL     1      42.716 -12.734   3.888  1.00  0.00     0.215 C 
BRANCH  19  20
HETATM   20  C   UNL     1      42.952 -14.139   3.406  1.00  0.00    -0.017 A 
HETATM   21  C   UNL     1      42.885 -15.225   4.273  1.00  0.00     0.125 A 
HETATM   22  N   UNL     1      43.049 -16.514   3.893  1.00  0.00    -0.272 NA
HETATM   23  C   UNL     1      43.294 -16.735   2.584  1.00  0.00     0.116 A 
HETATM   24  C   UNL     1      43.372 -15.728   1.637  1.00  0.00     0.020 A 
HETATM   25  C   UNL     1      43.192 -14.413   2.055  1.00  0.00     0.012 A 
ENDBRANCH  19  20
ENDBRANCH  18  19
ENDBRANCH   4  18
TORSDOF 6
ENDMDL
MODEL 8
REMARK VINA RESULT:      -6.9      7.166     11.128
REMARK  6 active torsions:
REMARK  status: ('A' for Active; 'I' for Inactive)
REMARK    1  A    between atoms: C_2  and  N_3 
REMARK    2  A    between atoms: C_2  and  C_11 
REMARK       I    between atoms: N_3  and  C_4 
REMARK    3  A    between atoms: C_4  and  C_5 
REMARK    4  A    between atoms: C_14  and  O_15 
REMARK    5  A    between atoms: O_15  and  C_16 
REMARK    6  A    between atoms: C_16  and  C_17 
ROOT
HETATM    1  C   UNL     1      41.440  -7.637  15.702  1.00  0.00    -0.036 A 
HETATM    2  C   UNL     1      42.461  -6.756  15.308  1.00  0.00     0.012 A 
HETATM    3  C   UNL     1      43.234  -7.004  14.168  1.00  0.00     0.037 A 
HETATM    4  C   UNL     1      42.999  -8.141  13.399  1.00  0.00     0.069 A 
HETATM    5  C   UNL     1      41.959  -9.000  13.756  1.00  0.00     0.037 A 
HETATM    6  C   UNL     1      41.182  -8.752  14.895  1.00  0.00     0.012 A 
ENDROOT
BRANCH   1   7
HETATM    7  C   UNL     1      40.648  -7.317  16.956  1.00  0.00     0.113 C 
HETATM    8  C   UNL     1      40.576  -5.830  17.311  1.00  0.00     0.037 C 
BRANCH   7   9
HETATM    9  N   UNL     1      41.191  -8.074  18.072  1.00  0.00    -0.352 N 
HETATM   10  C   UNL     1      40.400  -8.486  19.113  1.00  0.00     0.225 C 
HETATM   11  O   UNL     1      39.187  -8.350  19.164  1.00  0.00    -0.273 OA
HETATM   12  H   UNL     1      42.196  -8.177  18.124  1.00  0.00     0.163 HD
BRANCH  10  13
HETATM   13  C   UNL     1      41.141  -9.140  20.211  1.00  0.00     0.119 A 
HETATM   14  C   UNL     1      42.213  -8.387  20.955  1.00  0.00     0.126 A 
HETATM   15 CL   UNL     1      43.649  -9.292  21.433  1.00  0.00    -0.101 Cl
HETATM   16 CL   UNL     1      42.550  -6.704  20.589  1.00  0.00    -0.101 Cl
HETATM   17  C   UNL     1      40.922  -8.714  21.646  1.00  0.00     0.060 A 
ENDBRANCH  10  13
ENDBRANCH   7   9
ENDBRANCH   1   7
BRANCH   4  18
HETATM   18  O   UNL     1      43.700  -8.515  12.286  1.00  0.00    -0.347 OA
BRANCH  18  19
HETATM   19  C   UNL     1      43.168  -9.604  11.530  1.00  0.00     0.215 C 
BRANCH  19  20
HETATM   20  C   UNL     1      44.043  -9.867  10.336  1.00  0.00    -0.017 A 
HETATM   21  C   UNL     1      43.792 -10.926   9.470  1.00  0.00     0.125 A 
HETATM   22  N   UNL     1      44.520 -11.190   8.359  1.00  0.00    -0.272 NA
HETATM   23  C   UNL     1      45.550 -10.359   8.096  1.00  0.00     0.116 A 
HETATM   24  C   UNL     1      45.880  -9.271   8.886  1.00  0.00     0.020 A 
HETATM   25  C   UNL     1      45.111  -9.020  10.018  1.00  0.00     0.012 A 
ENDBRANCH  19  20
ENDBRANCH  18  19
ENDBRANCH   4  18
TORSDOF 6
ENDMDL
MODEL 9
REMARK VINA RESULT:      -6.7      3.812      8.943
REMARK  6 active torsions:
REMARK  status: ('A' for Active; 'I' for Inactive)
REMARK    1  A    between atoms: C_2  and  N_3 
REMARK    2  A    between atoms: C_2  and  C_11 
REMARK       I    between atoms: N_3  and  C_4 
REMARK    3  A    between atoms: C_4  and  C_5 
REMARK    4  A    between atoms: C_14  and  O_15 
REMARK    5  A    between atoms: O_15  and  C_16 
REMARK    6  A    between atoms: C_16  and  C_17 
ROOT
HETATM    1  C   UNL     1      42.414 -13.700   6.248  1.00  0.00    -0.036 A 
HETATM    2  C   UNL     1      42.024 -12.423   5.812  1.00  0.00     0.012 A 
HETATM    3  C   UNL     1      42.888 -11.326   5.910  1.00  0.00     0.037 A 
HETATM    4  C   UNL     1      44.162 -11.488   6.448  1.00  0.00     0.069 A 
HETATM    5  C   UNL     1      44.576 -12.761   6.843  1.00  0.00     0.037 A 
HETATM    6  C   UNL     1      43.714 -13.859   6.744  1.00  0.00     0.012 A 
ENDROOT
BRANCH   1   7
HETATM    7  C   UNL     1      41.424 -14.844   6.127  1.00  0.00     0.113 C 
HETATM    8  C   UNL     1      41.776 -16.090   6.944  1.00  0.00     0.037 C 
BRANCH   7   9
HETATM    9  N   UNL     1      41.263 -15.192   4.725  1.00  0.00    -0.352 N 
HETATM   10  C   UNL     1      42.217 -15.907   4.048  1.00  0.00     0.225 C 
HETATM   11  O   UNL     1      43.217 -16.391   4.557  1.00  0.00    -0.273 OA
HETATM   12  H   UNL     1      40.486 -14.781   4.225  1.00  0.00     0.163 HD
BRANCH  10  13
HETATM   13  C   UNL     1      41.940 -16.069   2.607  1.00  0.00     0.119 A 
HETATM   14  C   UNL     1      42.038 -14.886   1.679  1.00  0.00     0.126 A 
HETATM   15 CL   UNL     1      40.846 -14.776   0.384  1.00  0.00    -0.101 Cl
HETATM   16 CL   UNL     1      42.556 -13.317   2.273  1.00  0.00    -0.101 Cl
HETATM   17  C   UNL     1      43.060 -15.981   1.594  1.00  0.00     0.060 A 
ENDBRANCH  10  13
ENDBRANCH   7   9
ENDBRANCH   1   7
BRANCH   4  18
HETATM   18  O   UNL     1      45.087 -10.498   6.629  1.00  0.00    -0.347 OA
BRANCH  18  19
HETATM   19  C   UNL     1      45.776 -10.487   7.880  1.00  0.00     0.215 C 
BRANCH  19  20
HETATM   20  C   UNL     1      45.003  -9.667   8.876  1.00  0.00    -0.017 A 
HETATM   21  C   UNL     1      44.354  -8.495   8.505  1.00  0.00     0.125 A 
HETATM   22  N   UNL     1      43.612  -7.736   9.345  1.00  0.00    -0.272 NA
HETATM   23  C   UNL     1      43.510  -8.165  10.621  1.00  0.00     0.116 A 
HETATM   24  C   UNL     1      44.107  -9.323  11.092  1.00  0.00     0.020 A 
HETATM   25  C   UNL     1      44.859 -10.086  10.204  1.00  0.00     0.012 A 
ENDBRANCH  19  20
ENDBRANCH  18  19
ENDBRANCH   4  18
TORSDOF 6
ENDMDL
MODEL 10
REMARK VINA RESULT:      -6.7      5.284      9.463
REMARK  6 active torsions:
REMARK  status: ('A' for Active; 'I' for Inactive)
REMARK    1  A    between atoms: C_2  and  N_3 
REMARK    2  A    between atoms: C_2  and  C_11 
REMARK       I    between atoms: N_3  and  C_4 
REMARK    3  A    between atoms: C_4  and  C_5 
REMARK    4  A    between atoms: C_14  and  O_15 
REMARK    5  A    between atoms: O_15  and  C_16 
REMARK    6  A    between atoms: C_16  and  C_17 
ROOT
HETATM    1  C   UNL     1      42.765 -14.186   3.399  1.00  0.00    -0.036 A 
HETATM    2  C   UNL     1      43.193 -12.854   3.268  1.00  0.00     0.012 A 
HETATM    3  C   UNL     1      43.573 -12.100   4.383  1.00  0.00     0.037 A 
HETATM    4  C   UNL     1      43.533 -12.667   5.655  1.00  0.00     0.069 A 
HETATM    5  C   UNL     1      43.152 -14.002   5.792  1.00  0.00     0.037 A 
HETATM    6  C   UNL     1      42.773 -14.759   4.677  1.00  0.00     0.012 A 
ENDROOT
BRANCH   1   7
HETATM    7  C   UNL     1      42.352 -14.943   2.150  1.00  0.00     0.113 C 
HETATM    8  C   UNL     1      43.379 -15.960   1.645  1.00  0.00     0.037 C 
BRANCH   7   9
HETATM    9  N   UNL     1      42.027 -13.994   1.099  1.00  0.00    -0.352 N 
HETATM   10  C   UNL     1      40.743 -13.561   0.894  1.00  0.00     0.225 C 
HETATM   11  O   UNL     1      39.790 -13.841   1.606  1.00  0.00    -0.273 OA
HETATM   12  H   UNL     1      42.755 -13.759   0.437  1.00  0.00     0.163 HD
BRANCH  10  13
HETATM   13  C   UNL     1      40.581 -12.690  -0.288  1.00  0.00     0.119 A 
HETATM   14  C   UNL     1      39.897 -13.210  -1.524  1.00  0.00     0.126 A 
HETATM   15 CL   UNL     1      40.549 -12.699  -3.082  1.00  0.00    -0.101 Cl
HETATM   16 CL   UNL     1      39.213 -14.827  -1.561  1.00  0.00    -0.101 Cl
HETATM   17  C   UNL     1      39.214 -12.174  -0.681  1.00  0.00     0.060 A 
ENDBRANCH  10  13
ENDBRANCH   7   9
ENDBRANCH   1   7
BRANCH   4  18
HETATM   18  O   UNL     1      43.846 -12.032   6.825  1.00  0.00    -0.347 OA
BRANCH  18  19
HETATM   19  C   UNL     1      43.473 -10.657   6.927  1.00  0.00     0.215 C 
BRANCH  19  20
HETATM   20  C   UNL     1      43.773 -10.153   8.312  1.00  0.00    -0.017 A 
HETATM   21  C   UNL     1      42.807  -9.505   9.075  1.00  0.00     0.125 A 
HETATM   22  N   UNL     1      43.005  -9.063  10.339  1.00  0.00    -0.272 NA
HETATM   23  C   UNL     1      44.226  -9.276  10.872  1.00  0.00     0.116 A 
HETATM   24  C   UNL     1      45.255  -9.919  10.204  1.00  0.00     0.020 A 
HETATM   25  C   UNL     1      45.021 -10.367   8.908  1.00  0.00     0.012 A 
ENDBRANCH  19  20
ENDBRANCH  18  19
ENDBRANCH   4  18
TORSDOF 6
ENDMDL
