MODEL 1
REMARK VINA RESULT:      -7.7      0.000      0.000
REMARK  6 active torsions:
REMARK  status: ('A' for Active; 'I' for Inactive)
REMARK    1  A    between atoms: C_2  and  N_3 
REMARK    2  A    between atoms: C_4  and  C_20 
REMARK    3  A    between atoms: C_10  and  C_11 
REMARK    4  A    between atoms: C_14  and  C_15 
REMARK    5  A    between atoms: C_15  and  N_16 
REMARK    6  A    between atoms: C_24  and  N_25 
ROOT
HETATM    1  N   UNL     1      42.937 -16.836   3.941  1.00  0.00    -0.327 N 
HETATM    2  C   UNL     1      43.392 -18.092   4.312  1.00  0.00     0.166 A 
HETATM    3  N   UNL     1      43.673 -18.119   5.603  1.00  0.00    -0.225 NA
HETATM    4  C   UNL     1      43.388 -16.870   6.084  1.00  0.00     0.104 A 
HETATM    5  C   UNL     1      43.490 -16.396   7.396  1.00  0.00     0.150 A 
HETATM    6  N   UNL     1      43.170 -15.116   7.694  1.00  0.00    -0.270 NA
HETATM    7  C   UNL     1      42.763 -14.312   6.686  1.00  0.00     0.131 A 
HETATM    8  C   UNL     1      42.627 -14.674   5.337  1.00  0.00     0.021 A 
HETATM    9  C   UNL     1      42.949 -16.020   5.064  1.00  0.00     0.079 A 
ENDROOT
BRANCH   8  10
HETATM   10  C   UNL     1      42.215 -13.686   4.348  1.00  0.00    -0.022 A 
HETATM   11  C   UNL     1      40.883 -13.625   3.910  1.00  0.00     0.013 A 
HETATM   12  C   UNL     1      40.493 -12.715   2.923  1.00  0.00     0.010 A 
HETATM   13  C   UNL     1      41.426 -11.847   2.341  1.00  0.00    -0.031 A 
HETATM   14  C   UNL     1      42.761 -11.926   2.759  1.00  0.00     0.010 A 
HETATM   15  C   UNL     1      43.150 -12.827   3.755  1.00  0.00     0.013 A 
BRANCH  13  16
HETATM   16  C   UNL     1      40.998 -10.927   1.221  1.00  0.00     0.305 C 
BRANCH  16  17
HETATM   17  N   UNL     1      41.658  -9.626   1.268  1.00  0.00     0.082 N 
HETATM   18  H   UNL     1      42.470  -9.648   0.652  1.00  0.00     0.313 HD
HETATM   19  H   UNL     1      42.015  -9.469   2.208  1.00  0.00     0.313 HD
ENDBRANCH  16  17
ENDBRANCH  13  16
ENDBRANCH   8  10
BRANCH   1  20
HETATM   20  C   UNL     1      42.478 -16.465   2.614  1.00  0.00     0.126 C 
HETATM   21  C   UNL     1      43.578 -15.845   1.770  1.00  0.00     0.027 C 
ENDBRANCH   1  20
BRANCH   2  22
HETATM   22  C   UNL     1      43.575 -19.306   3.447  1.00  0.00     0.179 A 
HETATM   23  N   UNL     1      43.357 -19.343   2.130  1.00  0.00    -0.097 NA
HETATM   24  O   UNL     1      43.678 -20.642   1.749  1.00  0.00    -0.104 OA
HETATM   25  N   UNL     1      44.096 -21.401   2.834  1.00  0.00    -0.085 NA
HETATM   26  C   UNL     1      44.019 -20.583   3.881  1.00  0.00     0.186 A 
BRANCH  26  27
HETATM   27  N   UNL     1      44.326 -20.924   5.148  1.00  0.00    -0.380 N 
HETATM   28  H   UNL     1      44.767 -21.813   5.345  1.00  0.00     0.158 HD
HETATM   29  H   UNL     1      44.475 -20.191   5.841  1.00  0.00     0.158 HD
ENDBRANCH  26  27
ENDBRANCH   2  22
TORSDOF 6
ENDMDL
MODEL 2
REMARK VINA RESULT:      -7.5      3.604      7.302
REMARK  6 active torsions:
REMARK  status: ('A' for Active; 'I' for Inactive)
REMARK    1  A    between atoms: C_2  and  N_3 
REMARK    2  A    between atoms: C_4  and  C_20 
REMARK    3  A    between atoms: C_10  and  C_11 
REMARK    4  A    between atoms: C_14  and  C_15 
REMARK    5  A    between atoms: C_15  and  N_16 
REMARK    6  A    between atoms: C_24  and  N_25 
ROOT
HETATM    1  N   UNL     1      43.098 -12.436   5.213  1.00  0.00    -0.327 N 
HETATM    2  C   UNL     1      43.277 -11.255   5.916  1.00  0.00     0.166 A 
HETATM    3  N   UNL     1      42.691 -10.250   5.291  1.00  0.00    -0.225 NA
HETATM    4  C   UNL     1      42.113 -10.781   4.169  1.00  0.00     0.104 A 
HETATM    5  C   UNL     1      41.352 -10.135   3.190  1.00  0.00     0.150 A 
HETATM    6  N   UNL     1      40.860 -10.821   2.134  1.00  0.00    -0.270 NA
HETATM    7  C   UNL     1      41.137 -12.143   2.050  1.00  0.00     0.131 A 
HETATM    8  C   UNL     1      41.889 -12.894   2.966  1.00  0.00     0.021 A 
HETATM    9  C   UNL     1      42.370 -12.152   4.065  1.00  0.00     0.079 A 
ENDROOT
BRANCH   8  10
HETATM   10  C   UNL     1      42.142 -14.308   2.726  1.00  0.00    -0.022 A 
HETATM   11  C   UNL     1      41.349 -15.291   3.338  1.00  0.00     0.013 A 
HETATM   12  C   UNL     1      41.618 -16.650   3.153  1.00  0.00     0.010 A 
HETATM   13  C   UNL     1      42.695 -17.064   2.357  1.00  0.00    -0.031 A 
HETATM   14  C   UNL     1      43.503 -16.083   1.767  1.00  0.00     0.010 A 
HETATM   15  C   UNL     1      43.226 -14.723   1.942  1.00  0.00     0.013 A 
BRANCH  13  16
HETATM   16  C   UNL     1      43.016 -18.535   2.236  1.00  0.00     0.305 C 
BRANCH  16  17
HETATM   17  N   UNL     1      43.803 -19.042   3.355  1.00  0.00     0.082 N 
HETATM   18  H   UNL     1      43.174 -19.479   4.027  1.00  0.00     0.313 HD
HETATM   19  H   UNL     1      44.237 -18.257   3.837  1.00  0.00     0.313 HD
ENDBRANCH  16  17
ENDBRANCH  13  16
ENDBRANCH   8  10
BRANCH   1  20
HETATM   20  C   UNL     1      43.552 -13.747   5.639  1.00  0.00     0.126 C 
HETATM   21  C   UNL     1      42.613 -14.390   6.645  1.00  0.00     0.027 C 
ENDBRANCH   1  20
BRANCH   2  22
HETATM   22  C   UNL     1      44.014 -11.047   7.210  1.00  0.00     0.179 A 
HETATM   23  N   UNL     1      43.432 -10.881   8.400  1.00  0.00    -0.097 NA
HETATM   24  O   UNL     1      44.484 -10.755   9.300  1.00  0.00    -0.104 OA
HETATM   25  N   UNL     1      45.714 -10.847   8.660  1.00  0.00    -0.085 NA
HETATM   26  C   UNL     1      45.424 -11.012   7.372  1.00  0.00     0.186 A 
BRANCH  26  27
HETATM   27  N   UNL     1      46.336 -11.136   6.388  1.00  0.00    -0.380 N 
HETATM   28  H   UNL     1      46.053 -11.067   5.419  1.00  0.00     0.158 HD
HETATM   29  H   UNL     1      47.314 -10.922   6.582  1.00  0.00     0.158 HD
ENDBRANCH  26  27
ENDBRANCH   2  22
TORSDOF 6
ENDMDL
MODEL 3
REMARK VINA RESULT:      -7.3      7.799     10.838
REMARK  6 active torsions:
REMARK  status: ('A' for Active; 'I' for Inactive)
REMARK    1  A    between atoms: C_2  and  N_3 
REMARK    2  A    between atoms: C_4  and  C_20 
REMARK    3  A    between atoms: C_10  and  C_11 
REMARK    4  A    between atoms: C_14  and  C_15 
REMARK    5  A    between atoms: C_15  and  N_16 
REMARK    6  A    between atoms: C_24  and  N_25 
ROOT
HETATM    1  N   UNL     1      41.473  -9.327   9.464  1.00  0.00    -0.327 N 
HETATM    2  C   UNL     1      41.279  -9.578   8.115  1.00  0.00     0.166 A 
HETATM    3  N   UNL     1      42.394 -10.017   7.560  1.00  0.00    -0.225 NA
HETATM    4  C   UNL     1      43.328 -10.063   8.560  1.00  0.00     0.104 A 
HETATM    5  C   UNL     1      44.660 -10.484   8.492  1.00  0.00     0.150 A 
HETATM    6  N   UNL     1      45.449 -10.455   9.589  1.00  0.00    -0.270 NA
HETATM    7  C   UNL     1      44.916  -9.997  10.745  1.00  0.00     0.131 A 
HETATM    8  C   UNL     1      43.600  -9.546  10.931  1.00  0.00     0.021 A 
HETATM    9  C   UNL     1      42.798  -9.608   9.772  1.00  0.00     0.079 A 
ENDROOT
BRANCH   8  10
HETATM   10  C   UNL     1      43.172  -9.039  12.228  1.00  0.00    -0.022 A 
HETATM   11  C   UNL     1      42.285  -9.777  13.027  1.00  0.00     0.013 A 
HETATM   12  C   UNL     1      41.831  -9.273  14.249  1.00  0.00     0.010 A 
HETATM   13  C   UNL     1      42.244  -8.013  14.702  1.00  0.00    -0.031 A 
HETATM   14  C   UNL     1      43.109  -7.264  13.891  1.00  0.00     0.010 A 
HETATM   15  C   UNL     1      43.573  -7.773  12.675  1.00  0.00     0.013 A 
BRANCH  13  16
HETATM   16  C   UNL     1      41.678  -7.454  15.986  1.00  0.00     0.305 C 
BRANCH  16  17
HETATM   17  N   UNL     1      42.449  -6.330  16.508  1.00  0.00     0.082 N 
HETATM   18  H   UNL     1      42.595  -5.656  15.758  1.00  0.00     0.313 HD
HETATM   19  H   UNL     1      43.372  -6.660  16.781  1.00  0.00     0.313 HD
ENDBRANCH  16  17
ENDBRANCH  13  16
ENDBRANCH   8  10
BRANCH   1  20
HETATM   20  C   UNL     1      40.448  -8.896  10.397  1.00  0.00     0.126 C 
HETATM   21  C   UNL     1      40.393  -7.385  10.545  1.00  0.00     0.027 C 
ENDBRANCH   1  20
BRANCH   2  22
HETATM   22  C   UNL     1      40.021  -9.407   7.311  1.00  0.00     0.179 A 
HETATM   23  N   UNL     1      39.418  -8.239   7.078  1.00  0.00    -0.097 NA
HETATM   24  O   UNL     1      38.324  -8.552   6.278  1.00  0.00    -0.104 OA
HETATM   25  N   UNL     1      38.258  -9.914   6.019  1.00  0.00    -0.085 NA
HETATM   26  C   UNL     1      39.294 -10.442   6.666  1.00  0.00     0.186 A 
BRANCH  26  27
HETATM   27  N   UNL     1      39.599 -11.755   6.689  1.00  0.00    -0.380 N 
HETATM   28  H   UNL     1      40.523 -12.069   6.421  1.00  0.00     0.158 HD
HETATM   29  H   UNL     1      39.080 -12.379   7.306  1.00  0.00     0.158 HD
ENDBRANCH  26  27
ENDBRANCH   2  22
TORSDOF 6
ENDMDL
MODEL 4
REMARK VINA RESULT:      -7.3      3.589      5.945
REMARK  6 active torsions:
REMARK  status: ('A' for Active; 'I' for Inactive)
REMARK    1  A    between atoms: C_2  and  N_3 
REMARK    2  A    between atoms: C_4  and  C_20 
REMARK    3  A    between atoms: C_10  and  C_11 
REMARK    4  A    between atoms: C_14  and  C_15 
REMARK    5  A    between atoms: C_15  and  N_16 
REMARK    6  A    between atoms: C_24  and  N_25 
ROOT
HETATM    1  N   UNL     1      43.087 -13.103   5.318  1.00  0.00    -0.327 N 
HETATM    2  C   UNL     1      43.921 -13.194   6.422  1.00  0.00     0.166 A 
HETATM    3  N   UNL     1      44.173 -14.459   6.708  1.00  0.00    -0.225 NA
HETATM    4  C   UNL     1      43.505 -15.204   5.774  1.00  0.00     0.104 A 
HETATM    5  C   UNL     1      43.473 -16.594   5.628  1.00  0.00     0.150 A 
HETATM    6  N   UNL     1      42.745 -17.167   4.642  1.00  0.00    -0.270 NA
HETATM    7  C   UNL     1      42.045 -16.357   3.816  1.00  0.00     0.131 A 
HETATM    8  C   UNL     1      41.997 -14.956   3.870  1.00  0.00     0.021 A 
HETATM    9  C   UNL     1      42.783 -14.390   4.896  1.00  0.00     0.079 A 
ENDROOT
BRANCH   8  10
HETATM   10  C   UNL     1      41.163 -14.212   2.936  1.00  0.00    -0.022 A 
HETATM   11  C   UNL     1      41.583 -13.999   1.614  1.00  0.00     0.013 A 
HETATM   12  C   UNL     1      40.812 -13.241   0.728  1.00  0.00     0.010 A 
HETATM   13  C   UNL     1      39.602 -12.668   1.143  1.00  0.00    -0.031 A 
HETATM   14  C   UNL     1      39.195 -12.858   2.471  1.00  0.00     0.010 A 
HETATM   15  C   UNL     1      39.961 -13.626   3.353  1.00  0.00     0.013 A 
BRANCH  13  16
HETATM   16  C   UNL     1      38.825 -11.787   0.193  1.00  0.00     0.305 C 
BRANCH  16  17
HETATM   17  N   UNL     1      37.973 -12.544  -0.719  1.00  0.00     0.082 N 
HETATM   18  H   UNL     1      37.190 -11.956  -1.000  1.00  0.00     0.313 HD
HETATM   19  H   UNL     1      37.573 -13.335  -0.219  1.00  0.00     0.313 HD
ENDBRANCH  16  17
ENDBRANCH  13  16
ENDBRANCH   8  10
BRANCH   1  20
HETATM   20  C   UNL     1      42.656 -11.868   4.688  1.00  0.00     0.126 C 
HETATM   21  C   UNL     1      43.519 -11.491   3.497  1.00  0.00     0.027 C 
ENDBRANCH   1  20
BRANCH   2  22
HETATM   22  C   UNL     1      44.504 -12.077   7.240  1.00  0.00     0.179 A 
HETATM   23  N   UNL     1      44.073 -11.712   8.449  1.00  0.00    -0.097 NA
HETATM   24  O   UNL     1      44.912 -10.671   8.832  1.00  0.00    -0.104 OA
HETATM   25  N   UNL     1      45.862 -10.399   7.856  1.00  0.00    -0.085 NA
HETATM   26  C   UNL     1      45.602 -11.255   6.870  1.00  0.00     0.186 A 
BRANCH  26  27
HETATM   27  N   UNL     1      46.287 -11.325   5.711  1.00  0.00    -0.380 N 
HETATM   28  H   UNL     1      46.695 -12.201   5.413  1.00  0.00     0.158 HD
HETATM   29  H   UNL     1      46.089 -10.652   4.972  1.00  0.00     0.158 HD
ENDBRANCH  26  27
ENDBRANCH   2  22
TORSDOF 6
ENDMDL
MODEL 5
REMARK VINA RESULT:      -7.2      1.882      2.414
REMARK  6 active torsions:
REMARK  status: ('A' for Active; 'I' for Inactive)
REMARK    1  A    between atoms: C_2  and  N_3 
REMARK    2  A    between atoms: C_4  and  C_20 
REMARK    3  A    between atoms: C_10  and  C_11 
REMARK    4  A    between atoms: C_14  and  C_15 
REMARK    5  A    between atoms: C_15  and  N_16 
REMARK    6  A    between atoms: C_24  and  N_25 
ROOT
HETATM    1  N   UNL     1      42.768 -16.182   4.417  1.00  0.00    -0.327 N 
HETATM    2  C   UNL     1      43.555 -16.995   5.218  1.00  0.00     0.166 A 
HETATM    3  N   UNL     1      44.084 -16.299   6.208  1.00  0.00    -0.225 NA
HETATM    4  C   UNL     1      43.630 -15.016   6.059  1.00  0.00     0.104 A 
HETATM    5  C   UNL     1      43.882 -13.902   6.866  1.00  0.00     0.150 A 
HETATM    6  N   UNL     1      43.352 -12.696   6.563  1.00  0.00    -0.270 NA
HETATM    7  C   UNL     1      42.586 -12.600   5.452  1.00  0.00     0.131 A 
HETATM    8  C   UNL     1      42.269 -13.642   4.568  1.00  0.00     0.021 A 
HETATM    9  C   UNL     1      42.821 -14.891   4.925  1.00  0.00     0.079 A 
ENDROOT
BRANCH   8  10
HETATM   10  C   UNL     1      41.461 -13.383   3.384  1.00  0.00    -0.022 A 
HETATM   11  C   UNL     1      42.066 -13.025   2.169  1.00  0.00     0.013 A 
HETATM   12  C   UNL     1      41.294 -12.724   1.043  1.00  0.00     0.010 A 
HETATM   13  C   UNL     1      39.894 -12.765   1.104  1.00  0.00    -0.031 A 
HETATM   14  C   UNL     1      39.290 -13.096   2.325  1.00  0.00     0.010 A 
HETATM   15  C   UNL     1      40.062 -13.409   3.447  1.00  0.00     0.013 A 
BRANCH  13  16
HETATM   16  C   UNL     1      39.079 -12.359  -0.101  1.00  0.00     0.305 C 
BRANCH  16  17
HETATM   17  N   UNL     1      38.768 -13.479  -0.983  1.00  0.00     0.082 N 
HETATM   18  H   UNL     1      37.795 -13.405  -1.276  1.00  0.00     0.313 HD
HETATM   19  H   UNL     1      38.843 -14.347  -0.456  1.00  0.00     0.313 HD
ENDBRANCH  16  17
ENDBRANCH  13  16
ENDBRANCH   8  10
BRANCH   1  20
HETATM   20  C   UNL     1      41.985 -16.625   3.278  1.00  0.00     0.126 C 
HETATM   21  C   UNL     1      42.767 -16.568   1.977  1.00  0.00     0.027 C 
ENDBRANCH   1  20
BRANCH   2  22
HETATM   22  C   UNL     1      43.827 -18.465   5.064  1.00  0.00     0.179 A 
HETATM   23  N   UNL     1      44.270 -19.045   3.946  1.00  0.00    -0.097 NA
HETATM   24  O   UNL     1      44.404 -20.392   4.268  1.00  0.00    -0.104 OA
HETATM   25  N   UNL     1      44.044 -20.636   5.587  1.00  0.00    -0.085 NA
HETATM   26  C   UNL     1      43.676 -19.453   6.072  1.00  0.00     0.186 A 
BRANCH  26  27
HETATM   27  N   UNL     1      43.238 -19.240   7.329  1.00  0.00    -0.380 N 
HETATM   28  H   UNL     1      42.622 -18.463   7.529  1.00  0.00     0.158 HD
HETATM   29  H   UNL     1      43.197 -20.020   7.984  1.00  0.00     0.158 HD
ENDBRANCH  26  27
ENDBRANCH   2  22
TORSDOF 6
ENDMDL
MODEL 6
REMARK VINA RESULT:      -7.2      3.842      8.057
REMARK  6 active torsions:
REMARK  status: ('A' for Active; 'I' for Inactive)
REMARK    1  A    between atoms: C_2  and  N_3 
REMARK    2  A    between atoms: C_4  and  C_20 
REMARK    3  A    between atoms: C_10  and  C_11 
REMARK    4  A    between atoms: C_14  and  C_15 
REMARK    5  A    between atoms: C_15  and  N_16 
REMARK    6  A    between atoms: C_24  and  N_25 
ROOT
HETATM    1  N   UNL     1      39.976 -12.834   3.715  1.00  0.00    -0.327 N 
HETATM    2  C   UNL     1      39.267 -11.698   4.074  1.00  0.00     0.166 A 
HETATM    3  N   UNL     1      38.757 -11.114   3.005  1.00  0.00    -0.225 NA
HETATM    4  C   UNL     1      39.128 -11.882   1.935  1.00  0.00     0.104 A 
HETATM    5  C   UNL     1      38.817 -11.703   0.583  1.00  0.00     0.150 A 
HETATM    6  N   UNL     1      39.279 -12.564  -0.351  1.00  0.00    -0.270 NA
HETATM    7  C   UNL     1      40.058 -13.591   0.061  1.00  0.00     0.131 A 
HETATM    8  C   UNL     1      40.439 -13.866   1.383  1.00  0.00     0.021 A 
HETATM    9  C   UNL     1      39.923 -12.961   2.334  1.00  0.00     0.079 A 
ENDROOT
BRANCH   8  10
HETATM   10  C   UNL     1      41.320 -14.989   1.676  1.00  0.00    -0.022 A 
HETATM   11  C   UNL     1      40.800 -16.196   2.168  1.00  0.00     0.013 A 
HETATM   12  C   UNL     1      41.645 -17.259   2.500  1.00  0.00     0.010 A 
HETATM   13  C   UNL     1      43.034 -17.141   2.358  1.00  0.00    -0.031 A 
HETATM   14  C   UNL     1      43.555 -15.925   1.892  1.00  0.00     0.010 A 
HETATM   15  C   UNL     1      42.709 -14.867   1.548  1.00  0.00     0.013 A 
BRANCH  13  16
HETATM   16  C   UNL     1      43.933 -18.272   2.798  1.00  0.00     0.305 C 
BRANCH  16  17
HETATM   17  N   UNL     1      44.160 -18.293   4.240  1.00  0.00     0.082 N 
HETATM   18  H   UNL     1      44.978 -18.868   4.435  1.00  0.00     0.313 HD
HETATM   19  H   UNL     1      43.372 -18.753   4.692  1.00  0.00     0.313 HD
ENDBRANCH  16  17
ENDBRANCH  13  16
ENDBRANCH   8  10
BRANCH   1  20
HETATM   20  C   UNL     1      40.615 -13.755   4.638  1.00  0.00     0.126 C 
HETATM   21  C   UNL     1      42.059 -13.382   4.926  1.00  0.00     0.027 C 
ENDBRANCH   1  20
BRANCH   2  22
HETATM   22  C   UNL     1      39.054 -11.133   5.450  1.00  0.00     0.179 A 
HETATM   23  N   UNL     1      38.650 -11.838   6.509  1.00  0.00    -0.097 NA
HETATM   24  O   UNL     1      38.620 -10.926   7.559  1.00  0.00    -0.104 OA
HETATM   25  N   UNL     1      39.009  -9.660   7.142  1.00  0.00    -0.085 NA
HETATM   26  C   UNL     1      39.262  -9.784   5.842  1.00  0.00     0.186 A 
BRANCH  26  27
HETATM   27  N   UNL     1      39.663  -8.781   5.036  1.00  0.00    -0.380 N 
HETATM   28  H   UNL     1      39.009  -8.350   4.395  1.00  0.00     0.158 HD
HETATM   29  H   UNL     1      40.461  -8.208   5.310  1.00  0.00     0.158 HD
ENDBRANCH  26  27
ENDBRANCH   2  22
TORSDOF 6
ENDMDL
MODEL 7
REMARK VINA RESULT:      -7.0      2.571      6.814
REMARK  6 active torsions:
REMARK  status: ('A' for Active; 'I' for Inactive)
REMARK    1  A    between atoms: C_2  and  N_3 
REMARK    2  A    between atoms: C_4  and  C_20 
REMARK    3  A    between atoms: C_10  and  C_11 
REMARK    4  A    between atoms: C_14  and  C_15 
REMARK    5  A    between atoms: C_15  and  N_16 
REMARK    6  A    between atoms: C_24  and  N_25 
ROOT
HETATM    1  N   UNL     1      42.053 -14.335   3.534  1.00  0.00    -0.327 N 
HETATM    2  C   UNL     1      41.547 -13.110   3.127  1.00  0.00     0.166 A 
HETATM    3  N   UNL     1      41.828 -12.175   4.016  1.00  0.00    -0.225 NA
HETATM    4  C   UNL     1      42.535 -12.792   5.012  1.00  0.00     0.104 A 
HETATM    5  C   UNL     1      43.084 -12.231   6.170  1.00  0.00     0.150 A 
HETATM    6  N   UNL     1      43.752 -13.000   7.059  1.00  0.00    -0.270 NA
HETATM    7  C   UNL     1      43.860 -14.323   6.800  1.00  0.00     0.131 A 
HETATM    8  C   UNL     1      43.348 -14.995   5.681  1.00  0.00     0.021 A 
HETATM    9  C   UNL     1      42.675 -14.161   4.763  1.00  0.00     0.079 A 
ENDROOT
BRANCH   8  10
HETATM   10  C   UNL     1      43.505 -16.438   5.553  1.00  0.00    -0.022 A 
HETATM   11  C   UNL     1      43.008 -17.302   6.540  1.00  0.00     0.013 A 
HETATM   12  C   UNL     1      43.201 -18.684   6.449  1.00  0.00     0.010 A 
HETATM   13  C   UNL     1      43.906 -19.238   5.372  1.00  0.00    -0.031 A 
HETATM   14  C   UNL     1      44.426 -18.373   4.400  1.00  0.00     0.010 A 
HETATM   15  C   UNL     1      44.222 -16.992   4.484  1.00  0.00     0.013 A 
BRANCH  13  16
HETATM   16  C   UNL     1      44.172 -20.725   5.335  1.00  0.00     0.305 C 
BRANCH  16  17
HETATM   17  N   UNL     1      44.015 -21.300   4.003  1.00  0.00     0.082 N 
HETATM   18  H   UNL     1      43.288 -20.785   3.508  1.00  0.00     0.313 HD
HETATM   19  H   UNL     1      43.679 -22.256   4.093  1.00  0.00     0.313 HD
ENDBRANCH  16  17
ENDBRANCH  13  16
ENDBRANCH   8  10
BRANCH   1  20
HETATM   20  C   UNL     1      41.987 -15.569   2.772  1.00  0.00     0.126 C 
HETATM   21  C   UNL     1      40.793 -16.426   3.155  1.00  0.00     0.027 C 
ENDBRANCH   1  20
BRANCH   2  22
HETATM   22  C   UNL     1      40.779 -12.793   1.875  1.00  0.00     0.179 A 
HETATM   23  N   UNL     1      39.830 -13.569   1.346  1.00  0.00    -0.097 NA
HETATM   24  O   UNL     1      39.381 -12.876   0.227  1.00  0.00    -0.104 OA
HETATM   25  N   UNL     1      40.054 -11.671   0.072  1.00  0.00    -0.085 NA
HETATM   26  C   UNL     1      40.924 -11.627   1.078  1.00  0.00     0.186 A 
BRANCH  26  27
HETATM   27  N   UNL     1      41.795 -10.622   1.299  1.00  0.00    -0.380 N 
HETATM   28  H   UNL     1      41.680  -9.734   0.827  1.00  0.00     0.158 HD
HETATM   29  H   UNL     1      42.316 -10.595   2.175  1.00  0.00     0.158 HD
ENDBRANCH  26  27
ENDBRANCH   2  22
TORSDOF 6
ENDMDL
MODEL 8
REMARK VINA RESULT:      -6.9      5.368      8.284
REMARK  6 active torsions:
REMARK  status: ('A' for Active; 'I' for Inactive)
REMARK    1  A    between atoms: C_2  and  N_3 
REMARK    2  A    between atoms: C_4  and  C_20 
REMARK    3  A    between atoms: C_10  and  C_11 
REMARK    4  A    between atoms: C_14  and  C_15 
REMARK    5  A    between atoms: C_15  and  N_16 
REMARK    6  A    between atoms: C_24  and  N_25 
ROOT
HETATM    1  N   UNL     1      41.741 -10.427   6.828  1.00  0.00    -0.327 N 
HETATM    2  C   UNL     1      41.501  -9.542   7.868  1.00  0.00     0.166 A 
HETATM    3  N   UNL     1      42.609  -9.321   8.552  1.00  0.00    -0.225 NA
HETATM    4  C   UNL     1      43.588 -10.061   7.946  1.00  0.00     0.104 A 
HETATM    5  C   UNL     1      44.945 -10.150   8.275  1.00  0.00     0.150 A 
HETATM    6  N   UNL     1      45.776 -10.945   7.565  1.00  0.00    -0.270 NA
HETATM    7  C   UNL     1      45.254 -11.657   6.540  1.00  0.00     0.131 A 
HETATM    8  C   UNL     1      43.914 -11.652   6.123  1.00  0.00     0.021 A 
HETATM    9  C   UNL     1      43.079 -10.797   6.872  1.00  0.00     0.079 A 
ENDROOT
BRANCH   8  10
HETATM   10  C   UNL     1      43.483 -12.505   5.024  1.00  0.00    -0.022 A 
HETATM   11  C   UNL     1      43.086 -13.830   5.259  1.00  0.00     0.013 A 
HETATM   12  C   UNL     1      42.721 -14.669   4.202  1.00  0.00     0.010 A 
HETATM   13  C   UNL     1      42.752 -14.208   2.879  1.00  0.00    -0.031 A 
HETATM   14  C   UNL     1      43.174 -12.893   2.641  1.00  0.00     0.010 A 
HETATM   15  C   UNL     1      43.527 -12.049   3.699  1.00  0.00     0.013 A 
BRANCH  13  16
HETATM   16  C   UNL     1      42.430 -15.155   1.747  1.00  0.00     0.305 C 
BRANCH  16  17
HETATM   17  N   UNL     1      41.692 -14.517   0.661  1.00  0.00     0.082 N 
HETATM   18  H   UNL     1      42.342 -14.296  -0.092  1.00  0.00     0.313 HD
HETATM   19  H   UNL     1      41.321 -13.628   0.991  1.00  0.00     0.313 HD
ENDBRANCH  16  17
ENDBRANCH  13  16
ENDBRANCH   8  10
BRANCH   1  20
HETATM   20  C   UNL     1      40.767 -10.844   5.836  1.00  0.00     0.126 C 
HETATM   21  C   UNL     1      39.975 -12.063   6.275  1.00  0.00     0.027 C 
ENDBRANCH   1  20
BRANCH   2  22
HETATM   22  C   UNL     1      40.206  -8.880   8.244  1.00  0.00     0.179 A 
HETATM   23  N   UNL     1      39.573  -7.968   7.502  1.00  0.00    -0.097 NA
HETATM   24  O   UNL     1      38.419  -7.661   8.215  1.00  0.00    -0.104 OA
HETATM   25  N   UNL     1      38.345  -8.388   9.396  1.00  0.00    -0.085 NA
HETATM   26  C   UNL     1      39.451  -9.127   9.420  1.00  0.00     0.186 A 
BRANCH  26  27
HETATM   27  N   UNL     1      39.785  -9.980  10.409  1.00  0.00    -0.380 N 
HETATM   28  H   UNL     1      39.079 -10.563  10.840  1.00  0.00     0.158 HD
HETATM   29  H   UNL     1      40.743 -10.323  10.471  1.00  0.00     0.158 HD
ENDBRANCH  26  27
ENDBRANCH   2  22
TORSDOF 6
ENDMDL
MODEL 9
REMARK VINA RESULT:      -6.8      2.536      4.441
REMARK  6 active torsions:
REMARK  status: ('A' for Active; 'I' for Inactive)
REMARK    1  A    between atoms: C_2  and  N_3 
REMARK    2  A    between atoms: C_4  and  C_20 
REMARK    3  A    between atoms: C_10  and  C_11 
REMARK    4  A    between atoms: C_14  and  C_15 
REMARK    5  A    between atoms: C_15  and  N_16 
REMARK    6  A    between atoms: C_24  and  N_25 
ROOT
HETATM    1  N   UNL     1      43.214 -15.360   4.867  1.00  0.00    -0.327 N 
HETATM    2  C   UNL     1      43.135 -16.618   4.289  1.00  0.00     0.166 A 
HETATM    3  N   UNL     1      42.719 -16.527   3.039  1.00  0.00    -0.225 NA
HETATM    4  C   UNL     1      42.533 -15.194   2.792  1.00  0.00     0.104 A 
HETATM    5  C   UNL     1      42.124 -14.575   1.606  1.00  0.00     0.150 A 
HETATM    6  N   UNL     1      41.984 -13.232   1.542  1.00  0.00    -0.270 NA
HETATM    7  C   UNL     1      42.239 -12.512   2.659  1.00  0.00     0.131 A 
HETATM    8  C   UNL     1      42.649 -13.022   3.900  1.00  0.00     0.021 A 
HETATM    9  C   UNL     1      42.805 -14.423   3.927  1.00  0.00     0.079 A 
ENDROOT
BRANCH   8  10
HETATM   10  C   UNL     1      42.849 -12.128   5.033  1.00  0.00    -0.022 A 
HETATM   11  C   UNL     1      44.143 -11.807   5.471  1.00  0.00     0.013 A 
HETATM   12  C   UNL     1      44.341 -10.991   6.589  1.00  0.00     0.010 A 
HETATM   13  C   UNL     1      43.250 -10.481   7.305  1.00  0.00    -0.031 A 
HETATM   14  C   UNL     1      41.957 -10.824   6.884  1.00  0.00     0.010 A 
HETATM   15  C   UNL     1      41.759 -11.629   5.758  1.00  0.00     0.013 A 
BRANCH  13  16
HETATM   16  C   UNL     1      43.486  -9.669   8.556  1.00  0.00     0.305 C 
BRANCH  16  17
HETATM   17  N   UNL     1      43.351 -10.452   9.780  1.00  0.00     0.082 N 
HETATM   18  H   UNL     1      44.093 -10.184  10.425  1.00  0.00     0.313 HD
HETATM   19  H   UNL     1      43.500 -11.435   9.562  1.00  0.00     0.313 HD
ENDBRANCH  16  17
ENDBRANCH  13  16
ENDBRANCH   8  10
BRANCH   1  20
HETATM   20  C   UNL     1      43.694 -15.077   6.208  1.00  0.00     0.126 C 
HETATM   21  C   UNL     1      42.570 -15.002   7.225  1.00  0.00     0.027 C 
ENDBRANCH   1  20
BRANCH   2  22
HETATM   22  C   UNL     1      43.455 -17.947   4.913  1.00  0.00     0.179 A 
HETATM   23  N   UNL     1      43.233 -18.262   6.191  1.00  0.00    -0.097 NA
HETATM   24  O   UNL     1      43.649 -19.584   6.313  1.00  0.00    -0.104 OA
HETATM   25  N   UNL     1      44.124 -20.080   5.106  1.00  0.00    -0.085 NA
HETATM   26  C   UNL     1      44.018 -19.068   4.248  1.00  0.00     0.186 A 
BRANCH  26  27
HETATM   27  N   UNL     1      44.383 -19.117   2.952  1.00  0.00    -0.380 N 
HETATM   28  H   UNL     1      45.334 -19.348   2.698  1.00  0.00     0.158 HD
HETATM   29  H   UNL     1      43.676 -19.300   2.240  1.00  0.00     0.158 HD
ENDBRANCH  26  27
ENDBRANCH   2  22
TORSDOF 6
ENDMDL
MODEL 10
REMARK VINA RESULT:      -6.7     14.183     15.810
REMARK  6 active torsions:
REMARK  status: ('A' for Active; 'I' for Inactive)
REMARK    1  A    between atoms: C_2  and  N_3 
REMARK    2  A    between atoms: C_4  and  C_20 
REMARK    3  A    between atoms: C_10  and  C_11 
REMARK    4  A    between atoms: C_14  and  C_15 
REMARK    5  A    between atoms: C_15  and  N_16 
REMARK    6  A    between atoms: C_24  and  N_25 
ROOT
HETATM    1  N   UNL     1      46.658 -30.281   0.635  1.00  0.00    -0.327 N 
HETATM    2  C   UNL     1      47.252 -30.174   1.884  1.00  0.00     0.166 A 
HETATM    3  N   UNL     1      46.363 -29.808   2.789  1.00  0.00    -0.225 NA
HETATM    4  C   UNL     1      45.171 -29.685   2.129  1.00  0.00     0.104 A 
HETATM    5  C   UNL     1      43.917 -29.345   2.647  1.00  0.00     0.150 A 
HETATM    6  N   UNL     1      42.836 -29.262   1.839  1.00  0.00    -0.270 NA
HETATM    7  C   UNL     1      43.008 -29.504   0.519  1.00  0.00     0.131 A 
HETATM    8  C   UNL     1      44.214 -29.847  -0.112  1.00  0.00     0.021 A 
HETATM    9  C   UNL     1      45.317 -29.946   0.762  1.00  0.00     0.079 A 
ENDROOT
BRANCH   8  10
HETATM   10  C   UNL     1      44.260 -30.040  -1.555  1.00  0.00    -0.022 A 
HETATM   11  C   UNL     1      44.297 -28.938  -2.423  1.00  0.00     0.013 A 
HETATM   12  C   UNL     1      44.289 -29.116  -3.810  1.00  0.00     0.010 A 
HETATM   13  C   UNL     1      44.233 -30.401  -4.366  1.00  0.00    -0.031 A 
HETATM   14  C   UNL     1      44.168 -31.500  -3.499  1.00  0.00     0.010 A 
HETATM   15  C   UNL     1      44.189 -31.323  -2.112  1.00  0.00     0.013 A 
BRANCH  13  16
HETATM   16  C   UNL     1      44.144 -30.567  -5.865  1.00  0.00     0.305 C 
BRANCH  16  17
HETATM   17  N   UNL     1      45.335 -31.182  -6.443  1.00  0.00     0.082 N 
HETATM   18  H   UNL     1      45.205 -31.264  -7.451  1.00  0.00     0.313 HD
HETATM   19  H   UNL     1      45.423 -32.131  -6.087  1.00  0.00     0.313 HD
ENDBRANCH  16  17
ENDBRANCH  13  16
ENDBRANCH   8  10
BRANCH   1  20
HETATM   20  C   UNL     1      47.322 -30.722  -0.578  1.00  0.00     0.126 C 
HETATM   21  C   UNL     1      47.916 -29.569  -1.368  1.00  0.00     0.027 C 
ENDBRANCH   1  20
BRANCH   2  22
HETATM   22  C   UNL     1      48.689 -30.416   2.252  1.00  0.00     0.179 A 
HETATM   23  N   UNL     1      49.377 -31.518   1.947  1.00  0.00    -0.097 NA
HETATM   24  O   UNL     1      50.654 -31.296   2.453  1.00  0.00    -0.104 OA
HETATM   25  N   UNL     1      50.747 -30.054   3.067  1.00  0.00    -0.085 NA
HETATM   26  C   UNL     1      49.534 -29.518   2.955  1.00  0.00     0.186 A 
BRANCH  26  27
HETATM   27  N   UNL     1      49.180 -28.308   3.432  1.00  0.00    -0.380 N 
HETATM   28  H   UNL     1      48.853 -28.211   4.384  1.00  0.00     0.158 HD
HETATM   29  H   UNL     1      49.576 -27.469   3.010  1.00  0.00     0.158 HD
ENDBRANCH  26  27
ENDBRANCH   2  22
TORSDOF 6
ENDMDL
