MODEL 1
REMARK VINA RESULT:      -9.2      0.000      0.000
REMARK  2 active torsions:
REMARK  status: ('A' for Active; 'I' for Inactive)
REMARK    1  A    between atoms: C_2  and  C_3 
REMARK    2  A    between atoms: C_3  and  C_4 
ROOT
HETATM    1  C   UNL     1      40.560 -14.118   3.512  1.00  0.00     0.085 A 
HETATM    2  S   UNL     1      41.461 -14.514   4.918  1.00  0.00    -0.063 SA
HETATM    3  C   UNL     1      42.152 -15.877   4.177  1.00  0.00     0.111 A 
HETATM    4  C   UNL     1      41.746 -16.040   2.862  1.00  0.00     0.028 A 
HETATM    5  C   UNL     1      40.842 -14.990   2.475  1.00  0.00     0.060 A 
HETATM    6  N   UNL     1      40.339 -14.887   1.220  1.00  0.00    -0.397 N 
HETATM    7  N   UNL     1      43.000 -16.668   4.861  1.00  0.00    -0.245 NA
HETATM    8  C   UNL     1      43.492 -17.723   4.172  1.00  0.00     0.042 A 
HETATM    9  C   UNL     1      43.163 -18.015   2.846  1.00  0.00    -0.033 A 
HETATM   10  C   UNL     1      43.722 -19.212   2.123  1.00  0.00     0.040 C 
HETATM   11  C   UNL     1      43.285 -20.541   2.740  1.00  0.00     0.005 C 
HETATM   12  C   UNL     1      44.082 -20.938   3.983  1.00  0.00     0.001 C 
HETATM   13  C   UNL     1      43.909 -20.008   5.183  1.00  0.00     0.006 C 
HETATM   14  C   UNL     1      44.447 -18.597   4.949  1.00  0.00     0.060 C 
HETATM   15  C   UNL     1      42.280 -17.153   2.179  1.00  0.00     0.026 A 
HETATM   16  H   UNL     1      40.718 -15.446   0.461  1.00  0.00     0.156 HD
HETATM   17  H   UNL     1      39.904 -14.032   0.879  1.00  0.00     0.156 HD
ENDROOT
BRANCH   1  18
HETATM   18  C   UNL     1      39.682 -12.962   3.578  1.00  0.00     0.201 C 
HETATM   19  O   UNL     1      38.771 -12.754   2.777  1.00  0.00    -0.286 OA
BRANCH  18  20
HETATM   20  C   UNL     1      39.866 -11.955   4.665  1.00  0.00     0.018 A 
HETATM   21  C   UNL     1      40.878 -10.979   4.509  1.00  0.00     0.018 A 
HETATM   22  C   UNL     1      41.101 -10.013   5.496  1.00  0.00     0.040 A 
HETATM   23  C   UNL     1      40.311 -10.059   6.624  1.00  0.00     0.105 A 
HETATM   24  C   UNL     1      39.338 -11.018   6.788  1.00  0.00     0.106 A 
HETATM   25  O   UNL     1      40.386  -9.208   7.681  1.00  0.00    -0.323 OA
HETATM   26  C   UNL     1      39.092 -11.984   5.835  1.00  0.00     0.055 A 
HETATM   27  O   UNL     1      38.680 -10.888   7.973  1.00  0.00    -0.323 OA
HETATM   28  C   UNL     1      39.355  -9.745   8.537  1.00  0.00     0.352 A 
ENDBRANCH  18  20
ENDBRANCH   1  18
TORSDOF 2
ENDMDL
MODEL 2
REMARK VINA RESULT:      -9.0      2.906      3.390
REMARK  2 active torsions:
REMARK  status: ('A' for Active; 'I' for Inactive)
REMARK    1  A    between atoms: C_2  and  C_3 
REMARK    2  A    between atoms: C_3  and  C_4 
ROOT
HETATM    1  C   UNL     1      42.700 -13.980   5.479  1.00  0.00     0.085 A 
HETATM    2  S   UNL     1      43.292 -15.150   6.586  1.00  0.00    -0.063 SA
HETATM    3  C   UNL     1      43.543 -16.293   5.355  1.00  0.00     0.111 A 
HETATM    4  C   UNL     1      43.219 -15.809   4.097  1.00  0.00     0.028 A 
HETATM    5  C   UNL     1      42.758 -14.449   4.177  1.00  0.00     0.060 A 
HETATM    6  N   UNL     1      42.428 -13.726   3.080  1.00  0.00    -0.397 N 
HETATM    7  N   UNL     1      44.014 -17.519   5.649  1.00  0.00    -0.245 NA
HETATM    8  C   UNL     1      44.178 -18.346   4.591  1.00  0.00     0.042 A 
HETATM    9  C   UNL     1      43.884 -17.997   3.271  1.00  0.00    -0.033 A 
HETATM   10  C   UNL     1      44.067 -18.958   2.125  1.00  0.00     0.040 C 
HETATM   11  C   UNL     1      43.157 -20.182   2.221  1.00  0.00     0.005 C 
HETATM   12  C   UNL     1      43.664 -21.257   3.183  1.00  0.00     0.001 C 
HETATM   13  C   UNL     1      43.714 -20.835   4.651  1.00  0.00     0.006 C 
HETATM   14  C   UNL     1      44.713 -19.716   4.935  1.00  0.00     0.060 C 
HETATM   15  C   UNL     1      43.403 -16.703   3.021  1.00  0.00     0.026 A 
HETATM   16  H   UNL     1      42.660 -14.059   2.148  1.00  0.00     0.156 HD
HETATM   17  H   UNL     1      42.338 -12.712   3.106  1.00  0.00     0.156 HD
ENDROOT
BRANCH   1  18
HETATM   18  C   UNL     1      42.260 -12.705   6.017  1.00  0.00     0.201 C 
HETATM   19  O   UNL     1      41.083 -12.346   6.038  1.00  0.00    -0.286 OA
BRANCH  18  20
HETATM   20  C   UNL     1      43.264 -11.757   6.585  1.00  0.00     0.018 A 
HETATM   21  C   UNL     1      44.637 -12.063   6.431  1.00  0.00     0.018 A 
HETATM   22  C   UNL     1      45.623 -11.215   6.947  1.00  0.00     0.040 A 
HETATM   23  C   UNL     1      45.207 -10.086   7.616  1.00  0.00     0.105 A 
HETATM   24  C   UNL     1      43.873  -9.792   7.783  1.00  0.00     0.106 A 
HETATM   25  O   UNL     1      46.019  -9.154   8.181  1.00  0.00    -0.323 OA
HETATM   26  C   UNL     1      42.876 -10.606   7.288  1.00  0.00     0.055 A 
HETATM   27  O   UNL     1      43.682  -8.638   8.478  1.00  0.00    -0.323 OA
HETATM   28  C   UNL     1      45.045  -8.243   8.735  1.00  0.00     0.352 A 
ENDBRANCH  18  20
ENDBRANCH   1  18
TORSDOF 2
ENDMDL
MODEL 3
REMARK VINA RESULT:      -8.9      2.984      4.459
REMARK  2 active torsions:
REMARK  status: ('A' for Active; 'I' for Inactive)
REMARK    1  A    between atoms: C_2  and  C_3 
REMARK    2  A    between atoms: C_3  and  C_4 
ROOT
HETATM    1  C   UNL     1      40.619 -14.026   2.591  1.00  0.00     0.085 A 
HETATM    2  S   UNL     1      41.034 -14.239   4.243  1.00  0.00    -0.063 SA
HETATM    3  C   UNL     1      41.994 -15.598   3.899  1.00  0.00     0.111 A 
HETATM    4  C   UNL     1      42.043 -15.895   2.546  1.00  0.00     0.028 A 
HETATM    5  C   UNL     1      41.263 -14.953   1.790  1.00  0.00     0.060 A 
HETATM    6  N   UNL     1      41.189 -14.988   0.437  1.00  0.00    -0.397 N 
HETATM    7  N   UNL     1      42.613 -16.264   4.893  1.00  0.00    -0.245 NA
HETATM    8  C   UNL     1      43.351 -17.328   4.504  1.00  0.00     0.042 A 
HETATM    9  C   UNL     1      43.484 -17.749   3.179  1.00  0.00    -0.033 A 
HETATM   10  C   UNL     1      44.305 -18.951   2.794  1.00  0.00     0.040 C 
HETATM   11  C   UNL     1      43.757 -20.257   3.369  1.00  0.00     0.005 C 
HETATM   12  C   UNL     1      44.127 -20.492   4.833  1.00  0.00     0.001 C 
HETATM   13  C   UNL     1      43.530 -19.487   5.817  1.00  0.00     0.006 C 
HETATM   14  C   UNL     1      44.045 -18.062   5.628  1.00  0.00     0.060 C 
HETATM   15  C   UNL     1      42.823 -17.013   2.183  1.00  0.00     0.026 A 
HETATM   16  H   UNL     1      41.820 -15.574  -0.103  1.00  0.00     0.156 HD
HETATM   17  H   UNL     1      40.847 -14.199  -0.108  1.00  0.00     0.156 HD
ENDROOT
BRANCH   1  18
HETATM   18  C   UNL     1      39.711 -12.942   2.260  1.00  0.00     0.201 C 
HETATM   19  O   UNL     1      38.672 -12.712   2.879  1.00  0.00    -0.286 OA
BRANCH  18  20
HETATM   20  C   UNL     1      40.026 -12.038   1.114  1.00  0.00     0.018 A 
HETATM   21  C   UNL     1      39.197 -12.096  -0.032  1.00  0.00     0.018 A 
HETATM   22  C   UNL     1      39.447 -11.278  -1.139  1.00  0.00     0.040 A 
HETATM   23  C   UNL     1      40.530 -10.430  -1.075  1.00  0.00     0.105 A 
HETATM   24  C   UNL     1      41.349 -10.382   0.030  1.00  0.00     0.106 A 
HETATM   25  O   UNL     1      40.923  -9.569  -2.050  1.00  0.00    -0.323 OA
HETATM   26  C   UNL     1      41.132 -11.175   1.138  1.00  0.00     0.055 A 
HETATM   27  O   UNL     1      42.362  -9.485  -0.116  1.00  0.00    -0.323 OA
HETATM   28  C   UNL     1      42.091  -8.980  -1.440  1.00  0.00     0.352 A 
ENDBRANCH  18  20
ENDBRANCH   1  18
TORSDOF 2
ENDMDL
MODEL 4
REMARK VINA RESULT:      -8.7      4.301      8.206
REMARK  2 active torsions:
REMARK  status: ('A' for Active; 'I' for Inactive)
REMARK    1  A    between atoms: C_2  and  C_3 
REMARK    2  A    between atoms: C_3  and  C_4 
ROOT
HETATM    1  C   UNL     1      41.951 -14.718   2.774  1.00  0.00     0.085 A 
HETATM    2  S   UNL     1      40.897 -15.735   1.881  1.00  0.00    -0.063 SA
HETATM    3  C   UNL     1      40.594 -14.527   0.726  1.00  0.00     0.111 A 
HETATM    4  C   UNL     1      41.297 -13.358   0.972  1.00  0.00     0.028 A 
HETATM    5  C   UNL     1      42.109 -13.492   2.151  1.00  0.00     0.060 A 
HETATM    6  N   UNL     1      42.937 -12.508   2.581  1.00  0.00    -0.397 N 
HETATM    7  N   UNL     1      39.747 -14.758  -0.296  1.00  0.00    -0.245 NA
HETATM    8  C   UNL     1      39.584 -13.727  -1.156  1.00  0.00     0.042 A 
HETATM    9  C   UNL     1      40.219 -12.490  -1.027  1.00  0.00    -0.033 A 
HETATM   10  C   UNL     1      39.994 -11.363  -2.001  1.00  0.00     0.040 C 
HETATM   11  C   UNL     1      38.552 -10.854  -2.001  1.00  0.00     0.005 C 
HETATM   12  C   UNL     1      37.588 -11.724  -2.807  1.00  0.00     0.001 C 
HETATM   13  C   UNL     1      37.381 -13.134  -2.257  1.00  0.00     0.006 C 
HETATM   14  C   UNL     1      38.637 -14.002  -2.300  1.00  0.00     0.060 C 
HETATM   15  C   UNL     1      41.097 -12.307   0.052  1.00  0.00     0.026 A 
HETATM   16  H   UNL     1      43.144 -11.708   1.990  1.00  0.00     0.156 HD
HETATM   17  H   UNL     1      43.678 -12.680   3.257  1.00  0.00     0.156 HD
ENDROOT
BRANCH   1  18
HETATM   18  C   UNL     1      42.531 -15.254   3.993  1.00  0.00     0.201 C 
HETATM   19  O   UNL     1      42.645 -14.606   5.034  1.00  0.00    -0.286 OA
BRANCH  18  20
HETATM   20  C   UNL     1      43.025 -16.663   4.019  1.00  0.00     0.018 A 
HETATM   21  C   UNL     1      43.442 -17.249   2.801  1.00  0.00     0.018 A 
HETATM   22  C   UNL     1      43.909 -18.567   2.762  1.00  0.00     0.040 A 
HETATM   23  C   UNL     1      43.934 -19.270   3.946  1.00  0.00     0.105 A 
HETATM   24  C   UNL     1      43.513 -18.710   5.131  1.00  0.00     0.106 A 
HETATM   25  O   UNL     1      44.353 -20.554   4.098  1.00  0.00    -0.323 OA
HETATM   26  C   UNL     1      43.048 -17.414   5.204  1.00  0.00     0.055 A 
HETATM   27  O   UNL     1      43.613 -19.577   6.175  1.00  0.00    -0.323 OA
HETATM   28  C   UNL     1      44.138 -20.746   5.513  1.00  0.00     0.352 A 
ENDBRANCH  18  20
ENDBRANCH   1  18
TORSDOF 2
ENDMDL
MODEL 5
REMARK VINA RESULT:      -8.6      1.820      2.269
REMARK  2 active torsions:
REMARK  status: ('A' for Active; 'I' for Inactive)
REMARK    1  A    between atoms: C_2  and  C_3 
REMARK    2  A    between atoms: C_3  and  C_4 
ROOT
HETATM    1  C   UNL     1      40.862 -14.127   4.969  1.00  0.00     0.085 A 
HETATM    2  S   UNL     1      41.978 -14.845   6.057  1.00  0.00    -0.063 SA
HETATM    3  C   UNL     1      42.434 -16.024   4.923  1.00  0.00     0.111 A 
HETATM    4  C   UNL     1      41.784 -15.882   3.707  1.00  0.00     0.028 A 
HETATM    5  C   UNL     1      40.893 -14.754   3.735  1.00  0.00     0.060 A 
HETATM    6  N   UNL     1      40.177 -14.364   2.653  1.00  0.00    -0.397 N 
HETATM    7  N   UNL     1      43.342 -16.965   5.246  1.00  0.00    -0.245 NA
HETATM    8  C   UNL     1      43.631 -17.851   4.266  1.00  0.00     0.042 A 
HETATM    9  C   UNL     1      43.047 -17.835   2.997  1.00  0.00    -0.033 A 
HETATM   10  C   UNL     1      43.389 -18.853   1.940  1.00  0.00     0.040 C 
HETATM   11  C   UNL     1      42.989 -20.275   2.331  1.00  0.00     0.005 C 
HETATM   12  C   UNL     1      43.973 -20.956   3.283  1.00  0.00     0.001 C 
HETATM   13  C   UNL     1      44.081 -20.311   4.664  1.00  0.00     0.006 C 
HETATM   14  C   UNL     1      44.655 -18.896   4.639  1.00  0.00     0.060 C 
HETATM   15  C   UNL     1      42.113 -16.827   2.712  1.00  0.00     0.026 A 
HETATM   16  H   UNL     1      40.374 -14.748   1.732  1.00  0.00     0.156 HD
HETATM   17  H   UNL     1      39.742 -13.445   2.592  1.00  0.00     0.156 HD
ENDROOT
BRANCH   1  18
HETATM   18  C   UNL     1      40.085 -12.998   5.449  1.00  0.00     0.201 C 
HETATM   19  O   UNL     1      39.232 -13.085   6.332  1.00  0.00    -0.286 OA
BRANCH  18  20
HETATM   20  C   UNL     1      40.310 -11.643   4.861  1.00  0.00     0.018 A 
HETATM   21  C   UNL     1      41.642 -11.197   4.696  1.00  0.00     0.018 A 
HETATM   22  C   UNL     1      41.915  -9.936   4.157  1.00  0.00     0.040 A 
HETATM   23  C   UNL     1      40.842  -9.146   3.807  1.00  0.00     0.105 A 
HETATM   24  C   UNL     1      39.544  -9.568   3.982  1.00  0.00     0.106 A 
HETATM   25  O   UNL     1      40.915  -7.899   3.273  1.00  0.00    -0.323 OA
HETATM   26  C   UNL     1      39.240 -10.805   4.511  1.00  0.00     0.055 A 
HETATM   27  O   UNL     1      38.639  -8.635   3.580  1.00  0.00    -0.323 OA
HETATM   28  C   UNL     1      39.514  -7.576   3.140  1.00  0.00     0.352 A 
ENDBRANCH  18  20
ENDBRANCH   1  18
TORSDOF 2
ENDMDL
MODEL 6
REMARK VINA RESULT:      -8.5      4.172      8.083
REMARK  2 active torsions:
REMARK  status: ('A' for Active; 'I' for Inactive)
REMARK    1  A    between atoms: C_2  and  C_3 
REMARK    2  A    between atoms: C_3  and  C_4 
ROOT
HETATM    1  C   UNL     1      42.087 -14.406   3.611  1.00  0.00     0.085 A 
HETATM    2  S   UNL     1      42.897 -13.038   2.964  1.00  0.00    -0.063 SA
HETATM    3  C   UNL     1      41.652 -12.742   1.846  1.00  0.00     0.111 A 
HETATM    4  C   UNL     1      40.602 -13.640   1.959  1.00  0.00     0.028 A 
HETATM    5  C   UNL     1      40.852 -14.586   3.013  1.00  0.00     0.060 A 
HETATM    6  N   UNL     1      39.955 -15.539   3.365  1.00  0.00    -0.397 N 
HETATM    7  N   UNL     1      41.749 -11.721   0.974  1.00  0.00    -0.245 NA
HETATM    8  C   UNL     1      40.700 -11.577   0.132  1.00  0.00     0.042 A 
HETATM    9  C   UNL     1      39.580 -12.412   0.126  1.00  0.00    -0.033 A 
HETATM   10  C   UNL     1      38.441 -12.225  -0.842  1.00  0.00     0.040 C 
HETATM   11  C   UNL     1      38.857 -12.429  -2.299  1.00  0.00     0.005 C 
HETATM   12  C   UNL     1      39.561 -11.221  -2.917  1.00  0.00     0.001 C 
HETATM   13  C   UNL     1      40.912 -10.875  -2.292  1.00  0.00     0.006 C 
HETATM   14  C   UNL     1      40.817 -10.424  -0.836  1.00  0.00     0.060 C 
HETATM   15  C   UNL     1      39.529 -13.457   1.062  1.00  0.00     0.026 A 
HETATM   16  H   UNL     1      39.001 -15.509   3.014  1.00  0.00     0.156 HD
HETATM   17  H   UNL     1      40.017 -16.043   4.247  1.00  0.00     0.156 HD
ENDROOT
BRANCH   1  18
HETATM   18  C   UNL     1      42.756 -15.146   4.667  1.00  0.00     0.201 C 
HETATM   19  O   UNL     1      43.026 -14.666   5.768  1.00  0.00    -0.286 OA
BRANCH  18  20
HETATM   20  C   UNL     1      43.148 -16.569   4.438  1.00  0.00     0.018 A 
HETATM   21  C   UNL     1      43.349 -17.002   3.107  1.00  0.00     0.018 A 
HETATM   22  C   UNL     1      43.712 -18.324   2.830  1.00  0.00     0.040 A 
HETATM   23  C   UNL     1      43.852 -19.184   3.896  1.00  0.00     0.105 A 
HETATM   24  C   UNL     1      43.640 -18.773   5.192  1.00  0.00     0.106 A 
HETATM   25  O   UNL     1      44.196 -20.497   3.818  1.00  0.00    -0.323 OA
HETATM   26  C   UNL     1      43.282 -17.477   5.500  1.00  0.00     0.055 A 
HETATM   27  O   UNL     1      43.823 -19.779   6.090  1.00  0.00    -0.323 OA
HETATM   28  C   UNL     1      44.167 -20.871   5.212  1.00  0.00     0.352 A 
ENDBRANCH  18  20
ENDBRANCH   1  18
TORSDOF 2
ENDMDL
MODEL 7
REMARK VINA RESULT:      -8.3      4.651      9.711
REMARK  2 active torsions:
REMARK  status: ('A' for Active; 'I' for Inactive)
REMARK    1  A    between atoms: C_2  and  C_3 
REMARK    2  A    between atoms: C_3  and  C_4 
ROOT
HETATM    1  C   UNL     1      43.820 -10.744   7.214  1.00  0.00     0.085 A 
HETATM    2  S   UNL     1      42.225 -10.114   7.292  1.00  0.00    -0.063 SA
HETATM    3  C   UNL     1      42.478  -9.473   8.844  1.00  0.00     0.111 A 
HETATM    4  C   UNL     1      43.763  -9.692   9.315  1.00  0.00     0.028 A 
HETATM    5  C   UNL     1      44.546 -10.406   8.343  1.00  0.00     0.060 A 
HETATM    6  N   UNL     1      45.855 -10.700   8.536  1.00  0.00    -0.397 N 
HETATM    7  N   UNL     1      41.484  -8.829   9.485  1.00  0.00    -0.245 NA
HETATM    8  C   UNL     1      41.797  -8.358  10.714  1.00  0.00     0.042 A 
HETATM    9  C   UNL     1      43.047  -8.514  11.318  1.00  0.00    -0.033 A 
HETATM   10  C   UNL     1      43.347  -7.986  12.697  1.00  0.00     0.040 C 
HETATM   11  C   UNL     1      42.508  -8.654  13.786  1.00  0.00     0.005 C 
HETATM   12  C   UNL     1      41.087  -8.103  13.900  1.00  0.00     0.001 C 
HETATM   13  C   UNL     1      40.201  -8.351  12.680  1.00  0.00     0.006 C 
HETATM   14  C   UNL     1      40.676  -7.633  11.419  1.00  0.00     0.060 C 
HETATM   15  C   UNL     1      44.049  -9.186  10.601  1.00  0.00     0.026 A 
HETATM   16  H   UNL     1      46.377 -10.275   9.298  1.00  0.00     0.156 HD
HETATM   17  H   UNL     1      46.466 -10.982   7.772  1.00  0.00     0.156 HD
ENDROOT
BRANCH   1  18
HETATM   18  C   UNL     1      44.192 -11.490   6.025  1.00  0.00     0.201 C 
HETATM   19  O   UNL     1      45.028 -11.099   5.210  1.00  0.00    -0.286 OA
BRANCH  18  20
HETATM   20  C   UNL     1      43.547 -12.808   5.747  1.00  0.00     0.018 A 
HETATM   21  C   UNL     1      43.602 -13.805   6.748  1.00  0.00     0.018 A 
HETATM   22  C   UNL     1      43.021 -15.061   6.543  1.00  0.00     0.040 A 
HETATM   23  C   UNL     1      42.408 -15.290   5.331  1.00  0.00     0.105 A 
HETATM   24  C   UNL     1      42.367 -14.329   4.347  1.00  0.00     0.106 A 
HETATM   25  O   UNL     1      41.795 -16.443   4.956  1.00  0.00    -0.323 OA
HETATM   26  C   UNL     1      42.930 -13.081   4.517  1.00  0.00     0.055 A 
HETATM   27  O   UNL     1      41.723 -14.762   3.229  1.00  0.00    -0.323 OA
HETATM   28  C   UNL     1      41.370 -16.105   3.618  1.00  0.00     0.352 A 
ENDBRANCH  18  20
ENDBRANCH   1  18
TORSDOF 2
ENDMDL
MODEL 8
REMARK VINA RESULT:      -8.2      4.102      8.155
REMARK  2 active torsions:
REMARK  status: ('A' for Active; 'I' for Inactive)
REMARK    1  A    between atoms: C_2  and  C_3 
REMARK    2  A    between atoms: C_3  and  C_4 
ROOT
HETATM    1  C   UNL     1      41.137 -13.615   3.659  1.00  0.00     0.085 A 
HETATM    2  S   UNL     1      42.264 -12.331   3.499  1.00  0.00    -0.063 SA
HETATM    3  C   UNL     1      41.463 -11.702   2.140  1.00  0.00     0.111 A 
HETATM    4  C   UNL     1      40.326 -12.421   1.804  1.00  0.00     0.028 A 
HETATM    5  C   UNL     1      40.129 -13.516   2.715  1.00  0.00     0.060 A 
HETATM    6  N   UNL     1      39.059 -14.344   2.639  1.00  0.00    -0.397 N 
HETATM    7  N   UNL     1      41.941 -10.612   1.510  1.00  0.00    -0.245 NA
HETATM    8  C   UNL     1      41.222 -10.198   0.442  1.00  0.00     0.042 A 
HETATM    9  C   UNL     1      40.064 -10.830  -0.016  1.00  0.00    -0.033 A 
HETATM   10  C   UNL     1      39.304 -10.343  -1.221  1.00  0.00     0.040 C 
HETATM   11  C   UNL     1      40.113 -10.435  -2.515  1.00  0.00     0.005 C 
HETATM   12  C   UNL     1      41.112  -9.293  -2.703  1.00  0.00     0.001 C 
HETATM   13  C   UNL     1      42.242  -9.252  -1.674  1.00  0.00     0.006 C 
HETATM   14  C   UNL     1      41.767  -8.971  -0.250  1.00  0.00     0.060 C 
HETATM   15  C   UNL     1      39.606 -11.957   0.683  1.00  0.00     0.026 A 
HETATM   16  H   UNL     1      38.267 -14.116   2.043  1.00  0.00     0.156 HD
HETATM   17  H   UNL     1      38.789 -14.955   3.407  1.00  0.00     0.156 HD
ENDROOT
BRANCH   1  18
HETATM   18  C   UNL     1      41.359 -14.577   4.724  1.00  0.00     0.201 C 
HETATM   19  O   UNL     1      40.886 -14.462   5.854  1.00  0.00    -0.286 OA
BRANCH  18  20
HETATM   20  C   UNL     1      42.201 -15.784   4.466  1.00  0.00     0.018 A 
HETATM   21  C   UNL     1      43.249 -16.074   5.371  1.00  0.00     0.018 A 
HETATM   22  C   UNL     1      44.075 -17.187   5.178  1.00  0.00     0.040 A 
HETATM   23  C   UNL     1      43.835 -17.976   4.075  1.00  0.00     0.105 A 
HETATM   24  C   UNL     1      42.828 -17.688   3.183  1.00  0.00     0.106 A 
HETATM   25  O   UNL     1      44.532 -19.090   3.729  1.00  0.00    -0.323 OA
HETATM   26  C   UNL     1      41.996 -16.599   3.343  1.00  0.00     0.055 A 
HETATM   27  O   UNL     1      42.769 -18.587   2.162  1.00  0.00    -0.323 OA
HETATM   28  C   UNL     1      43.857 -19.468   2.510  1.00  0.00     0.352 A 
ENDBRANCH  18  20
ENDBRANCH   1  18
TORSDOF 2
ENDMDL
MODEL 9
REMARK VINA RESULT:      -8.1      4.419      6.912
REMARK  2 active torsions:
REMARK  status: ('A' for Active; 'I' for Inactive)
REMARK    1  A    between atoms: C_2  and  C_3 
REMARK    2  A    between atoms: C_3  and  C_4 
ROOT
HETATM    1  C   UNL     1      43.942  -9.641   7.891  1.00  0.00     0.085 A 
HETATM    2  S   UNL     1      42.269  -9.631   7.510  1.00  0.00    -0.063 SA
HETATM    3  C   UNL     1      42.382 -11.095   6.656  1.00  0.00     0.111 A 
HETATM    4  C   UNL     1      43.662 -11.628   6.668  1.00  0.00     0.028 A 
HETATM    5  C   UNL     1      44.556 -10.788   7.417  1.00  0.00     0.060 A 
HETATM    6  N   UNL     1      45.856 -11.111   7.627  1.00  0.00    -0.397 N 
HETATM    7  N   UNL     1      41.296 -11.621   6.058  1.00  0.00    -0.245 NA
HETATM    8  C   UNL     1      41.502 -12.790   5.409  1.00  0.00     0.042 A 
HETATM    9  C   UNL     1      42.738 -13.436   5.330  1.00  0.00    -0.033 A 
HETATM   10  C   UNL     1      42.923 -14.729   4.580  1.00  0.00     0.040 C 
HETATM   11  C   UNL     1      42.668 -14.592   3.080  1.00  0.00     0.005 C 
HETATM   12  C   UNL     1      41.187 -14.602   2.700  1.00  0.00     0.001 C 
HETATM   13  C   UNL     1      40.380 -13.416   3.226  1.00  0.00     0.006 C 
HETATM   14  C   UNL     1      40.274 -13.372   4.749  1.00  0.00     0.060 C 
HETATM   15  C   UNL     1      43.834 -12.847   5.977  1.00  0.00     0.026 A 
HETATM   16  H   UNL     1      46.201 -12.042   7.410  1.00  0.00     0.156 HD
HETATM   17  H   UNL     1      46.419 -10.657   8.343  1.00  0.00     0.156 HD
ENDROOT
BRANCH   1  18
HETATM   18  C   UNL     1      44.468  -8.516   8.643  1.00  0.00     0.201 C 
HETATM   19  O   UNL     1      45.457  -7.868   8.298  1.00  0.00    -0.286 OA
BRANCH  18  20
HETATM   20  C   UNL     1      43.797  -8.094   9.909  1.00  0.00     0.018 A 
HETATM   21  C   UNL     1      43.933  -8.923  11.048  1.00  0.00     0.018 A 
HETATM   22  C   UNL     1      43.322  -8.583  12.259  1.00  0.00     0.040 A 
HETATM   23  C   UNL     1      42.577  -7.425  12.295  1.00  0.00     0.105 A 
HETATM   24  C   UNL     1      42.427  -6.625  11.186  1.00  0.00     0.106 A 
HETATM   25  O   UNL     1      41.915  -6.940  13.379  1.00  0.00    -0.323 OA
HETATM   26  C   UNL     1      43.016  -6.931   9.976  1.00  0.00     0.055 A 
HETATM   27  O   UNL     1      41.648  -5.537  11.435  1.00  0.00    -0.323 OA
HETATM   28  C   UNL     1      41.320  -5.748  12.824  1.00  0.00     0.352 A 
ENDBRANCH  18  20
ENDBRANCH   1  18
TORSDOF 2
ENDMDL
MODEL 10
REMARK VINA RESULT:      -8.1      5.185      8.653
REMARK  2 active torsions:
REMARK  status: ('A' for Active; 'I' for Inactive)
REMARK    1  A    between atoms: C_2  and  C_3 
REMARK    2  A    between atoms: C_3  and  C_4 
ROOT
HETATM    1  C   UNL     1      40.516 -13.412  -0.241  1.00  0.00     0.085 A 
HETATM    2  S   UNL     1      40.961 -12.204   0.892  1.00  0.00    -0.063 SA
HETATM    3  C   UNL     1      41.066 -11.012  -0.313  1.00  0.00     0.111 A 
HETATM    4  C   UNL     1      40.741 -11.489  -1.573  1.00  0.00     0.028 A 
HETATM    5  C   UNL     1      40.391 -12.883  -1.514  1.00  0.00     0.060 A 
HETATM    6  N   UNL     1      39.981 -13.578  -2.603  1.00  0.00    -0.397 N 
HETATM    7  N   UNL     1      41.432  -9.754   0.002  1.00  0.00    -0.245 NA
HETATM    8  C   UNL     1      41.480  -8.888  -1.036  1.00  0.00     0.042 A 
HETATM    9  C   UNL     1      41.188  -9.232  -2.358  1.00  0.00    -0.033 A 
HETATM   10  C   UNL     1      41.271  -8.236  -3.486  1.00  0.00     0.040 C 
HETATM   11  C   UNL     1      42.689  -7.714  -3.718  1.00  0.00     0.005 C 
HETATM   12  C   UNL     1      43.113  -6.619  -2.740  1.00  0.00     0.001 C 
HETATM   13  C   UNL     1      43.219  -7.064  -1.282  1.00  0.00     0.006 C 
HETATM   14  C   UNL     1      41.885  -7.481  -0.667  1.00  0.00     0.060 C 
HETATM   15  C   UNL     1      40.805 -10.554  -2.628  1.00  0.00     0.026 A 
HETATM   16  H   UNL     1      39.739 -13.097  -3.466  1.00  0.00     0.156 HD
HETATM   17  H   UNL     1      39.509 -14.477  -2.527  1.00  0.00     0.156 HD
ENDROOT
BRANCH   1  18
HETATM   18  C   UNL     1      40.312 -14.761   0.258  1.00  0.00     0.201 C 
HETATM   19  O   UNL     1      39.494 -15.547  -0.221  1.00  0.00    -0.286 OA
BRANCH  18  20
HETATM   20  C   UNL     1      41.123 -15.253   1.411  1.00  0.00     0.018 A 
HETATM   21  C   UNL     1      42.509 -15.460   1.216  1.00  0.00     0.018 A 
HETATM   22  C   UNL     1      43.318 -15.926   2.257  1.00  0.00     0.040 A 
HETATM   23  C   UNL     1      42.715 -16.184   3.468  1.00  0.00     0.105 A 
HETATM   24  C   UNL     1      41.364 -16.000   3.658  1.00  0.00     0.106 A 
HETATM   25  O   UNL     1      43.340 -16.639   4.586  1.00  0.00    -0.323 OA
HETATM   26  C   UNL     1      40.538 -15.543   2.653  1.00  0.00     0.055 A 
HETATM   27  O   UNL     1      40.972 -16.321   4.922  1.00  0.00    -0.323 OA
HETATM   28  C   UNL     1      42.227 -16.733   5.501  1.00  0.00     0.352 A 
ENDBRANCH  18  20
ENDBRANCH   1  18
TORSDOF 2
ENDMDL
