MODEL 1
REMARK VINA RESULT:      -8.5      0.000      0.000
REMARK  5 active torsions:
REMARK  status: ('A' for Active; 'I' for Inactive)
REMARK    1  A    between atoms: C_6  and  O_7 
REMARK    2  A    between atoms: O_7  and  C_8 
REMARK    3  A    between atoms: C_8  and  C_9 
REMARK       I    between atoms: C_9  and  N_10 
REMARK    4  A    between atoms: N_10  and  N_11 
REMARK    5  A    between atoms: C_12  and  C_13 
ROOT
HETATM    1  C   UNL     1      42.620 -13.569   3.864  1.00  0.00     0.261 C 
HETATM    2  N   UNL     1      42.628 -13.469   5.248  1.00  0.00    -0.246 N 
HETATM    3  O   UNL     1      43.129 -12.761   3.088  1.00  0.00    -0.269 OA
HETATM    4  H   UNL     1      42.144 -14.170   5.801  1.00  0.00     0.192 HD
ENDROOT
BRANCH   2   5
HETATM    5  N   UNL     1      43.236 -12.404   5.845  1.00  0.00    -0.184 NA
HETATM    6  C   UNL     1      44.322 -12.653   6.500  1.00  0.00     0.152 C 
BRANCH   6   7
HETATM    7  C   UNL     1      45.019 -11.561   7.147  1.00  0.00     0.011 A 
HETATM    8  C   UNL     1      44.665 -10.889   8.363  1.00  0.00     0.004 A 
HETATM    9  C   UNL     1      45.638  -9.915   8.600  1.00  0.00     0.043 A 
HETATM   10  C   UNL     1      43.614 -11.023   9.296  1.00  0.00     0.014 A 
HETATM   11  C   UNL     1      45.613  -9.071   9.716  1.00  0.00     0.030 A 
HETATM   12  N   UNL     1      46.545  -9.986   7.569  1.00  0.00    -0.364 N 
HETATM   13  C   UNL     1      44.563  -9.227  10.624  1.00  0.00     0.002 A 
HETATM   14  C   UNL     1      43.577 -10.188  10.420  1.00  0.00     0.001 A 
HETATM   15  H   UNL     1      47.362  -9.399   7.479  1.00  0.00     0.165 HD
HETATM   16  C   UNL     1      46.187 -10.974   6.695  1.00  0.00     0.102 A 
ENDBRANCH   6   7
ENDBRANCH   2   5
BRANCH   1  17
HETATM   17  C   UNL     1      41.999 -14.868   3.361  1.00  0.00     0.280 C 
BRANCH  17  18
HETATM   18  O   UNL     1      42.907 -15.589   2.527  1.00  0.00    -0.342 OA
BRANCH  18  19
HETATM   19  C   UNL     1      43.232 -16.828   3.015  1.00  0.00     0.069 A 
HETATM   20  C   UNL     1      43.244 -17.994   2.247  1.00  0.00     0.044 A 
HETATM   21  C   UNL     1      43.605 -19.228   2.815  1.00  0.00    -0.053 A 
HETATM   22  C   UNL     1      43.945 -19.288   4.181  1.00  0.00    -0.056 A 
HETATM   23  C   UNL     1      43.592 -20.462   1.954  1.00  0.00     0.049 C 
HETATM   24  C   UNL     1      44.330 -20.583   4.842  1.00  0.00     0.049 C 
HETATM   25  C   UNL     1      43.961 -18.103   4.934  1.00  0.00     0.010 A 
HETATM   26  C   UNL     1      43.615 -16.882   4.351  1.00  0.00     0.037 A 
ENDBRANCH  18  19
ENDBRANCH  17  18
ENDBRANCH   1  17
TORSDOF 5
ENDMDL
MODEL 2
REMARK VINA RESULT:      -8.5      2.001      2.508
REMARK  5 active torsions:
REMARK  status: ('A' for Active; 'I' for Inactive)
REMARK    1  A    between atoms: C_6  and  O_7 
REMARK    2  A    between atoms: O_7  and  C_8 
REMARK    3  A    between atoms: C_8  and  C_9 
REMARK       I    between atoms: C_9  and  N_10 
REMARK    4  A    between atoms: N_10  and  N_11 
REMARK    5  A    between atoms: C_12  and  C_13 
ROOT
HETATM    1  C   UNL     1      43.182 -15.164   7.429  1.00  0.00     0.261 C 
HETATM    2  N   UNL     1      43.508 -14.025   6.707  1.00  0.00    -0.246 N 
HETATM    3  O   UNL     1      43.189 -15.257   8.657  1.00  0.00    -0.269 OA
HETATM    4  H   UNL     1      43.510 -14.062   5.692  1.00  0.00     0.192 HD
ENDROOT
BRANCH   2   5
HETATM    5  N   UNL     1      43.875 -12.889   7.367  1.00  0.00    -0.184 NA
HETATM    6  C   UNL     1      44.600 -12.047   6.706  1.00  0.00     0.152 C 
BRANCH   6   7
HETATM    7  C   UNL     1      45.013 -10.818   7.349  1.00  0.00     0.011 A 
HETATM    8  C   UNL     1      44.179  -9.781   7.885  1.00  0.00     0.004 A 
HETATM    9  C   UNL     1      45.021  -8.802   8.417  1.00  0.00     0.043 A 
HETATM   10  C   UNL     1      42.785  -9.587   7.983  1.00  0.00     0.014 A 
HETATM   11  C   UNL     1      44.542  -7.641   9.036  1.00  0.00     0.030 A 
HETATM   12  N   UNL     1      46.315  -9.219   8.208  1.00  0.00    -0.364 N 
HETATM   13  C   UNL     1      43.158  -7.476   9.120  1.00  0.00     0.002 A 
HETATM   14  C   UNL     1      42.289  -8.433   8.602  1.00  0.00     0.001 A 
HETATM   15  H   UNL     1      47.138  -8.708   8.493  1.00  0.00     0.165 HD
HETATM   16  C   UNL     1      46.322 -10.430   7.574  1.00  0.00     0.102 A 
ENDBRANCH   6   7
ENDBRANCH   2   5
BRANCH   1  17
HETATM   17  C   UNL     1      42.690 -16.310   6.551  1.00  0.00     0.280 C 
BRANCH  17  18
HETATM   18  O   UNL     1      42.938 -16.049   5.169  1.00  0.00    -0.342 OA
BRANCH  18  19
HETATM   19  C   UNL     1      43.188 -17.180   4.435  1.00  0.00     0.069 A 
HETATM   20  C   UNL     1      43.679 -18.371   4.974  1.00  0.00     0.044 A 
HETATM   21  C   UNL     1      43.895 -19.496   4.159  1.00  0.00    -0.053 A 
HETATM   22  C   UNL     1      43.626 -19.412   2.779  1.00  0.00    -0.056 A 
HETATM   23  C   UNL     1      44.436 -20.756   4.780  1.00  0.00     0.049 C 
HETATM   24  C   UNL     1      43.848 -20.582   1.859  1.00  0.00     0.049 C 
HETATM   25  C   UNL     1      43.101 -18.219   2.256  1.00  0.00     0.010 A 
HETATM   26  C   UNL     1      42.878 -17.115   3.081  1.00  0.00     0.037 A 
ENDBRANCH  18  19
ENDBRANCH  17  18
ENDBRANCH   1  17
TORSDOF 5
ENDMDL
MODEL 3
REMARK VINA RESULT:      -8.4      4.670      8.245
REMARK  5 active torsions:
REMARK  status: ('A' for Active; 'I' for Inactive)
REMARK    1  A    between atoms: C_6  and  O_7 
REMARK    2  A    between atoms: O_7  and  C_8 
REMARK    3  A    between atoms: C_8  and  C_9 
REMARK       I    between atoms: C_9  and  N_10 
REMARK    4  A    between atoms: N_10  and  N_11 
REMARK    5  A    between atoms: C_12  and  C_13 
ROOT
HETATM    1  C   UNL     1      41.064 -14.948   3.711  1.00  0.00     0.261 C 
HETATM    2  N   UNL     1      40.979 -13.710   3.092  1.00  0.00    -0.246 N 
HETATM    3  O   UNL     1      40.287 -15.887   3.537  1.00  0.00    -0.269 OA
HETATM    4  H   UNL     1      41.648 -12.985   3.334  1.00  0.00     0.192 HD
ENDROOT
BRANCH   2   5
HETATM    5  N   UNL     1      39.966 -13.462   2.213  1.00  0.00    -0.184 NA
HETATM    6  C   UNL     1      40.290 -12.854   1.118  1.00  0.00     0.152 C 
BRANCH   6   7
HETATM    7  C   UNL     1      39.260 -12.571   0.140  1.00  0.00     0.011 A 
HETATM    8  C   UNL     1      38.930 -13.325  -1.034  1.00  0.00     0.004 A 
HETATM    9  C   UNL     1      37.863 -12.677  -1.659  1.00  0.00     0.043 A 
HETATM   10  C   UNL     1      39.429 -14.508  -1.620  1.00  0.00     0.014 A 
HETATM   11  C   UNL     1      37.272 -13.148  -2.838  1.00  0.00     0.030 A 
HETATM   12  N   UNL     1      37.558 -11.570  -0.903  1.00  0.00    -0.364 N 
HETATM   13  C   UNL     1      37.785 -14.322  -3.395  1.00  0.00     0.002 A 
HETATM   14  C   UNL     1      38.847 -14.995  -2.797  1.00  0.00     0.001 A 
HETATM   15  H   UNL     1      36.821 -10.912  -1.115  1.00  0.00     0.165 HD
HETATM   16  C   UNL     1      38.386 -11.500   0.183  1.00  0.00     0.102 A 
ENDBRANCH   6   7
ENDBRANCH   2   5
BRANCH   1  17
HETATM   17  C   UNL     1      42.309 -15.101   4.577  1.00  0.00     0.280 C 
BRANCH  17  18
HETATM   18  O   UNL     1      43.403 -15.632   3.828  1.00  0.00    -0.342 OA
BRANCH  18  19
HETATM   19  C   UNL     1      43.547 -16.988   3.957  1.00  0.00     0.069 A 
HETATM   20  C   UNL     1      43.501 -17.886   2.888  1.00  0.00     0.044 A 
HETATM   21  C   UNL     1      43.675 -19.266   3.097  1.00  0.00    -0.053 A 
HETATM   22  C   UNL     1      43.883 -19.746   4.405  1.00  0.00    -0.056 A 
HETATM   23  C   UNL     1      43.606 -20.199   1.918  1.00  0.00     0.049 C 
HETATM   24  C   UNL     1      44.065 -21.213   4.686  1.00  0.00     0.049 C 
HETATM   25  C   UNL     1      43.960 -18.830   5.466  1.00  0.00     0.010 A 
HETATM   26  C   UNL     1      43.801 -17.461   5.240  1.00  0.00     0.037 A 
ENDBRANCH  18  19
ENDBRANCH  17  18
ENDBRANCH   1  17
TORSDOF 5
ENDMDL
MODEL 4
REMARK VINA RESULT:      -8.3      2.236      9.622
REMARK  5 active torsions:
REMARK  status: ('A' for Active; 'I' for Inactive)
REMARK    1  A    between atoms: C_6  and  O_7 
REMARK    2  A    between atoms: O_7  and  C_8 
REMARK    3  A    between atoms: C_8  and  C_9 
REMARK       I    between atoms: C_9  and  N_10 
REMARK    4  A    between atoms: N_10  and  N_11 
REMARK    5  A    between atoms: C_12  and  C_13 
ROOT
HETATM    1  C   UNL     1      44.950 -11.511   6.906  1.00  0.00     0.261 C 
HETATM    2  N   UNL     1      43.952 -12.470   7.004  1.00  0.00    -0.246 N 
HETATM    3  O   UNL     1      45.491 -11.150   5.861  1.00  0.00    -0.269 OA
HETATM    4  H   UNL     1      43.597 -12.727   7.920  1.00  0.00     0.192 HD
ENDROOT
BRANCH   2   5
HETATM    5  N   UNL     1      43.502 -13.095   5.879  1.00  0.00    -0.184 NA
HETATM    6  C   UNL     1      43.516 -14.388   5.893  1.00  0.00     0.152 C 
BRANCH   6   7
HETATM    7  C   UNL     1      43.041 -15.109   4.730  1.00  0.00     0.011 A 
HETATM    8  C   UNL     1      43.403 -16.429   4.305  1.00  0.00     0.004 A 
HETATM    9  C   UNL     1      42.682 -16.705   3.141  1.00  0.00     0.043 A 
HETATM   10  C   UNL     1      44.267 -17.427   4.806  1.00  0.00     0.014 A 
HETATM   11  C   UNL     1      42.782 -17.921   2.454  1.00  0.00     0.030 A 
HETATM   12  N   UNL     1      41.917 -15.597   2.864  1.00  0.00    -0.364 N 
HETATM   13  C   UNL     1      43.644 -18.890   2.974  1.00  0.00     0.002 A 
HETATM   14  C   UNL     1      44.376 -18.650   4.133  1.00  0.00     0.001 A 
HETATM   15  H   UNL     1      41.289 -15.513   2.077  1.00  0.00     0.165 HD
HETATM   16  C   UNL     1      42.120 -14.636   3.814  1.00  0.00     0.102 A 
ENDBRANCH   6   7
ENDBRANCH   2   5
BRANCH   1  17
HETATM   17  C   UNL     1      45.262 -10.832   8.235  1.00  0.00     0.280 C 
BRANCH  17  18
HETATM   18  O   UNL     1      44.326 -11.211   9.245  1.00  0.00    -0.342 OA
BRANCH  18  19
HETATM   19  C   UNL     1      43.904 -10.163  10.020  1.00  0.00     0.069 A 
HETATM   20  C   UNL     1      43.703  -8.866   9.542  1.00  0.00     0.044 A 
HETATM   21  C   UNL     1      43.252  -7.844  10.397  1.00  0.00    -0.053 A 
HETATM   22  C   UNL     1      43.015  -8.133  11.755  1.00  0.00    -0.056 A 
HETATM   23  C   UNL     1      43.060  -6.458   9.843  1.00  0.00     0.049 C 
HETATM   24  C   UNL     1      42.541  -7.076  12.716  1.00  0.00     0.049 C 
HETATM   25  C   UNL     1      43.189  -9.449  12.215  1.00  0.00     0.010 A 
HETATM   26  C   UNL     1      43.623 -10.456  11.351  1.00  0.00     0.037 A 
ENDBRANCH  18  19
ENDBRANCH  17  18
ENDBRANCH   1  17
TORSDOF 5
ENDMDL
MODEL 5
REMARK VINA RESULT:      -8.2      5.096      8.465
REMARK  5 active torsions:
REMARK  status: ('A' for Active; 'I' for Inactive)
REMARK    1  A    between atoms: C_6  and  O_7 
REMARK    2  A    between atoms: O_7  and  C_8 
REMARK    3  A    between atoms: C_8  and  C_9 
REMARK       I    between atoms: C_9  and  N_10 
REMARK    4  A    between atoms: N_10  and  N_11 
REMARK    5  A    between atoms: C_12  and  C_13 
ROOT
HETATM    1  C   UNL     1      40.972 -14.234   2.842  1.00  0.00     0.261 C 
HETATM    2  N   UNL     1      40.928 -14.760   1.559  1.00  0.00    -0.246 N 
HETATM    3  O   UNL     1      40.141 -13.467   3.327  1.00  0.00    -0.269 OA
HETATM    4  H   UNL     1      41.686 -15.355   1.238  1.00  0.00     0.192 HD
ENDROOT
BRANCH   2   5
HETATM    5  N   UNL     1      39.900 -14.426   0.727  1.00  0.00    -0.184 NA
HETATM    6  C   UNL     1      40.216 -14.143  -0.494  1.00  0.00     0.152 C 
BRANCH   6   7
HETATM    7  C   UNL     1      39.166 -13.791  -1.428  1.00  0.00     0.011 A 
HETATM    8  C   UNL     1      38.351 -12.612  -1.432  1.00  0.00     0.004 A 
HETATM    9  C   UNL     1      37.489 -12.704  -2.528  1.00  0.00     0.043 A 
HETATM   10  C   UNL     1      38.270 -11.464  -0.615  1.00  0.00     0.014 A 
HETATM   11  C   UNL     1      36.554 -11.713  -2.845  1.00  0.00     0.030 A 
HETATM   12  N   UNL     1      37.763 -13.893  -3.162  1.00  0.00    -0.364 N 
HETATM   13  C   UNL     1      36.497 -10.587  -2.020  1.00  0.00     0.002 A 
HETATM   14  C   UNL     1      37.342 -10.461  -0.921  1.00  0.00     0.001 A 
HETATM   15  H   UNL     1      37.292 -14.225  -3.992  1.00  0.00     0.165 HD
HETATM   16  C   UNL     1      38.772 -14.550  -2.515  1.00  0.00     0.102 A 
ENDBRANCH   6   7
ENDBRANCH   2   5
BRANCH   1  17
HETATM   17  C   UNL     1      42.121 -14.789   3.678  1.00  0.00     0.280 C 
BRANCH  17  18
HETATM   18  O   UNL     1      43.074 -15.473   2.863  1.00  0.00    -0.342 OA
BRANCH  18  19
HETATM   19  C   UNL     1      43.351 -16.744   3.295  1.00  0.00     0.069 A 
HETATM   20  C   UNL     1      43.360 -17.868   2.467  1.00  0.00     0.044 A 
HETATM   21  C   UNL     1      43.670 -19.140   2.980  1.00  0.00    -0.053 A 
HETATM   22  C   UNL     1      43.960 -19.279   4.351  1.00  0.00    -0.056 A 
HETATM   23  C   UNL     1      43.656 -20.326   2.054  1.00  0.00     0.049 C 
HETATM   24  C   UNL     1      44.289 -20.618   4.955  1.00  0.00     0.049 C 
HETATM   25  C   UNL     1      43.981 -18.136   5.166  1.00  0.00     0.010 A 
HETATM   26  C   UNL     1      43.685 -16.878   4.639  1.00  0.00     0.037 A 
ENDBRANCH  18  19
ENDBRANCH  17  18
ENDBRANCH   1  17
TORSDOF 5
ENDMDL
MODEL 6
REMARK VINA RESULT:      -8.2      4.929      8.564
REMARK  5 active torsions:
REMARK  status: ('A' for Active; 'I' for Inactive)
REMARK    1  A    between atoms: C_6  and  O_7 
REMARK    2  A    between atoms: O_7  and  C_8 
REMARK    3  A    between atoms: C_8  and  C_9 
REMARK       I    between atoms: C_9  and  N_10 
REMARK    4  A    between atoms: N_10  and  N_11 
REMARK    5  A    between atoms: C_12  and  C_13 
ROOT
HETATM    1  C   UNL     1      41.288 -13.126   2.382  1.00  0.00     0.261 C 
HETATM    2  N   UNL     1      42.615 -13.520   2.464  1.00  0.00    -0.246 N 
HETATM    3  O   UNL     1      40.362 -13.594   3.044  1.00  0.00    -0.269 OA
HETATM    4  H   UNL     1      43.300 -13.098   1.843  1.00  0.00     0.192 HD
ENDROOT
BRANCH   2   5
HETATM    5  N   UNL     1      42.975 -14.507   3.334  1.00  0.00    -0.184 NA
HETATM    6  C   UNL     1      43.078 -15.698   2.843  1.00  0.00     0.152 C 
BRANCH   6   7
HETATM    7  C   UNL     1      43.466 -16.787   3.715  1.00  0.00     0.011 A 
HETATM    8  C   UNL     1      43.526 -18.185   3.405  1.00  0.00     0.004 A 
HETATM    9  C   UNL     1      43.966 -18.849   4.552  1.00  0.00     0.043 A 
HETATM   10  C   UNL     1      43.260 -18.953   2.250  1.00  0.00     0.014 A 
HETATM   11  C   UNL     1      44.151 -20.236   4.605  1.00  0.00     0.030 A 
HETATM   12  N   UNL     1      44.160 -17.897   5.524  1.00  0.00    -0.364 N 
HETATM   13  C   UNL     1      43.882 -20.970   3.447  1.00  0.00     0.002 A 
HETATM   14  C   UNL     1      43.444 -20.341   2.286  1.00  0.00     0.001 A 
HETATM   15  H   UNL     1      44.482 -18.089   6.463  1.00  0.00     0.165 HD
HETATM   16  C   UNL     1      43.870 -16.655   5.032  1.00  0.00     0.102 A 
ENDBRANCH   6   7
ENDBRANCH   2   5
BRANCH   1  17
HETATM   17  C   UNL     1      41.071 -11.942   1.445  1.00  0.00     0.280 C 
BRANCH  17  18
HETATM   18  O   UNL     1      41.359 -12.290   0.091  1.00  0.00    -0.342 OA
BRANCH  18  19
HETATM   19  C   UNL     1      40.239 -12.541  -0.659  1.00  0.00     0.069 A 
HETATM   20  C   UNL     1      40.023 -13.722  -1.372  1.00  0.00     0.044 A 
HETATM   21  C   UNL     1      38.840 -13.914  -2.108  1.00  0.00    -0.053 A 
HETATM   22  C   UNL     1      37.870 -12.893  -2.135  1.00  0.00    -0.056 A 
HETATM   23  C   UNL     1      38.653 -15.197  -2.871  1.00  0.00     0.049 C 
HETATM   24  C   UNL     1      36.591 -13.041  -2.914  1.00  0.00     0.049 C 
HETATM   25  C   UNL     1      38.085 -11.724  -1.387  1.00  0.00     0.010 A 
HETATM   26  C   UNL     1      39.258 -11.555  -0.650  1.00  0.00     0.037 A 
ENDBRANCH  18  19
ENDBRANCH  17  18
ENDBRANCH   1  17
TORSDOF 5
ENDMDL
MODEL 7
REMARK VINA RESULT:      -7.8      1.691      2.362
REMARK  5 active torsions:
REMARK  status: ('A' for Active; 'I' for Inactive)
REMARK    1  A    between atoms: C_6  and  O_7 
REMARK    2  A    between atoms: O_7  and  C_8 
REMARK    3  A    between atoms: C_8  and  C_9 
REMARK       I    between atoms: C_9  and  N_10 
REMARK    4  A    between atoms: N_10  and  N_11 
REMARK    5  A    between atoms: C_12  and  C_13 
ROOT
HETATM    1  C   UNL     1      42.405 -13.277   4.693  1.00  0.00     0.261 C 
HETATM    2  N   UNL     1      42.957 -13.118   5.956  1.00  0.00    -0.246 N 
HETATM    3  O   UNL     1      41.586 -12.521   4.172  1.00  0.00    -0.269 OA
HETATM    4  H   UNL     1      43.597 -13.822   6.313  1.00  0.00     0.192 HD
ENDROOT
BRANCH   2   5
HETATM    5  N   UNL     1      42.591 -12.052   6.724  1.00  0.00    -0.184 NA
HETATM    6  C   UNL     1      43.428 -11.068   6.779  1.00  0.00     0.152 C 
BRANCH   6   7
HETATM    7  C   UNL     1      43.091  -9.902   7.570  1.00  0.00     0.011 A 
HETATM    8  C   UNL     1      43.388  -9.661   8.952  1.00  0.00     0.004 A 
HETATM    9  C   UNL     1      42.879  -8.400   9.273  1.00  0.00     0.043 A 
HETATM   10  C   UNL     1      44.054 -10.389   9.961  1.00  0.00     0.014 A 
HETATM   11  C   UNL     1      43.000  -7.834  10.548  1.00  0.00     0.030 A 
HETATM   12  N   UNL     1      42.290  -7.896   8.138  1.00  0.00    -0.364 N 
HETATM   13  C   UNL     1      43.666  -8.576  11.526  1.00  0.00     0.002 A 
HETATM   14  C   UNL     1      44.187  -9.834  11.240  1.00  0.00     0.001 A 
HETATM   15  H   UNL     1      41.840  -6.994   8.074  1.00  0.00     0.165 HD
HETATM   16  C   UNL     1      42.417  -8.786   7.108  1.00  0.00     0.102 A 
ENDBRANCH   6   7
ENDBRANCH   2   5
BRANCH   1  17
HETATM   17  C   UNL     1      42.998 -14.453   3.924  1.00  0.00     0.280 C 
BRANCH  17  18
HETATM   18  O   UNL     1      43.370 -15.515   4.803  1.00  0.00    -0.342 OA
BRANCH  18  19
HETATM   19  C   UNL     1      43.471 -16.732   4.179  1.00  0.00     0.069 A 
HETATM   20  C   UNL     1      43.899 -17.902   4.810  1.00  0.00     0.044 A 
HETATM   21  C   UNL     1      43.961 -19.119   4.108  1.00  0.00    -0.053 A 
HETATM   22  C   UNL     1      43.601 -19.150   2.746  1.00  0.00    -0.056 A 
HETATM   23  C   UNL     1      44.439 -20.353   4.823  1.00  0.00     0.049 C 
HETATM   24  C   UNL     1      43.658 -20.421   1.944  1.00  0.00     0.049 C 
HETATM   25  C   UNL     1      43.142 -17.973   2.133  1.00  0.00     0.010 A 
HETATM   26  C   UNL     1      43.071 -16.776   2.848  1.00  0.00     0.037 A 
ENDBRANCH  18  19
ENDBRANCH  17  18
ENDBRANCH   1  17
TORSDOF 5
ENDMDL
MODEL 8
REMARK VINA RESULT:      -7.8      5.084      9.347
REMARK  5 active torsions:
REMARK  status: ('A' for Active; 'I' for Inactive)
REMARK    1  A    between atoms: C_6  and  O_7 
REMARK    2  A    between atoms: O_7  and  C_8 
REMARK    3  A    between atoms: C_8  and  C_9 
REMARK       I    between atoms: C_9  and  N_10 
REMARK    4  A    between atoms: N_10  and  N_11 
REMARK    5  A    between atoms: C_12  and  C_13 
ROOT
HETATM    1  C   UNL     1      40.374 -14.485   1.123  1.00  0.00     0.261 C 
HETATM    2  N   UNL     1      41.288 -14.293   2.148  1.00  0.00    -0.246 N 
HETATM    3  O   UNL     1      39.839 -15.557   0.836  1.00  0.00    -0.269 OA
HETATM    4  H   UNL     1      41.704 -13.376   2.280  1.00  0.00     0.192 HD
ENDROOT
BRANCH   2   5
HETATM    5  N   UNL     1      41.661 -15.348   2.928  1.00  0.00    -0.184 NA
HETATM    6  C   UNL     1      42.923 -15.630   2.951  1.00  0.00     0.152 C 
BRANCH   6   7
HETATM    7  C   UNL     1      43.382 -16.734   3.769  1.00  0.00     0.011 A 
HETATM    8  C   UNL     1      43.452 -18.121   3.415  1.00  0.00     0.004 A 
HETATM    9  C   UNL     1      43.970 -18.806   4.517  1.00  0.00     0.043 A 
HETATM   10  C   UNL     1      43.137 -18.862   2.256  1.00  0.00     0.014 A 
HETATM   11  C   UNL     1      44.186 -20.189   4.519  1.00  0.00     0.030 A 
HETATM   12  N   UNL     1      44.200 -17.877   5.504  1.00  0.00    -0.364 N 
HETATM   13  C   UNL     1      43.867 -20.897   3.358  1.00  0.00     0.002 A 
HETATM   14  C   UNL     1      43.351 -20.246   2.241  1.00  0.00     0.001 A 
HETATM   15  H   UNL     1      44.578 -18.088   6.417  1.00  0.00     0.165 HD
HETATM   16  C   UNL     1      43.857 -16.629   5.064  1.00  0.00     0.102 A 
ENDBRANCH   6   7
ENDBRANCH   2   5
BRANCH   1  17
HETATM   17  C   UNL     1      39.982 -13.191   0.419  1.00  0.00     0.280 C 
BRANCH  17  18
HETATM   18  O   UNL     1      41.132 -12.431   0.049  1.00  0.00    -0.342 OA
BRANCH  18  19
HETATM   19  C   UNL     1      40.904 -11.559  -0.983  1.00  0.00     0.069 A 
HETATM   20  C   UNL     1      41.565 -10.339  -1.139  1.00  0.00     0.044 A 
HETATM   21  C   UNL     1      41.288  -9.503  -2.236  1.00  0.00    -0.053 A 
HETATM   22  C   UNL     1      40.319  -9.899  -3.179  1.00  0.00    -0.056 A 
HETATM   23  C   UNL     1      42.014  -8.191  -2.358  1.00  0.00     0.049 C 
HETATM   24  C   UNL     1      39.977  -9.040  -4.366  1.00  0.00     0.049 C 
HETATM   25  C   UNL     1      39.687 -11.143  -3.029  1.00  0.00     0.010 A 
HETATM   26  C   UNL     1      39.983 -11.969  -1.943  1.00  0.00     0.037 A 
ENDBRANCH  18  19
ENDBRANCH  17  18
ENDBRANCH   1  17
TORSDOF 5
ENDMDL
MODEL 9
REMARK VINA RESULT:      -7.8      5.657      8.048
REMARK  5 active torsions:
REMARK  status: ('A' for Active; 'I' for Inactive)
REMARK    1  A    between atoms: C_6  and  O_7 
REMARK    2  A    between atoms: O_7  and  C_8 
REMARK    3  A    between atoms: C_8  and  C_9 
REMARK       I    between atoms: C_9  and  N_10 
REMARK    4  A    between atoms: N_10  and  N_11 
REMARK    5  A    between atoms: C_12  and  C_13 
ROOT
HETATM    1  C   UNL     1      40.587 -14.562   0.737  1.00  0.00     0.261 C 
HETATM    2  N   UNL     1      41.209 -13.335   0.555  1.00  0.00    -0.246 N 
HETATM    3  O   UNL     1      39.829 -15.104  -0.068  1.00  0.00    -0.269 OA
HETATM    4  H   UNL     1      41.786 -12.954   1.299  1.00  0.00     0.192 HD
ENDROOT
BRANCH   2   5
HETATM    5  N   UNL     1      40.993 -12.632  -0.593  1.00  0.00    -0.184 NA
HETATM    6  C   UNL     1      41.154 -11.351  -0.523  1.00  0.00     0.152 C 
BRANCH   6   7
HETATM    7  C   UNL     1      40.948 -10.551  -1.712  1.00  0.00     0.011 A 
HETATM    8  C   UNL     1      41.621  -9.341  -2.086  1.00  0.00     0.004 A 
HETATM    9  C   UNL     1      41.101  -8.938  -3.318  1.00  0.00     0.043 A 
HETATM   10  C   UNL     1      42.636  -8.554  -1.501  1.00  0.00     0.014 A 
HETATM   11  C   UNL     1      41.540  -7.792  -3.991  1.00  0.00     0.030 A 
HETATM   12  N   UNL     1      40.146  -9.859  -3.678  1.00  0.00    -0.364 N 
HETATM   13  C   UNL     1      42.547  -7.033  -3.389  1.00  0.00     0.002 A 
HETATM   14  C   UNL     1      43.089  -7.406  -2.163  1.00  0.00     0.001 A 
HETATM   15  H   UNL     1      39.603  -9.824  -4.530  1.00  0.00     0.165 HD
HETATM   16  C   UNL     1      40.050 -10.835  -2.725  1.00  0.00     0.102 A 
ENDBRANCH   6   7
ENDBRANCH   2   5
BRANCH   1  17
HETATM   17  C   UNL     1      41.016 -15.267   2.019  1.00  0.00     0.280 C 
BRANCH  17  18
HETATM   18  O   UNL     1      42.439 -15.318   2.133  1.00  0.00    -0.342 OA
BRANCH  18  19
HETATM   19  C   UNL     1      42.900 -16.465   2.725  1.00  0.00     0.069 A 
HETATM   20  C   UNL     1      42.939 -17.710   2.094  1.00  0.00     0.044 A 
HETATM   21  C   UNL     1      43.442 -18.841   2.761  1.00  0.00    -0.053 A 
HETATM   22  C   UNL     1      43.897 -18.715   4.089  1.00  0.00    -0.056 A 
HETATM   23  C   UNL     1      43.455 -20.166   2.048  1.00  0.00     0.049 C 
HETATM   24  C   UNL     1      44.436 -19.894   4.853  1.00  0.00     0.049 C 
HETATM   25  C   UNL     1      43.883 -17.451   4.700  1.00  0.00     0.010 A 
HETATM   26  C   UNL     1      43.394 -16.334   4.019  1.00  0.00     0.037 A 
ENDBRANCH  18  19
ENDBRANCH  17  18
ENDBRANCH   1  17
TORSDOF 5
ENDMDL
MODEL 10
REMARK VINA RESULT:      -7.7      5.555      8.587
REMARK  5 active torsions:
REMARK  status: ('A' for Active; 'I' for Inactive)
REMARK    1  A    between atoms: C_6  and  O_7 
REMARK    2  A    between atoms: O_7  and  C_8 
REMARK    3  A    between atoms: C_8  and  C_9 
REMARK       I    between atoms: C_9  and  N_10 
REMARK    4  A    between atoms: N_10  and  N_11 
REMARK    5  A    between atoms: C_12  and  C_13 
ROOT
HETATM    1  C   UNL     1      41.311 -14.250   1.186  1.00  0.00     0.261 C 
HETATM    2  N   UNL     1      40.512 -14.710   0.150  1.00  0.00    -0.246 N 
HETATM    3  O   UNL     1      41.767 -13.111   1.285  1.00  0.00    -0.269 OA
HETATM    4  H   UNL     1      40.219 -15.682   0.140  1.00  0.00     0.192 HD
ENDROOT
BRANCH   2   5
HETATM    5  N   UNL     1      40.179 -13.868  -0.870  1.00  0.00    -0.184 NA
HETATM    6  C   UNL     1      39.104 -13.167  -0.710  1.00  0.00     0.152 C 
BRANCH   6   7
HETATM    7  C   UNL     1      38.703 -12.247  -1.755  1.00  0.00     0.011 A 
HETATM    8  C   UNL     1      39.437 -11.131  -2.274  1.00  0.00     0.004 A 
HETATM    9  C   UNL     1      38.658 -10.549  -3.277  1.00  0.00     0.043 A 
HETATM   10  C   UNL     1      40.700 -10.564  -1.998  1.00  0.00     0.014 A 
HETATM   11  C   UNL     1      39.073  -9.433  -4.013  1.00  0.00     0.030 A 
HETATM   12  N   UNL     1      37.494 -11.276  -3.362  1.00  0.00    -0.364 N 
HETATM   13  C   UNL     1      40.328  -8.894  -3.719  1.00  0.00     0.002 A 
HETATM   14  C   UNL     1      41.132  -9.449  -2.727  1.00  0.00     0.001 A 
HETATM   15  H   UNL     1      36.740 -11.085  -4.007  1.00  0.00     0.165 HD
HETATM   16  C   UNL     1      37.513 -12.301  -2.457  1.00  0.00     0.102 A 
ENDBRANCH   6   7
ENDBRANCH   2   5
BRANCH   1  17
HETATM   17  C   UNL     1      41.501 -15.277   2.297  1.00  0.00     0.280 C 
BRANCH  17  18
HETATM   18  O   UNL     1      42.873 -15.388   2.675  1.00  0.00    -0.342 OA
BRANCH  18  19
HETATM   19  C   UNL     1      43.214 -16.632   3.140  1.00  0.00     0.069 A 
HETATM   20  C   UNL     1      43.210 -17.788   2.357  1.00  0.00     0.044 A 
HETATM   21  C   UNL     1      43.589 -19.028   2.901  1.00  0.00    -0.053 A 
HETATM   22  C   UNL     1      43.963 -19.103   4.257  1.00  0.00    -0.056 A 
HETATM   23  C   UNL     1      43.558 -20.252   2.025  1.00  0.00     0.049 C 
HETATM   24  C   UNL     1      44.368 -20.405   4.893  1.00  0.00     0.049 C 
HETATM   25  C   UNL     1      43.995 -17.927   5.024  1.00  0.00     0.010 A 
HETATM   26  C   UNL     1      43.630 -16.700   4.465  1.00  0.00     0.037 A 
ENDBRANCH  18  19
ENDBRANCH  17  18
ENDBRANCH   1  17
TORSDOF 5
ENDMDL
