MODEL 1
REMARK VINA RESULT:      -9.0      0.000      0.000
REMARK  3 active torsions:
REMARK  status: ('A' for Active; 'I' for Inactive)
REMARK    1  A    between atoms: C_2  and  C_3 
REMARK    2  A    between atoms: C_12  and  C_13 
REMARK    3  A    between atoms: C_13  and  C_14 
ROOT
HETATM    1  C   UNL     1      43.743 -18.265   3.439  1.00  0.00    -0.027 A 
HETATM    2  C   UNL     1      43.796 -18.617   4.798  1.00  0.00     0.039 A 
HETATM    3  C   UNL     1      44.158 -20.006   5.252  1.00  0.00     0.071 C 
HETATM    4  N   UNL     1      43.566 -17.761   5.806  1.00  0.00    -0.245 NA
HETATM    5  C   UNL     1      43.225 -16.514   5.447  1.00  0.00     0.111 A 
HETATM    6  C   UNL     1      43.077 -16.018   4.157  1.00  0.00     0.034 A 
HETATM    7  C   UNL     1      43.402 -16.921   3.090  1.00  0.00    -0.038 A 
HETATM    8  C   UNL     1      43.387 -16.499   1.641  1.00  0.00     0.050 C 
HETATM    9  S   UNL     1      42.954 -15.359   6.658  1.00  0.00    -0.063 SA
HETATM   10  C   UNL     1      42.559 -14.146   5.520  1.00  0.00     0.085 A 
HETATM   11  C   UNL     1      42.620 -14.635   4.224  1.00  0.00     0.061 A 
HETATM   12  N   UNL     1      42.318 -13.891   3.133  1.00  0.00    -0.397 N 
HETATM   13  H   UNL     1      41.990 -12.931   3.180  1.00  0.00     0.156 HD
HETATM   14  H   UNL     1      42.058 -14.329   2.255  1.00  0.00     0.156 HD
ENDROOT
BRANCH  10  15
HETATM   15  C   UNL     1      42.246 -12.831   6.054  1.00  0.00     0.201 C 
HETATM   16  O   UNL     1      41.097 -12.395   6.151  1.00  0.00    -0.286 OA
BRANCH  15  17
HETATM   17  C   UNL     1      43.332 -11.921   6.518  1.00  0.00     0.018 A 
HETATM   18  C   UNL     1      43.065 -10.799   7.317  1.00  0.00     0.055 A 
HETATM   19  C   UNL     1      44.138 -10.031   7.715  1.00  0.00     0.106 A 
HETATM   20  C   UNL     1      45.433 -10.343   7.363  1.00  0.00     0.105 A 
HETATM   21  O   UNL     1      44.069  -8.908   8.481  1.00  0.00    -0.323 OA
HETATM   22  O   UNL     1      46.335  -9.458   7.864  1.00  0.00    -0.323 OA
HETATM   23  C   UNL     1      45.731 -11.445   6.594  1.00  0.00     0.040 A 
HETATM   24  C   UNL     1      45.467  -8.563   8.591  1.00  0.00     0.352 A 
HETATM   25  C   UNL     1      44.665 -12.245   6.172  1.00  0.00     0.018 A 
ENDBRANCH  15  17
ENDBRANCH  10  15
BRANCH   1  26
HETATM   26  C   UNL     1      44.011 -19.320   2.378  1.00  0.00     0.036 C 
HETATM   27  C   UNL     1      42.743 -20.058   1.971  1.00  0.00     0.010 C 
ENDBRANCH   1  26
TORSDOF 3
ENDMDL
MODEL 2
REMARK VINA RESULT:      -8.1      4.162      5.602
REMARK  3 active torsions:
REMARK  status: ('A' for Active; 'I' for Inactive)
REMARK    1  A    between atoms: C_2  and  C_3 
REMARK    2  A    between atoms: C_12  and  C_13 
REMARK    3  A    between atoms: C_13  and  C_14 
ROOT
HETATM    1  C   UNL     1      43.765 -18.492   3.972  1.00  0.00    -0.027 A 
HETATM    2  C   UNL     1      43.158 -18.748   2.731  1.00  0.00     0.039 A 
HETATM    3  C   UNL     1      43.390 -20.028   1.975  1.00  0.00     0.071 C 
HETATM    4  N   UNL     1      42.304 -17.908   2.125  1.00  0.00    -0.245 NA
HETATM    5  C   UNL     1      42.079 -16.745   2.757  1.00  0.00     0.111 A 
HETATM    6  C   UNL     1      42.635 -16.317   3.956  1.00  0.00     0.034 A 
HETATM    7  C   UNL     1      43.485 -17.256   4.632  1.00  0.00    -0.038 A 
HETATM    8  C   UNL     1      44.082 -16.974   5.989  1.00  0.00     0.050 C 
HETATM    9  S   UNL     1      40.985 -15.643   2.079  1.00  0.00    -0.063 SA
HETATM   10  C   UNL     1      41.246 -14.501   3.324  1.00  0.00     0.085 A 
HETATM   11  C   UNL     1      42.180 -14.961   4.239  1.00  0.00     0.061 A 
HETATM   12  N   UNL     1      42.598 -14.236   5.305  1.00  0.00    -0.397 N 
HETATM   13  H   UNL     1      42.287 -13.288   5.496  1.00  0.00     0.156 HD
HETATM   14  H   UNL     1      43.482 -14.436   5.762  1.00  0.00     0.156 HD
ENDROOT
BRANCH  10  15
HETATM   15  C   UNL     1      40.472 -13.272   3.251  1.00  0.00     0.201 C 
HETATM   16  O   UNL     1      39.786 -12.848   4.183  1.00  0.00    -0.286 OA
BRANCH  15  17
HETATM   17  C   UNL     1      40.471 -12.448   2.009  1.00  0.00     0.018 A 
HETATM   18  C   UNL     1      41.440 -11.460   1.777  1.00  0.00     0.055 A 
HETATM   19  C   UNL     1      41.368 -10.765   0.588  1.00  0.00     0.106 A 
HETATM   20  C   UNL     1      40.398 -11.024  -0.354  1.00  0.00     0.105 A 
HETATM   21  O   UNL     1      42.213  -9.772   0.198  1.00  0.00    -0.323 OA
HETATM   22  O   UNL     1      40.513 -10.229  -1.451  1.00  0.00    -0.323 OA
HETATM   23  C   UNL     1      39.443 -11.997  -0.165  1.00  0.00     0.040 A 
HETATM   24  C   UNL     1      41.679  -9.453  -1.105  1.00  0.00     0.352 A 
HETATM   25  C   UNL     1      39.486 -12.720   1.031  1.00  0.00     0.018 A 
ENDBRANCH  15  17
ENDBRANCH  10  15
BRANCH   1  26
HETATM   26  C   UNL     1      44.727 -19.510   4.562  1.00  0.00     0.036 C 
HETATM   27  C   UNL     1      44.009 -20.557   5.403  1.00  0.00     0.010 C 
ENDBRANCH   1  26
TORSDOF 3
ENDMDL
MODEL 3
REMARK VINA RESULT:      -8.0      4.311      5.821
REMARK  3 active torsions:
REMARK  status: ('A' for Active; 'I' for Inactive)
REMARK    1  A    between atoms: C_2  and  C_3 
REMARK    2  A    between atoms: C_12  and  C_13 
REMARK    3  A    between atoms: C_13  and  C_14 
ROOT
HETATM    1  C   UNL     1      43.747 -17.305   4.478  1.00  0.00    -0.027 A 
HETATM    2  C   UNL     1      43.868 -16.328   5.480  1.00  0.00     0.039 A 
HETATM    3  C   UNL     1      44.804 -16.489   6.648  1.00  0.00     0.071 C 
HETATM    4  N   UNL     1      43.199 -15.164   5.480  1.00  0.00    -0.245 NA
HETATM    5  C   UNL     1      42.341 -14.983   4.464  1.00  0.00     0.111 A 
HETATM    6  C   UNL     1      42.065 -15.866   3.426  1.00  0.00     0.034 A 
HETATM    7  C   UNL     1      42.844 -17.071   3.396  1.00  0.00    -0.038 A 
HETATM    8  C   UNL     1      42.730 -18.079   2.278  1.00  0.00     0.050 C 
HETATM    9  S   UNL     1      41.484 -13.524   4.366  1.00  0.00    -0.063 SA
HETATM   10  C   UNL     1      40.646 -14.022   2.961  1.00  0.00     0.085 A 
HETATM   11  C   UNL     1      41.014 -15.305   2.586  1.00  0.00     0.061 A 
HETATM   12  N   UNL     1      40.473 -15.955   1.527  1.00  0.00    -0.397 N 
HETATM   13  H   UNL     1      39.733 -15.568   0.948  1.00  0.00     0.156 HD
HETATM   14  H   UNL     1      40.505 -16.967   1.460  1.00  0.00     0.156 HD
ENDROOT
BRANCH  10  15
HETATM   15  C   UNL     1      39.721 -13.062   2.381  1.00  0.00     0.201 C 
HETATM   16  O   UNL     1      38.592 -12.855   2.827  1.00  0.00    -0.286 OA
BRANCH  15  17
HETATM   17  C   UNL     1      40.108 -12.264   1.183  1.00  0.00     0.018 A 
HETATM   18  C   UNL     1      41.023 -11.204   1.265  1.00  0.00     0.055 A 
HETATM   19  C   UNL     1      41.334 -10.539   0.098  1.00  0.00     0.106 A 
HETATM   20  C   UNL     1      40.788 -10.895  -1.115  1.00  0.00     0.105 A 
HETATM   21  O   UNL     1      42.189  -9.487  -0.012  1.00  0.00    -0.323 OA
HETATM   22  O   UNL     1      41.233 -10.114  -2.135  1.00  0.00    -0.323 OA
HETATM   23  C   UNL     1      39.901 -11.941  -1.234  1.00  0.00     0.040 A 
HETATM   24  C   UNL     1      42.139  -9.237  -1.433  1.00  0.00     0.352 A 
HETATM   25  C   UNL     1      39.562 -12.635  -0.069  1.00  0.00     0.018 A 
ENDBRANCH  15  17
ENDBRANCH  10  15
BRANCH   1  26
HETATM   26  C   UNL     1      44.545 -18.595   4.585  1.00  0.00     0.036 C 
HETATM   27  C   UNL     1      43.826 -19.646   5.419  1.00  0.00     0.010 C 
ENDBRANCH   1  26
TORSDOF 3
ENDMDL
MODEL 4
REMARK VINA RESULT:      -8.0      4.738      7.739
REMARK  3 active torsions:
REMARK  status: ('A' for Active; 'I' for Inactive)
REMARK    1  A    between atoms: C_2  and  C_3 
REMARK    2  A    between atoms: C_12  and  C_13 
REMARK    3  A    between atoms: C_13  and  C_14 
ROOT
HETATM    1  C   UNL     1      39.809 -12.804  -1.808  1.00  0.00    -0.027 A 
HETATM    2  C   UNL     1      39.249 -14.091  -1.746  1.00  0.00     0.039 A 
HETATM    3  C   UNL     1      38.363 -14.633  -2.835  1.00  0.00     0.071 C 
HETATM    4  N   UNL     1      39.470 -14.960  -0.746  1.00  0.00    -0.245 NA
HETATM    5  C   UNL     1      40.243 -14.513   0.256  1.00  0.00     0.111 A 
HETATM    6  C   UNL     1      40.829 -13.259   0.374  1.00  0.00     0.034 A 
HETATM    7  C   UNL     1      40.650 -12.369  -0.738  1.00  0.00    -0.038 A 
HETATM    8  C   UNL     1      41.308 -11.012  -0.800  1.00  0.00     0.050 C 
HETATM    9  S   UNL     1      40.603 -15.559   1.540  1.00  0.00    -0.063 SA
HETATM   10  C   UNL     1      41.512 -14.365   2.359  1.00  0.00     0.085 A 
HETATM   11  C   UNL     1      41.520 -13.171   1.654  1.00  0.00     0.061 A 
HETATM   12  N   UNL     1      42.137 -12.049   2.099  1.00  0.00    -0.397 N 
HETATM   13  H   UNL     1      42.610 -11.985   2.995  1.00  0.00     0.156 HD
HETATM   14  H   UNL     1      41.872 -11.132   1.753  1.00  0.00     0.156 HD
ENDROOT
BRANCH  10  15
HETATM   15  C   UNL     1      42.130 -14.763   3.613  1.00  0.00     0.201 C 
HETATM   16  O   UNL     1      42.200 -14.027   4.598  1.00  0.00    -0.286 OA
BRANCH  15  17
HETATM   17  C   UNL     1      42.727 -16.121   3.768  1.00  0.00     0.018 A 
HETATM   18  C   UNL     1      42.744 -16.784   5.004  1.00  0.00     0.055 A 
HETATM   19  C   UNL     1      43.298 -18.046   5.041  1.00  0.00     0.106 A 
HETATM   20  C   UNL     1      43.809 -18.655   3.917  1.00  0.00     0.105 A 
HETATM   21  O   UNL     1      43.409 -18.830   6.147  1.00  0.00    -0.323 OA
HETATM   22  O   UNL     1      44.301 -19.896   4.176  1.00  0.00    -0.323 OA
HETATM   23  C   UNL     1      43.792 -18.040   2.686  1.00  0.00     0.040 A 
HETATM   24  C   UNL     1      44.024 -20.011   5.587  1.00  0.00     0.352 A 
HETATM   25  C   UNL     1      43.239 -16.758   2.613  1.00  0.00     0.018 A 
ENDBRANCH  15  17
ENDBRANCH  10  15
BRANCH   1  26
HETATM   26  C   UNL     1      39.483 -11.898  -2.984  1.00  0.00     0.036 C 
HETATM   27  C   UNL     1      38.310 -10.974  -2.687  1.00  0.00     0.010 C 
ENDBRANCH   1  26
TORSDOF 3
ENDMDL
MODEL 5
REMARK VINA RESULT:      -8.0      2.892      3.943
REMARK  3 active torsions:
REMARK  status: ('A' for Active; 'I' for Inactive)
REMARK    1  A    between atoms: C_2  and  C_3 
REMARK    2  A    between atoms: C_12  and  C_13 
REMARK    3  A    between atoms: C_13  and  C_14 
ROOT
HETATM    1  C   UNL     1      43.955 -18.781   4.212  1.00  0.00    -0.027 A 
HETATM    2  C   UNL     1      43.646 -18.773   2.842  1.00  0.00     0.039 A 
HETATM    3  C   UNL     1      43.791 -20.000   1.981  1.00  0.00     0.071 C 
HETATM    4  N   UNL     1      43.170 -17.705   2.184  1.00  0.00    -0.245 NA
HETATM    5  C   UNL     1      43.038 -16.583   2.909  1.00  0.00     0.111 A 
HETATM    6  C   UNL     1      43.346 -16.407   4.253  1.00  0.00     0.034 A 
HETATM    7  C   UNL     1      43.779 -17.577   4.962  1.00  0.00    -0.038 A 
HETATM    8  C   UNL     1      44.054 -17.566   6.446  1.00  0.00     0.050 C 
HETATM    9  S   UNL     1      42.408 -15.197   2.165  1.00  0.00    -0.063 SA
HETATM   10  C   UNL     1      42.574 -14.264   3.588  1.00  0.00     0.085 A 
HETATM   11  C   UNL     1      43.125 -15.012   4.616  1.00  0.00     0.061 A 
HETATM   12  N   UNL     1      43.398 -14.504   5.842  1.00  0.00    -0.397 N 
HETATM   13  H   UNL     1      43.254 -13.531   6.092  1.00  0.00     0.156 HD
HETATM   14  H   UNL     1      44.074 -14.949   6.456  1.00  0.00     0.156 HD
ENDROOT
BRANCH  10  15
HETATM   15  C   UNL     1      42.118 -12.886   3.519  1.00  0.00     0.201 C 
HETATM   16  O   UNL     1      42.448 -12.107   2.623  1.00  0.00    -0.286 OA
BRANCH  15  17
HETATM   17  C   UNL     1      41.204 -12.334   4.561  1.00  0.00     0.018 A 
HETATM   18  C   UNL     1      41.593 -11.280   5.400  1.00  0.00     0.055 A 
HETATM   19  C   UNL     1      40.670 -10.824   6.318  1.00  0.00     0.106 A 
HETATM   20  C   UNL     1      39.406 -11.361   6.414  1.00  0.00     0.105 A 
HETATM   21  O   UNL     1      40.873  -9.822   7.215  1.00  0.00    -0.323 OA
HETATM   22  O   UNL     1      38.659 -10.763   7.379  1.00  0.00    -0.323 OA
HETATM   23  C   UNL     1      38.987 -12.384   5.593  1.00  0.00     0.040 A 
HETATM   24  C   UNL     1      39.586  -9.772   7.869  1.00  0.00     0.352 A 
HETATM   25  C   UNL     1      39.899 -12.872   4.653  1.00  0.00     0.018 A 
ENDBRANCH  15  17
ENDBRANCH  10  15
BRANCH   1  26
HETATM   26  C   UNL     1      44.500 -20.046   4.854  1.00  0.00     0.036 C 
HETATM   27  C   UNL     1      43.389 -20.971   5.330  1.00  0.00     0.010 C 
ENDBRANCH   1  26
TORSDOF 3
ENDMDL
MODEL 6
REMARK VINA RESULT:      -8.0      4.052      5.812
REMARK  3 active torsions:
REMARK  status: ('A' for Active; 'I' for Inactive)
REMARK    1  A    between atoms: C_2  and  C_3 
REMARK    2  A    between atoms: C_12  and  C_13 
REMARK    3  A    between atoms: C_13  and  C_14 
ROOT
HETATM    1  C   UNL     1      43.764 -18.610   4.067  1.00  0.00    -0.027 A 
HETATM    2  C   UNL     1      43.180 -18.769   2.799  1.00  0.00     0.039 A 
HETATM    3  C   UNL     1      43.417 -19.994   1.957  1.00  0.00     0.071 C 
HETATM    4  N   UNL     1      42.345 -17.880   2.238  1.00  0.00    -0.245 NA
HETATM    5  C   UNL     1      42.117 -16.764   2.948  1.00  0.00     0.111 A 
HETATM    6  C   UNL     1      42.652 -16.428   4.186  1.00  0.00     0.034 A 
HETATM    7  C   UNL     1      43.480 -17.422   4.809  1.00  0.00    -0.038 A 
HETATM    8  C   UNL     1      44.051 -17.244   6.194  1.00  0.00     0.050 C 
HETATM    9  S   UNL     1      41.044 -15.606   2.331  1.00  0.00    -0.063 SA
HETATM   10  C   UNL     1      41.289 -14.559   3.660  1.00  0.00     0.085 A 
HETATM   11  C   UNL     1      42.201 -15.093   4.557  1.00  0.00     0.061 A 
HETATM   12  N   UNL     1      42.603 -14.450   5.680  1.00  0.00    -0.397 N 
HETATM   13  H   UNL     1      42.296 -13.515   5.934  1.00  0.00     0.156 HD
HETATM   14  H   UNL     1      43.476 -14.691   6.139  1.00  0.00     0.156 HD
ENDROOT
BRANCH  10  15
HETATM   15  C   UNL     1      40.527 -13.321   3.661  1.00  0.00     0.201 C 
HETATM   16  O   UNL     1      40.010 -12.846   4.673  1.00  0.00    -0.286 OA
BRANCH  15  17
HETATM   17  C   UNL     1      40.327 -12.551   2.400  1.00  0.00     0.018 A 
HETATM   18  C   UNL     1      39.079 -12.488   1.763  1.00  0.00     0.055 A 
HETATM   19  C   UNL     1      38.989 -11.731   0.613  1.00  0.00     0.106 A 
HETATM   20  C   UNL     1      40.068 -11.045   0.102  1.00  0.00     0.105 A 
HETATM   21  O   UNL     1      37.868 -11.563  -0.139  1.00  0.00    -0.323 OA
HETATM   22  O   UNL     1      39.759 -10.361  -1.031  1.00  0.00    -0.323 OA
HETATM   23  C   UNL     1      41.302 -11.071   0.712  1.00  0.00     0.040 A 
HETATM   24  C   UNL     1      38.357 -10.675  -1.167  1.00  0.00     0.352 A 
HETATM   25  C   UNL     1      41.428 -11.831   1.879  1.00  0.00     0.018 A 
ENDBRANCH  15  17
ENDBRANCH  10  15
BRANCH   1  26
HETATM   26  C   UNL     1      44.706 -19.676   4.601  1.00  0.00     0.036 C 
HETATM   27  C   UNL     1      43.967 -20.755   5.380  1.00  0.00     0.010 C 
ENDBRANCH   1  26
TORSDOF 3
ENDMDL
MODEL 7
REMARK VINA RESULT:      -7.6      5.166      8.195
REMARK  3 active torsions:
REMARK  status: ('A' for Active; 'I' for Inactive)
REMARK    1  A    between atoms: C_2  and  C_3 
REMARK    2  A    between atoms: C_12  and  C_13 
REMARK    3  A    between atoms: C_13  and  C_14 
ROOT
HETATM    1  C   UNL     1      40.742 -10.863  -1.667  1.00  0.00    -0.027 A 
HETATM    2  C   UNL     1      41.551 -10.058  -0.848  1.00  0.00     0.039 A 
HETATM    3  C   UNL     1      42.094  -8.733  -1.312  1.00  0.00     0.071 C 
HETATM    4  N   UNL     1      41.888 -10.368   0.414  1.00  0.00    -0.245 NA
HETATM    5  C   UNL     1      41.438 -11.549   0.866  1.00  0.00     0.111 A 
HETATM    6  C   UNL     1      40.675 -12.481   0.172  1.00  0.00     0.034 A 
HETATM    7  C   UNL     1      40.257 -12.103  -1.148  1.00  0.00    -0.038 A 
HETATM    8  C   UNL     1      39.344 -12.965  -1.984  1.00  0.00     0.050 C 
HETATM    9  S   UNL     1      41.785 -12.001   2.461  1.00  0.00    -0.063 SA
HETATM   10  C   UNL     1      40.987 -13.504   2.290  1.00  0.00     0.085 A 
HETATM   11  C   UNL     1      40.475 -13.657   1.011  1.00  0.00     0.061 A 
HETATM   12  N   UNL     1      39.827 -14.773   0.598  1.00  0.00    -0.397 N 
HETATM   13  H   UNL     1      39.697 -15.595   1.179  1.00  0.00     0.156 HD
HETATM   14  H   UNL     1      39.751 -15.000  -0.389  1.00  0.00     0.156 HD
ENDROOT
BRANCH  10  15
HETATM   15  C   UNL     1      40.949 -14.357   3.466  1.00  0.00     0.201 C 
HETATM   16  O   UNL     1      40.182 -14.174   4.413  1.00  0.00    -0.286 OA
BRANCH  15  17
HETATM   17  C   UNL     1      41.867 -15.527   3.586  1.00  0.00     0.018 A 
HETATM   18  C   UNL     1      41.804 -16.608   2.694  1.00  0.00     0.055 A 
HETATM   19  C   UNL     1      42.710 -17.633   2.872  1.00  0.00     0.106 A 
HETATM   20  C   UNL     1      43.656 -17.608   3.873  1.00  0.00     0.105 A 
HETATM   21  O   UNL     1      42.792 -18.759   2.114  1.00  0.00    -0.323 OA
HETATM   22  O   UNL     1      44.448 -18.713   3.866  1.00  0.00    -0.323 OA
HETATM   23  C   UNL     1      43.755 -16.555   4.754  1.00  0.00     0.040 A 
HETATM   24  C   UNL     1      43.911 -19.429   2.734  1.00  0.00     0.352 A 
HETATM   25  C   UNL     1      42.850 -15.500   4.602  1.00  0.00     0.018 A 
ENDBRANCH  15  17
ENDBRANCH  10  15
BRANCH   1  26
HETATM   26  C   UNL     1      40.432 -10.419  -3.088  1.00  0.00     0.036 C 
HETATM   27  C   UNL     1      39.144  -9.611  -3.168  1.00  0.00     0.010 C 
ENDBRANCH   1  26
TORSDOF 3
ENDMDL
MODEL 8
REMARK VINA RESULT:      -7.5      3.048      7.900
REMARK  3 active torsions:
REMARK  status: ('A' for Active; 'I' for Inactive)
REMARK    1  A    between atoms: C_2  and  C_3 
REMARK    2  A    between atoms: C_12  and  C_13 
REMARK    3  A    between atoms: C_13  and  C_14 
ROOT
HETATM    1  C   UNL     1      43.618  -9.658   7.845  1.00  0.00    -0.027 A 
HETATM    2  C   UNL     1      44.588 -10.618   8.179  1.00  0.00     0.039 A 
HETATM    3  C   UNL     1      45.719 -10.318   9.126  1.00  0.00     0.071 C 
HETATM    4  N   UNL     1      44.586 -11.880   7.721  1.00  0.00    -0.245 NA
HETATM    5  C   UNL     1      43.603 -12.188   6.861  1.00  0.00     0.111 A 
HETATM    6  C   UNL     1      42.601 -11.348   6.389  1.00  0.00     0.034 A 
HETATM    7  C   UNL     1      42.569 -10.025   6.946  1.00  0.00    -0.038 A 
HETATM    8  C   UNL     1      41.484  -9.033   6.608  1.00  0.00     0.050 C 
HETATM    9  S   UNL     1      43.504 -13.771   6.264  1.00  0.00    -0.063 SA
HETATM   10  C   UNL     1      42.150 -13.401   5.289  1.00  0.00     0.085 A 
HETATM   11  C   UNL     1      41.793 -12.067   5.412  1.00  0.00     0.061 A 
HETATM   12  N   UNL     1      40.775 -11.501   4.719  1.00  0.00    -0.397 N 
HETATM   13  H   UNL     1      40.219 -12.000   4.030  1.00  0.00     0.156 HD
HETATM   14  H   UNL     1      40.733 -10.498   4.573  1.00  0.00     0.156 HD
ENDROOT
BRANCH  10  15
HETATM   15  C   UNL     1      41.585 -14.496   4.517  1.00  0.00     0.201 C 
HETATM   16  O   UNL     1      40.477 -14.446   3.982  1.00  0.00    -0.286 OA
BRANCH  15  17
HETATM   17  C   UNL     1      42.343 -15.767   4.336  1.00  0.00     0.018 A 
HETATM   18  C   UNL     1      42.505 -16.686   5.383  1.00  0.00     0.055 A 
HETATM   19  C   UNL     1      43.203 -17.844   5.111  1.00  0.00     0.106 A 
HETATM   20  C   UNL     1      43.718 -18.112   3.863  1.00  0.00     0.105 A 
HETATM   21  O   UNL     1      43.464 -18.839   6.001  1.00  0.00    -0.323 OA
HETATM   22  O   UNL     1      44.364 -19.308   3.814  1.00  0.00    -0.323 OA
HETATM   23  C   UNL     1      43.563 -17.240   2.810  1.00  0.00     0.040 A 
HETATM   24  C   UNL     1      44.180 -19.775   5.166  1.00  0.00     0.352 A 
HETATM   25  C   UNL     1      42.861 -16.055   3.051  1.00  0.00     0.018 A 
ENDBRANCH  15  17
ENDBRANCH  10  15
BRANCH   1  26
HETATM   26  C   UNL     1      43.724  -8.252   8.413  1.00  0.00     0.036 C 
HETATM   27  C   UNL     1      42.995  -8.115   9.742  1.00  0.00     0.010 C 
ENDBRANCH   1  26
TORSDOF 3
ENDMDL
MODEL 9
REMARK VINA RESULT:      -7.4      3.450      8.685
REMARK  3 active torsions:
REMARK  status: ('A' for Active; 'I' for Inactive)
REMARK    1  A    between atoms: C_2  and  C_3 
REMARK    2  A    between atoms: C_12  and  C_13 
REMARK    3  A    between atoms: C_13  and  C_14 
ROOT
HETATM    1  C   UNL     1      42.978  -8.787  10.318  1.00  0.00    -0.027 A 
HETATM    2  C   UNL     1      41.713  -8.586   9.741  1.00  0.00     0.039 A 
HETATM    3  C   UNL     1      40.625  -7.819  10.445  1.00  0.00     0.071 C 
HETATM    4  N   UNL     1      41.366  -9.018   8.518  1.00  0.00    -0.245 NA
HETATM    5  C   UNL     1      42.301  -9.720   7.860  1.00  0.00     0.111 A 
HETATM    6  C   UNL     1      43.576 -10.052   8.304  1.00  0.00     0.034 A 
HETATM    7  C   UNL     1      43.961  -9.516   9.580  1.00  0.00    -0.038 A 
HETATM    8  C   UNL     1      45.345  -9.706  10.150  1.00  0.00     0.050 C 
HETATM    9  S   UNL     1      41.959 -10.272   6.294  1.00  0.00    -0.063 SA
HETATM   10  C   UNL     1      43.478 -11.043   6.151  1.00  0.00     0.085 A 
HETATM   11  C   UNL     1      44.230 -10.888   7.306  1.00  0.00     0.061 A 
HETATM   12  N   UNL     1      45.459 -11.433   7.472  1.00  0.00    -0.397 N 
HETATM   13  H   UNL     1      45.910 -12.024   6.780  1.00  0.00     0.156 HD
HETATM   14  H   UNL     1      45.845 -11.586   8.398  1.00  0.00     0.156 HD
ENDROOT
BRANCH  10  15
HETATM   15  C   UNL     1      43.754 -11.706   4.887  1.00  0.00     0.201 C 
HETATM   16  O   UNL     1      44.440 -11.205   3.995  1.00  0.00    -0.286 OA
BRANCH  15  17
HETATM   17  C   UNL     1      43.201 -13.062   4.604  1.00  0.00     0.018 A 
HETATM   18  C   UNL     1      42.858 -13.462   3.305  1.00  0.00     0.055 A 
HETATM   19  C   UNL     1      42.375 -14.744   3.141  1.00  0.00     0.106 A 
HETATM   20  C   UNL     1      42.240 -15.616   4.198  1.00  0.00     0.105 A 
HETATM   21  O   UNL     1      41.985 -15.299   1.961  1.00  0.00    -0.323 OA
HETATM   22  O   UNL     1      41.752 -16.825   3.814  1.00  0.00    -0.323 OA
HETATM   23  C   UNL     1      42.584 -15.260   5.482  1.00  0.00     0.040 A 
HETATM   24  C   UNL     1      41.613 -16.627   2.391  1.00  0.00     0.352 A 
HETATM   25  C   UNL     1      43.075 -13.967   5.684  1.00  0.00     0.018 A 
ENDBRANCH  15  17
ENDBRANCH  10  15
BRANCH   1  26
HETATM   26  C   UNL     1      43.259  -8.262  11.716  1.00  0.00     0.036 C 
HETATM   27  C   UNL     1      42.829  -9.247  12.795  1.00  0.00     0.010 C 
ENDBRANCH   1  26
TORSDOF 3
ENDMDL
MODEL 10
REMARK VINA RESULT:      -7.4      4.722      6.279
REMARK  3 active torsions:
REMARK  status: ('A' for Active; 'I' for Inactive)
REMARK    1  A    between atoms: C_2  and  C_3 
REMARK    2  A    between atoms: C_12  and  C_13 
REMARK    3  A    between atoms: C_13  and  C_14 
ROOT
HETATM    1  C   UNL     1      38.407 -12.534  -1.288  1.00  0.00    -0.027 A 
HETATM    2  C   UNL     1      38.972 -13.764  -1.663  1.00  0.00     0.039 A 
HETATM    3  C   UNL     1      38.812 -14.330  -3.049  1.00  0.00     0.071 C 
HETATM    4  N   UNL     1      39.721 -14.526  -0.850  1.00  0.00    -0.245 NA
HETATM    5  C   UNL     1      39.878 -14.068   0.401  1.00  0.00     0.111 A 
HETATM    6  C   UNL     1      39.347 -12.904   0.945  1.00  0.00     0.034 A 
HETATM    7  C   UNL     1      38.614 -12.060   0.045  1.00  0.00    -0.038 A 
HETATM    8  C   UNL     1      38.063 -10.719   0.462  1.00  0.00     0.050 C 
HETATM    9  S   UNL     1      40.841 -14.949   1.481  1.00  0.00    -0.063 SA
HETATM   10  C   UNL     1      40.545 -13.853   2.760  1.00  0.00     0.085 A 
HETATM   11  C   UNL     1      39.700 -12.830   2.358  1.00  0.00     0.061 A 
HETATM   12  N   UNL     1      39.275 -11.847   3.187  1.00  0.00    -0.397 N 
HETATM   13  H   UNL     1      39.513 -11.802   4.174  1.00  0.00     0.156 HD
HETATM   14  H   UNL     1      38.435 -11.315   2.984  1.00  0.00     0.156 HD
ENDROOT
BRANCH  10  15
HETATM   15  C   UNL     1      41.208 -14.133   4.023  1.00  0.00     0.201 C 
HETATM   16  O   UNL     1      40.905 -15.078   4.752  1.00  0.00    -0.286 OA
BRANCH  15  17
HETATM   17  C   UNL     1      42.317 -13.261   4.509  1.00  0.00     0.018 A 
HETATM   18  C   UNL     1      42.707 -13.246   5.856  1.00  0.00     0.055 A 
HETATM   19  C   UNL     1      43.758 -12.423   6.204  1.00  0.00     0.106 A 
HETATM   20  C   UNL     1      44.419 -11.648   5.278  1.00  0.00     0.105 A 
HETATM   21  O   UNL     1      44.264 -12.273   7.458  1.00  0.00    -0.323 OA
HETATM   22  O   UNL     1      45.423 -10.918   5.833  1.00  0.00    -0.323 OA
HETATM   23  C   UNL     1      44.072 -11.653   3.946  1.00  0.00     0.040 A 
HETATM   24  C   UNL     1      45.335 -11.335   7.211  1.00  0.00     0.352 A 
HETATM   25  C   UNL     1      43.010 -12.475   3.559  1.00  0.00     0.018 A 
ENDBRANCH  15  17
ENDBRANCH  10  15
BRANCH   1  26
HETATM   26  C   UNL     1      37.564 -11.757  -2.287  1.00  0.00     0.036 C 
HETATM   27  C   UNL     1      38.386 -10.732  -3.055  1.00  0.00     0.010 C 
ENDBRANCH   1  26
TORSDOF 3
ENDMDL
