MODEL 1
REMARK VINA RESULT:      -7.9      0.000      0.000
REMARK  4 active torsions:
REMARK  status: ('A' for Active; 'I' for Inactive)
REMARK    1  A    between atoms: C_5  and  C_6 
REMARK       I    between atoms: C_6  and  N_7 
REMARK    2  A    between atoms: N_7  and  C_8 
REMARK    3  A    between atoms: C_8  and  N_9 
REMARK    4  A    between atoms: N_9  and  C_10 
ROOT
HETATM    1  C   UNL     1      43.354 -15.400   5.655  1.00  0.00     0.257 C 
HETATM    2  N   UNL     1      42.574 -14.349   5.183  1.00  0.00    -0.299 N 
HETATM    3  O   UNL     1      43.978 -15.434   6.708  1.00  0.00    -0.267 OA
HETATM    4  H   UNL     1      42.225 -14.445   4.233  1.00  0.00     0.171 HD
ENDROOT
BRANCH   2   5
HETATM    5  C   UNL     1      42.232 -13.131   5.738  1.00  0.00     0.180 C 
HETATM    6  S   UNL     1      41.154 -12.010   5.129  1.00  0.00    -0.040 SA
BRANCH   5   7
HETATM    7  N   UNL     1      42.847 -12.818   6.927  1.00  0.00    -0.318 N 
HETATM    8  H   UNL     1      42.404 -13.231   7.737  1.00  0.00     0.170 HD
BRANCH   7   9
HETATM    9  C   UNL     1      43.985 -12.027   7.148  1.00  0.00     0.129 A 
HETATM   10  N   UNL     1      44.975 -12.014   6.227  1.00  0.00    -0.243 NA
HETATM   11  C   UNL     1      46.053 -11.240   6.487  1.00  0.00     0.119 A 
HETATM   12  C   UNL     1      46.196 -10.475   7.630  1.00  0.00     0.026 A 
HETATM   13  C   UNL     1      45.169 -10.491   8.572  1.00  0.00    -0.057 A 
HETATM   14  C   UNL     1      45.279  -9.713   9.849  1.00  0.00     0.048 C 
HETATM   15  C   UNL     1      44.045 -11.286   8.323  1.00  0.00     0.057 A 
ENDBRANCH   7   9
ENDBRANCH   5   7
ENDBRANCH   2   5
BRANCH   1  16
HETATM   16  C   UNL     1      43.464 -16.548   4.712  1.00  0.00     0.032 A 
HETATM   17  C   UNL     1      42.758 -16.490   3.507  1.00  0.00     0.017 A 
HETATM   18  C   UNL     1      42.791 -17.572   2.624  1.00  0.00     0.007 A 
HETATM   19  C   UNL     1      43.539 -18.714   2.929  1.00  0.00    -0.062 A 
HETATM   20  C   UNL     1      43.564 -19.891   1.998  1.00  0.00     0.048 C 
HETATM   21  C   UNL     1      44.273 -18.754   4.122  1.00  0.00     0.007 A 
HETATM   22  C   UNL     1      44.241 -17.675   5.010  1.00  0.00     0.017 A 
ENDBRANCH   1  16
TORSDOF 4
ENDMDL
MODEL 2
REMARK VINA RESULT:      -7.5      4.905      7.421
REMARK  4 active torsions:
REMARK  status: ('A' for Active; 'I' for Inactive)
REMARK    1  A    between atoms: C_5  and  C_6 
REMARK       I    between atoms: C_6  and  N_7 
REMARK    2  A    between atoms: N_7  and  C_8 
REMARK    3  A    between atoms: C_8  and  N_9 
REMARK    4  A    between atoms: N_9  and  C_10 
ROOT
HETATM    1  C   UNL     1      42.915 -15.794   2.185  1.00  0.00     0.257 C 
HETATM    2  N   UNL     1      41.587 -15.399   2.314  1.00  0.00    -0.299 N 
HETATM    3  O   UNL     1      43.779 -15.248   1.510  1.00  0.00    -0.267 OA
HETATM    4  H   UNL     1      40.980 -16.038   2.819  1.00  0.00     0.171 HD
ENDROOT
BRANCH   2   5
HETATM    5  C   UNL     1      40.892 -14.317   1.812  1.00  0.00     0.180 C 
HETATM    6  S   UNL     1      39.605 -13.523   2.523  1.00  0.00    -0.040 SA
BRANCH   5   7
HETATM    7  N   UNL     1      41.319 -13.839   0.595  1.00  0.00    -0.318 N 
HETATM    8  H   UNL     1      42.325 -13.823   0.493  1.00  0.00     0.170 HD
BRANCH   7   9
HETATM    9  C   UNL     1      40.552 -13.394  -0.493  1.00  0.00     0.129 A 
HETATM   10  N   UNL     1      40.482 -12.070  -0.760  1.00  0.00    -0.243 NA
HETATM   11  C   UNL     1      39.727 -11.690  -1.817  1.00  0.00     0.119 A 
HETATM   12  C   UNL     1      39.031 -12.571  -2.624  1.00  0.00     0.026 A 
HETATM   13  C   UNL     1      39.113 -13.934  -2.344  1.00  0.00    -0.057 A 
HETATM   14  C   UNL     1      38.352 -14.937  -3.158  1.00  0.00     0.048 C 
HETATM   15  C   UNL     1      39.887 -14.348  -1.254  1.00  0.00     0.057 A 
ENDBRANCH   7   9
ENDBRANCH   5   7
ENDBRANCH   2   5
BRANCH   1  16
HETATM   16  C   UNL     1      43.249 -17.055   2.905  1.00  0.00     0.032 A 
HETATM   17  C   UNL     1      43.571 -16.981   4.263  1.00  0.00     0.017 A 
HETATM   18  C   UNL     1      43.946 -18.134   4.957  1.00  0.00     0.007 A 
HETATM   19  C   UNL     1      43.989 -19.372   4.304  1.00  0.00    -0.062 A 
HETATM   20  C   UNL     1      44.411 -20.613   5.034  1.00  0.00     0.048 C 
HETATM   21  C   UNL     1      43.632 -19.446   2.952  1.00  0.00     0.007 A 
HETATM   22  C   UNL     1      43.259 -18.295   2.253  1.00  0.00     0.017 A 
ENDBRANCH   1  16
TORSDOF 4
ENDMDL
MODEL 3
REMARK VINA RESULT:      -7.4      3.850      6.220
REMARK  4 active torsions:
REMARK  status: ('A' for Active; 'I' for Inactive)
REMARK    1  A    between atoms: C_5  and  C_6 
REMARK       I    between atoms: C_6  and  N_7 
REMARK    2  A    between atoms: N_7  and  C_8 
REMARK    3  A    between atoms: C_8  and  N_9 
REMARK    4  A    between atoms: N_9  and  C_10 
ROOT
HETATM    1  C   UNL     1      42.880 -15.097   4.021  1.00  0.00     0.257 C 
HETATM    2  N   UNL     1      43.011 -14.205   2.961  1.00  0.00    -0.299 N 
HETATM    3  O   UNL     1      42.603 -14.820   5.181  1.00  0.00    -0.267 OA
HETATM    4  H   UNL     1      43.364 -14.595   2.091  1.00  0.00     0.171 HD
ENDROOT
BRANCH   2   5
HETATM    5  C   UNL     1      42.823 -12.840   2.874  1.00  0.00     0.180 C 
HETATM    6  S   UNL     1      43.702 -11.646   3.644  1.00  0.00    -0.040 SA
BRANCH   5   7
HETATM    7  N   UNL     1      41.800 -12.424   2.054  1.00  0.00    -0.318 N 
HETATM    8  H   UNL     1      41.535 -11.457   2.189  1.00  0.00     0.170 HD
BRANCH   7   9
HETATM    9  C   UNL     1      41.107 -13.152   1.074  1.00  0.00     0.129 A 
HETATM   10  N   UNL     1      40.570 -14.351   1.392  1.00  0.00    -0.243 NA
HETATM   11  C   UNL     1      39.915 -15.017   0.413  1.00  0.00     0.119 A 
HETATM   12  C   UNL     1      39.771 -14.543  -0.878  1.00  0.00     0.026 A 
HETATM   13  C   UNL     1      40.323 -13.303  -1.196  1.00  0.00    -0.057 A 
HETATM   14  C   UNL     1      40.233 -12.751  -2.587  1.00  0.00     0.048 C 
HETATM   15  C   UNL     1      41.006 -12.600  -0.198  1.00  0.00     0.057 A 
ENDBRANCH   7   9
ENDBRANCH   5   7
ENDBRANCH   2   5
BRANCH   1  16
HETATM   16  C   UNL     1      43.189 -16.511   3.669  1.00  0.00     0.032 A 
HETATM   17  C   UNL     1      42.689 -17.023   2.468  1.00  0.00     0.017 A 
HETATM   18  C   UNL     1      42.909 -18.360   2.132  1.00  0.00     0.007 A 
HETATM   19  C   UNL     1      43.641 -19.195   2.985  1.00  0.00    -0.062 A 
HETATM   20  C   UNL     1      43.864 -20.639   2.645  1.00  0.00     0.048 C 
HETATM   21  C   UNL     1      44.168 -18.668   4.171  1.00  0.00     0.007 A 
HETATM   22  C   UNL     1      43.948 -17.331   4.512  1.00  0.00     0.017 A 
ENDBRANCH   1  16
TORSDOF 4
ENDMDL
MODEL 4
REMARK VINA RESULT:      -7.4      1.733      7.490
REMARK  4 active torsions:
REMARK  status: ('A' for Active; 'I' for Inactive)
REMARK    1  A    between atoms: C_5  and  C_6 
REMARK       I    between atoms: C_6  and  N_7 
REMARK    2  A    between atoms: N_7  and  C_8 
REMARK    3  A    between atoms: C_8  and  N_9 
REMARK    4  A    between atoms: N_9  and  C_10 
ROOT
HETATM    1  C   UNL     1      43.704 -11.942   4.703  1.00  0.00     0.257 C 
HETATM    2  N   UNL     1      42.791 -12.984   4.829  1.00  0.00    -0.299 N 
HETATM    3  O   UNL     1      44.226 -11.545   3.668  1.00  0.00    -0.267 OA
HETATM    4  H   UNL     1      42.553 -13.256   5.778  1.00  0.00     0.171 HD
ENDROOT
BRANCH   2   5
HETATM    5  C   UNL     1      42.181 -13.796   3.893  1.00  0.00     0.180 C 
HETATM    6  S   UNL     1      40.574 -13.784   3.436  1.00  0.00    -0.040 SA
BRANCH   5   7
HETATM    7  N   UNL     1      42.997 -14.708   3.265  1.00  0.00    -0.318 N 
HETATM    8  H   UNL     1      43.404 -14.367   2.404  1.00  0.00     0.170 HD
BRANCH   7   9
HETATM    9  C   UNL     1      43.330 -16.011   3.665  1.00  0.00     0.129 A 
HETATM   10  N   UNL     1      43.803 -16.223   4.914  1.00  0.00    -0.243 NA
HETATM   11  C   UNL     1      44.115 -17.495   5.251  1.00  0.00     0.119 A 
HETATM   12  C   UNL     1      43.981 -18.575   4.397  1.00  0.00     0.026 A 
HETATM   13  C   UNL     1      43.488 -18.348   3.113  1.00  0.00    -0.057 A 
HETATM   14  C   UNL     1      43.354 -19.470   2.128  1.00  0.00     0.048 C 
HETATM   15  C   UNL     1      43.161 -17.039   2.744  1.00  0.00     0.057 A 
ENDBRANCH   7   9
ENDBRANCH   5   7
ENDBRANCH   2   5
BRANCH   1  16
HETATM   16  C   UNL     1      44.110 -11.327   5.998  1.00  0.00     0.032 A 
HETATM   17  C   UNL     1      45.467 -11.314   6.333  1.00  0.00     0.017 A 
HETATM   18  C   UNL     1      45.879 -10.800   7.564  1.00  0.00     0.007 A 
HETATM   19  C   UNL     1      44.942 -10.281   8.465  1.00  0.00    -0.062 A 
HETATM   20  C   UNL     1      45.371  -9.745   9.799  1.00  0.00     0.048 C 
HETATM   21  C   UNL     1      43.587 -10.264   8.110  1.00  0.00     0.007 A 
HETATM   22  C   UNL     1      43.170 -10.781   6.881  1.00  0.00     0.017 A 
ENDBRANCH   1  16
TORSDOF 4
ENDMDL
MODEL 5
REMARK VINA RESULT:      -7.1      2.881      4.367
REMARK  4 active torsions:
REMARK  status: ('A' for Active; 'I' for Inactive)
REMARK    1  A    between atoms: C_5  and  C_6 
REMARK       I    between atoms: C_6  and  N_7 
REMARK    2  A    between atoms: N_7  and  C_8 
REMARK    3  A    between atoms: C_8  and  N_9 
REMARK    4  A    between atoms: N_9  and  C_10 
ROOT
HETATM    1  C   UNL     1      43.621 -16.284   5.689  1.00  0.00     0.257 C 
HETATM    2  N   UNL     1      43.011 -15.112   5.252  1.00  0.00    -0.299 N 
HETATM    3  O   UNL     1      44.158 -16.470   6.774  1.00  0.00    -0.267 OA
HETATM    4  H   UNL     1      42.723 -15.097   4.277  1.00  0.00     0.171 HD
ENDROOT
BRANCH   2   5
HETATM    5  C   UNL     1      42.778 -13.904   5.877  1.00  0.00     0.180 C 
HETATM    6  S   UNL     1      43.903 -12.914   6.617  1.00  0.00    -0.040 SA
BRANCH   5   7
HETATM    7  N   UNL     1      41.473 -13.468   5.880  1.00  0.00    -0.318 N 
HETATM    8  H   UNL     1      41.075 -13.379   6.806  1.00  0.00     0.170 HD
BRANCH   7   9
HETATM    9  C   UNL     1      40.655 -13.133   4.791  1.00  0.00     0.129 A 
HETATM   10  N   UNL     1      40.481 -14.027   3.790  1.00  0.00    -0.243 NA
HETATM   11  C   UNL     1      39.687 -13.656   2.760  1.00  0.00     0.119 A 
HETATM   12  C   UNL     1      39.055 -12.428   2.675  1.00  0.00     0.026 A 
HETATM   13  C   UNL     1      39.237 -11.516   3.713  1.00  0.00    -0.057 A 
HETATM   14  C   UNL     1      38.610 -10.154   3.663  1.00  0.00     0.048 C 
HETATM   15  C   UNL     1      40.056 -11.879   4.787  1.00  0.00     0.057 A 
ENDBRANCH   7   9
ENDBRANCH   5   7
ENDBRANCH   2   5
BRANCH   1  16
HETATM   16  C   UNL     1      43.661 -17.368   4.667  1.00  0.00     0.032 A 
HETATM   17  C   UNL     1      43.183 -17.091   3.384  1.00  0.00     0.017 A 
HETATM   18  C   UNL     1      43.150 -18.098   2.416  1.00  0.00     0.007 A 
HETATM   19  C   UNL     1      43.608 -19.386   2.718  1.00  0.00    -0.062 A 
HETATM   20  C   UNL     1      43.557 -20.481   1.694  1.00  0.00     0.048 C 
HETATM   21  C   UNL     1      44.118 -19.649   3.996  1.00  0.00     0.007 A 
HETATM   22  C   UNL     1      44.150 -18.646   4.967  1.00  0.00     0.017 A 
ENDBRANCH   1  16
TORSDOF 4
ENDMDL
MODEL 6
REMARK VINA RESULT:      -6.9      5.214      7.898
REMARK  4 active torsions:
REMARK  status: ('A' for Active; 'I' for Inactive)
REMARK    1  A    between atoms: C_5  and  C_6 
REMARK       I    between atoms: C_6  and  N_7 
REMARK    2  A    between atoms: N_7  and  C_8 
REMARK    3  A    between atoms: C_8  and  N_9 
REMARK    4  A    between atoms: N_9  and  C_10 
ROOT
HETATM    1  C   UNL     1      41.222 -15.076   1.777  1.00  0.00     0.257 C 
HETATM    2  N   UNL     1      41.895 -13.870   1.607  1.00  0.00    -0.299 N 
HETATM    3  O   UNL     1      40.082 -15.336   1.415  1.00  0.00    -0.267 OA
HETATM    4  H   UNL     1      42.793 -13.790   2.076  1.00  0.00     0.171 HD
ENDROOT
BRANCH   2   5
HETATM    5  C   UNL     1      41.542 -12.698   0.968  1.00  0.00     0.180 C 
HETATM    6  S   UNL     1      41.483 -11.164   1.629  1.00  0.00    -0.040 SA
BRANCH   5   7
HETATM    7  N   UNL     1      41.211 -12.813  -0.362  1.00  0.00    -0.318 N 
HETATM    8  H   UNL     1      42.010 -12.886  -0.977  1.00  0.00     0.170 HD
BRANCH   7   9
HETATM    9  C   UNL     1      39.938 -12.851  -0.951  1.00  0.00     0.129 A 
HETATM   10  N   UNL     1      38.979 -12.000  -0.519  1.00  0.00    -0.243 NA
HETATM   11  C   UNL     1      37.767 -12.078  -1.115  1.00  0.00     0.119 A 
HETATM   12  C   UNL     1      37.460 -12.971  -2.125  1.00  0.00     0.026 A 
HETATM   13  C   UNL     1      38.456 -13.841  -2.567  1.00  0.00    -0.057 A 
HETATM   14  C   UNL     1      38.176 -14.857  -3.633  1.00  0.00     0.048 C 
HETATM   15  C   UNL     1      39.716 -13.777  -1.963  1.00  0.00     0.057 A 
ENDBRANCH   7   9
ENDBRANCH   5   7
ENDBRANCH   2   5
BRANCH   1  16
HETATM   16  C   UNL     1      41.986 -16.096   2.549  1.00  0.00     0.032 A 
HETATM   17  C   UNL     1      41.874 -16.098   3.942  1.00  0.00     0.017 A 
HETATM   18  C   UNL     1      42.620 -17.002   4.703  1.00  0.00     0.007 A 
HETATM   19  C   UNL     1      43.473 -17.919   4.078  1.00  0.00    -0.062 A 
HETATM   20  C   UNL     1      44.296 -18.880   4.886  1.00  0.00     0.048 C 
HETATM   21  C   UNL     1      43.556 -17.935   2.680  1.00  0.00     0.007 A 
HETATM   22  C   UNL     1      42.814 -17.032   1.916  1.00  0.00     0.017 A 
ENDBRANCH   1  16
TORSDOF 4
ENDMDL
MODEL 7
REMARK VINA RESULT:      -6.8      4.527      6.971
REMARK  4 active torsions:
REMARK  status: ('A' for Active; 'I' for Inactive)
REMARK    1  A    between atoms: C_5  and  C_6 
REMARK       I    between atoms: C_6  and  N_7 
REMARK    2  A    between atoms: N_7  and  C_8 
REMARK    3  A    between atoms: C_8  and  N_9 
REMARK    4  A    between atoms: N_9  and  C_10 
ROOT
HETATM    1  C   UNL     1      42.591 -14.446   3.558  1.00  0.00     0.257 C 
HETATM    2  N   UNL     1      41.840 -13.908   2.517  1.00  0.00    -0.299 N 
HETATM    3  O   UNL     1      43.066 -13.838   4.509  1.00  0.00    -0.267 OA
HETATM    4  H   UNL     1      41.629 -14.538   1.748  1.00  0.00     0.171 HD
ENDROOT
BRANCH   2   5
HETATM    5  C   UNL     1      41.374 -12.630   2.279  1.00  0.00     0.180 C 
HETATM    6  S   UNL     1      42.188 -11.193   2.529  1.00  0.00    -0.040 SA
BRANCH   5   7
HETATM    7  N   UNL     1      40.098 -12.540   1.773  1.00  0.00    -0.318 N 
HETATM    8  H   UNL     1      39.443 -12.083   2.395  1.00  0.00     0.170 HD
BRANCH   7   9
HETATM    9  C   UNL     1      39.610 -12.980   0.534  1.00  0.00     0.129 A 
HETATM   10  N   UNL     1      39.918 -14.223   0.101  1.00  0.00    -0.243 NA
HETATM   11  C   UNL     1      39.427 -14.600  -1.103  1.00  0.00     0.119 A 
HETATM   12  C   UNL     1      38.642 -13.791  -1.903  1.00  0.00     0.026 A 
HETATM   13  C   UNL     1      38.326 -12.512  -1.447  1.00  0.00    -0.057 A 
HETATM   14  C   UNL     1      37.510 -11.573  -2.284  1.00  0.00     0.048 C 
HETATM   15  C   UNL     1      38.824 -12.103  -0.206  1.00  0.00     0.057 A 
ENDBRANCH   7   9
ENDBRANCH   5   7
ENDBRANCH   2   5
BRANCH   1  16
HETATM   16  C   UNL     1      42.879 -15.900   3.413  1.00  0.00     0.032 A 
HETATM   17  C   UNL     1      43.563 -16.550   4.444  1.00  0.00     0.017 A 
HETATM   18  C   UNL     1      43.902 -17.899   4.319  1.00  0.00     0.007 A 
HETATM   19  C   UNL     1      43.549 -18.614   3.169  1.00  0.00    -0.062 A 
HETATM   20  C   UNL     1      43.927 -20.058   3.013  1.00  0.00     0.048 C 
HETATM   21  C   UNL     1      42.833 -17.968   2.153  1.00  0.00     0.007 A 
HETATM   22  C   UNL     1      42.495 -16.618   2.273  1.00  0.00     0.017 A 
ENDBRANCH   1  16
TORSDOF 4
ENDMDL
MODEL 8
REMARK VINA RESULT:      -6.6      1.671      1.932
REMARK  4 active torsions:
REMARK  status: ('A' for Active; 'I' for Inactive)
REMARK    1  A    between atoms: C_5  and  C_6 
REMARK       I    between atoms: C_6  and  N_7 
REMARK    2  A    between atoms: N_7  and  C_8 
REMARK    3  A    between atoms: C_8  and  N_9 
REMARK    4  A    between atoms: N_9  and  C_10 
ROOT
HETATM    1  C   UNL     1      42.828 -14.578   3.289  1.00  0.00     0.257 C 
HETATM    2  N   UNL     1      43.021 -13.612   4.272  1.00  0.00    -0.299 N 
HETATM    3  O   UNL     1      42.297 -14.416   2.198  1.00  0.00    -0.267 OA
HETATM    4  H   UNL     1      43.370 -13.948   5.165  1.00  0.00     0.171 HD
ENDROOT
BRANCH   2   5
HETATM    5  C   UNL     1      42.754 -12.257   4.301  1.00  0.00     0.180 C 
HETATM    6  S   UNL     1      42.493 -11.249   2.993  1.00  0.00    -0.040 SA
BRANCH   5   7
HETATM    7  N   UNL     1      42.691 -11.682   5.549  1.00  0.00    -0.318 N 
HETATM    8  H   UNL     1      41.756 -11.643   5.933  1.00  0.00     0.170 HD
BRANCH   7   9
HETATM    9  C   UNL     1      43.733 -11.168   6.335  1.00  0.00     0.129 A 
HETATM   10  N   UNL     1      44.994 -11.620   6.145  1.00  0.00    -0.243 NA
HETATM   11  C   UNL     1      45.964 -11.098   6.930  1.00  0.00     0.119 A 
HETATM   12  C   UNL     1      45.737 -10.143   7.905  1.00  0.00     0.026 A 
HETATM   13  C   UNL     1      44.435  -9.680   8.090  1.00  0.00    -0.057 A 
HETATM   14  C   UNL     1      44.118  -8.673   9.155  1.00  0.00     0.048 C 
HETATM   15  C   UNL     1      43.417 -10.208   7.289  1.00  0.00     0.057 A 
ENDBRANCH   7   9
ENDBRANCH   5   7
ENDBRANCH   2   5
BRANCH   1  16
HETATM   16  C   UNL     1      43.265 -15.946   3.686  1.00  0.00     0.032 A 
HETATM   17  C   UNL     1      43.251 -16.955   2.719  1.00  0.00     0.017 A 
HETATM   18  C   UNL     1      43.598 -18.263   3.067  1.00  0.00     0.007 A 
HETATM   19  C   UNL     1      43.974 -18.570   4.380  1.00  0.00    -0.062 A 
HETATM   20  C   UNL     1      44.328 -19.976   4.771  1.00  0.00     0.048 C 
HETATM   21  C   UNL     1      44.019 -17.549   5.337  1.00  0.00     0.007 A 
HETATM   22  C   UNL     1      43.671 -16.240   4.993  1.00  0.00     0.017 A 
ENDBRANCH   1  16
TORSDOF 4
ENDMDL
MODEL 9
REMARK VINA RESULT:      -6.6      2.417      3.370
REMARK  4 active torsions:
REMARK  status: ('A' for Active; 'I' for Inactive)
REMARK    1  A    between atoms: C_5  and  C_6 
REMARK       I    between atoms: C_6  and  N_7 
REMARK    2  A    between atoms: N_7  and  C_8 
REMARK    3  A    between atoms: C_8  and  N_9 
REMARK    4  A    between atoms: N_9  and  C_10 
ROOT
HETATM    1  C   UNL     1      42.989 -13.075   5.903  1.00  0.00     0.257 C 
HETATM    2  N   UNL     1      44.208 -12.721   6.472  1.00  0.00    -0.299 N 
HETATM    3  O   UNL     1      41.909 -12.525   6.080  1.00  0.00    -0.267 OA
HETATM    4  H   UNL     1      44.979 -13.362   6.308  1.00  0.00     0.171 HD
ENDROOT
BRANCH   2   5
HETATM    5  C   UNL     1      44.571 -11.679   7.303  1.00  0.00     0.180 C 
HETATM    6  S   UNL     1      46.024 -10.854   7.315  1.00  0.00    -0.040 SA
BRANCH   5   7
HETATM    7  N   UNL     1      43.622 -11.277   8.214  1.00  0.00    -0.318 N 
HETATM    8  H   UNL     1      43.005 -12.019   8.515  1.00  0.00     0.170 HD
BRANCH   7   9
HETATM    9  C   UNL     1      43.420 -10.004   8.769  1.00  0.00     0.129 A 
HETATM   10  N   UNL     1      43.110  -8.967   7.958  1.00  0.00    -0.243 NA
HETATM   11  C   UNL     1      42.929  -7.758   8.539  1.00  0.00     0.119 A 
HETATM   12  C   UNL     1      43.044  -7.531   9.898  1.00  0.00     0.026 A 
HETATM   13  C   UNL     1      43.359  -8.607  10.727  1.00  0.00    -0.057 A 
HETATM   14  C   UNL     1      43.535  -8.419  12.204  1.00  0.00     0.048 C 
HETATM   15  C   UNL     1      43.552  -9.865  10.146  1.00  0.00     0.057 A 
ENDBRANCH   7   9
ENDBRANCH   5   7
ENDBRANCH   2   5
BRANCH   1  16
HETATM   16  C   UNL     1      43.045 -14.299   5.055  1.00  0.00     0.032 A 
HETATM   17  C   UNL     1      43.341 -15.520   5.668  1.00  0.00     0.017 A 
HETATM   18  C   UNL     1      43.460 -16.679   4.898  1.00  0.00     0.007 A 
HETATM   19  C   UNL     1      43.271 -16.632   3.512  1.00  0.00    -0.062 A 
HETATM   20  C   UNL     1      43.418 -17.866   2.671  1.00  0.00     0.048 C 
HETATM   21  C   UNL     1      42.941 -15.412   2.907  1.00  0.00     0.007 A 
HETATM   22  C   UNL     1      42.823 -14.250   3.673  1.00  0.00     0.017 A 
ENDBRANCH   1  16
TORSDOF 4
ENDMDL
MODEL 10
REMARK VINA RESULT:      -6.6      2.667      4.314
REMARK  4 active torsions:
REMARK  status: ('A' for Active; 'I' for Inactive)
REMARK    1  A    between atoms: C_5  and  C_6 
REMARK       I    between atoms: C_6  and  N_7 
REMARK    2  A    between atoms: N_7  and  C_8 
REMARK    3  A    between atoms: C_8  and  N_9 
REMARK    4  A    between atoms: N_9  and  C_10 
ROOT
HETATM    1  C   UNL     1      42.190 -15.761   5.409  1.00  0.00     0.257 C 
HETATM    2  N   UNL     1      43.059 -14.674   5.429  1.00  0.00    -0.299 N 
HETATM    3  O   UNL     1      41.182 -15.905   6.089  1.00  0.00    -0.267 OA
HETATM    4  H   UNL     1      43.911 -14.775   4.885  1.00  0.00     0.171 HD
ENDROOT
BRANCH   2   5
HETATM    5  C   UNL     1      43.028 -13.479   6.121  1.00  0.00     0.180 C 
HETATM    6  S   UNL     1      44.332 -12.540   6.578  1.00  0.00    -0.040 SA
BRANCH   5   7
HETATM    7  N   UNL     1      41.779 -13.013   6.461  1.00  0.00    -0.318 N 
HETATM    8  H   UNL     1      41.466 -13.314   7.374  1.00  0.00     0.170 HD
BRANCH   7   9
HETATM    9  C   UNL     1      40.917 -12.187   5.723  1.00  0.00     0.129 A 
HETATM   10  N   UNL     1      40.678 -10.926   6.150  1.00  0.00    -0.243 NA
HETATM   11  C   UNL     1      39.836 -10.170   5.407  1.00  0.00     0.119 A 
HETATM   12  C   UNL     1      39.215 -10.614   4.254  1.00  0.00     0.026 A 
HETATM   13  C   UNL     1      39.472 -11.913   3.819  1.00  0.00    -0.057 A 
HETATM   14  C   UNL     1      38.802 -12.466   2.597  1.00  0.00     0.048 C 
HETATM   15  C   UNL     1      40.338 -12.712   4.574  1.00  0.00     0.057 A 
ENDBRANCH   7   9
ENDBRANCH   5   7
ENDBRANCH   2   5
BRANCH   1  16
HETATM   16  C   UNL     1      42.615 -16.864   4.503  1.00  0.00     0.032 A 
HETATM   17  C   UNL     1      43.502 -17.826   4.996  1.00  0.00     0.017 A 
HETATM   18  C   UNL     1      43.969 -18.842   4.159  1.00  0.00     0.007 A 
HETATM   19  C   UNL     1      43.543 -18.915   2.827  1.00  0.00    -0.062 A 
HETATM   20  C   UNL     1      44.054 -19.989   1.913  1.00  0.00     0.048 C 
HETATM   21  C   UNL     1      42.628 -17.969   2.348  1.00  0.00     0.007 A 
HETATM   22  C   UNL     1      42.160 -16.949   3.181  1.00  0.00     0.017 A 
ENDBRANCH   1  16
TORSDOF 4
ENDMDL
