MODEL 1
REMARK VINA RESULT:      -8.6      0.000      0.000
REMARK  3 active torsions:
REMARK  status: ('A' for Active; 'I' for Inactive)
REMARK    1  A    between atoms: C_6  and  N_7 
REMARK       I    between atoms: N_7  and  C_8 
REMARK    2  A    between atoms: C_8  and  C_9 
REMARK    3  A    between atoms: C_9  and  C_10 
ROOT
HETATM    1  C   UNL     1      41.728 -14.194   5.964  1.00  0.00     0.286 C 
HETATM    2  N   UNL     1      42.635 -14.289   4.739  1.00  0.00    -0.056 N 
HETATM    3  H   UNL     1      43.131 -13.392   4.670  1.00  0.00     0.278 HD
HETATM    4  H   UNL     1      43.401 -14.964   4.952  1.00  0.00     0.278 HD
HETATM    5  C   UNL     1      42.003 -14.575   3.414  1.00  0.00     0.209 C 
HETATM    6  C   UNL     1      40.808 -13.619   3.210  1.00  0.00     0.115 C 
HETATM    7  N   UNL     1      39.897 -13.638   4.350  1.00  0.00    -0.353 N 
HETATM    8  C   UNL     1      40.301 -13.703   5.658  1.00  0.00     0.249 C 
HETATM    9  O   UNL     1      39.506 -13.433   6.554  1.00  0.00    -0.271 OA
HETATM   10  C   UNL     1      41.618 -16.050   3.298  1.00  0.00     0.035 C 
HETATM   11  C   UNL     1      40.920 -16.321   1.967  1.00  0.00     0.002 C 
HETATM   12  C   UNL     1      39.705 -15.414   1.778  1.00  0.00     0.002 C 
HETATM   13  C   UNL     1      40.072 -13.935   1.904  1.00  0.00     0.027 C 
HETATM   14  H   UNL     1      38.965 -13.238   4.240  1.00  0.00     0.163 HD
ENDROOT
BRANCH   1  15
HETATM   15  C   UNL     1      41.640 -15.496   6.783  1.00  0.00     0.146 C 
BRANCH  15  16
HETATM   16  C   UNL     1      42.872 -15.774   7.598  1.00  0.00     0.224 C 
HETATM   17  N   UNL     1      43.716 -16.801   7.339  1.00  0.00    -0.327 N 
HETATM   18  H   UNL     1      44.468 -16.836   8.024  1.00  0.00     0.169 HD
HETATM   19  O   UNL     1      43.154 -15.002   8.527  1.00  0.00    -0.273 OA
BRANCH  17  20
HETATM   20  C   UNL     1      43.780 -17.813   6.359  1.00  0.00     0.035 A 
HETATM   21  C   UNL     1      44.060 -17.633   5.005  1.00  0.00     0.037 A 
HETATM   22  C   UNL     1      44.083 -18.725   4.109  1.00  0.00    -0.054 A 
HETATM   23  C   UNL     1      43.865 -20.028   4.590  1.00  0.00    -0.056 A 
HETATM   24  C   UNL     1      44.383 -18.471   2.653  1.00  0.00     0.049 C 
HETATM   25  C   UNL     1      43.890 -21.226   3.680  1.00  0.00     0.049 C 
HETATM   26  C   UNL     1      43.589 -20.208   5.948  1.00  0.00     0.009 A 
HETATM   27  C   UNL     1      43.549 -19.115   6.818  1.00  0.00     0.030 A 
ENDBRANCH  17  20
ENDBRANCH  15  16
ENDBRANCH   1  15
TORSDOF 3
ENDMDL
MODEL 2
REMARK VINA RESULT:      -8.0      1.446      2.075
REMARK  3 active torsions:
REMARK  status: ('A' for Active; 'I' for Inactive)
REMARK    1  A    between atoms: C_6  and  N_7 
REMARK       I    between atoms: N_7  and  C_8 
REMARK    2  A    between atoms: C_8  and  C_9 
REMARK    3  A    between atoms: C_9  and  C_10 
ROOT
HETATM    1  C   UNL     1      41.642 -13.415   5.611  1.00  0.00     0.286 C 
HETATM    2  N   UNL     1      42.404 -12.687   4.506  1.00  0.00    -0.056 N 
HETATM    3  H   UNL     1      42.579 -11.733   4.848  1.00  0.00     0.278 HD
HETATM    4  H   UNL     1      43.363 -13.094   4.448  1.00  0.00     0.278 HD
HETATM    5  C   UNL     1      41.766 -12.588   3.157  1.00  0.00     0.209 C 
HETATM    6  C   UNL     1      40.315 -12.088   3.324  1.00  0.00     0.115 C 
HETATM    7  N   UNL     1      39.577 -12.879   4.304  1.00  0.00    -0.353 N 
HETATM    8  C   UNL     1      40.110 -13.343   5.477  1.00  0.00     0.249 C 
HETATM    9  O   UNL     1      39.366 -13.749   6.365  1.00  0.00    -0.271 OA
HETATM   10  C   UNL     1      41.860 -13.916   2.408  1.00  0.00     0.035 C 
HETATM   11  C   UNL     1      41.154 -13.824   1.057  1.00  0.00     0.002 C 
HETATM   12  C   UNL     1      39.701 -13.379   1.215  1.00  0.00     0.002 C 
HETATM   13  C   UNL     1      39.589 -12.057   1.974  1.00  0.00     0.027 C 
HETATM   14  H   UNL     1      38.560 -12.802   4.331  1.00  0.00     0.163 HD
ENDROOT
BRANCH   1  15
HETATM   15  C   UNL     1      42.056 -14.888   5.795  1.00  0.00     0.146 C 
BRANCH  15  16
HETATM   16  C   UNL     1      43.502 -15.060   6.170  1.00  0.00     0.224 C 
HETATM   17  N   UNL     1      44.265 -16.090   5.730  1.00  0.00    -0.327 N 
HETATM   18  H   UNL     1      45.202 -16.043   6.123  1.00  0.00     0.169 HD
HETATM   19  O   UNL     1      44.036 -14.197   6.881  1.00  0.00    -0.273 OA
BRANCH  17  20
HETATM   20  C   UNL     1      44.052 -17.190   4.874  1.00  0.00     0.035 A 
HETATM   21  C   UNL     1      44.137 -18.537   5.225  1.00  0.00     0.037 A 
HETATM   22  C   UNL     1      43.916 -19.558   4.275  1.00  0.00    -0.054 A 
HETATM   23  C   UNL     1      43.558 -19.221   2.957  1.00  0.00    -0.056 A 
HETATM   24  C   UNL     1      44.029 -20.998   4.707  1.00  0.00     0.049 C 
HETATM   25  C   UNL     1      43.301 -20.270   1.910  1.00  0.00     0.049 C 
HETATM   26  C   UNL     1      43.469 -17.871   2.607  1.00  0.00     0.009 A 
HETATM   27  C   UNL     1      43.712 -16.872   3.553  1.00  0.00     0.030 A 
ENDBRANCH  17  20
ENDBRANCH  15  16
ENDBRANCH   1  15
TORSDOF 3
ENDMDL
MODEL 3
REMARK VINA RESULT:      -7.9      2.654      4.794
REMARK  3 active torsions:
REMARK  status: ('A' for Active; 'I' for Inactive)
REMARK    1  A    between atoms: C_6  and  N_7 
REMARK       I    between atoms: N_7  and  C_8 
REMARK    2  A    between atoms: C_8  and  C_9 
REMARK    3  A    between atoms: C_9  and  C_10 
ROOT
HETATM    1  C   UNL     1      40.971 -11.844   3.467  1.00  0.00     0.286 C 
HETATM    2  N   UNL     1      40.620 -12.053   4.938  1.00  0.00    -0.056 N 
HETATM    3  H   UNL     1      39.964 -11.304   5.195  1.00  0.00     0.278 HD
HETATM    4  H   UNL     1      40.034 -12.913   5.014  1.00  0.00     0.278 HD
HETATM    5  C   UNL     1      41.735 -12.057   5.936  1.00  0.00     0.209 C 
HETATM    6  C   UNL     1      42.627 -10.821   5.697  1.00  0.00     0.115 C 
HETATM    7  N   UNL     1      43.043 -10.713   4.301  1.00  0.00    -0.353 N 
HETATM    8  C   UNL     1      42.231 -10.989   3.233  1.00  0.00     0.249 C 
HETATM    9  O   UNL     1      42.553 -10.610   2.111  1.00  0.00    -0.271 OA
HETATM   10  C   UNL     1      42.508 -13.374   5.887  1.00  0.00     0.035 C 
HETATM   11  C   UNL     1      43.680 -13.347   6.866  1.00  0.00     0.002 C 
HETATM   12  C   UNL     1      44.599 -12.155   6.605  1.00  0.00     0.002 C 
HETATM   13  C   UNL     1      43.837 -10.830   6.638  1.00  0.00     0.027 C 
HETATM   14  H   UNL     1      43.812 -10.086   4.066  1.00  0.00     0.163 HD
ENDROOT
BRANCH   1  15
HETATM   15  C   UNL     1      41.100 -13.149   2.659  1.00  0.00     0.146 C 
BRANCH  15  16
HETATM   16  C   UNL     1      39.941 -14.087   2.852  1.00  0.00     0.224 C 
HETATM   17  N   UNL     1      40.089 -15.383   3.220  1.00  0.00    -0.327 N 
HETATM   18  H   UNL     1      39.189 -15.855   3.263  1.00  0.00     0.169 HD
HETATM   19  O   UNL     1      38.792 -13.646   2.710  1.00  0.00    -0.273 OA
BRANCH  17  20
HETATM   20  C   UNL     1      41.188 -16.206   3.542  1.00  0.00     0.035 A 
HETATM   21  C   UNL     1      41.682 -16.460   4.821  1.00  0.00     0.037 A 
HETATM   22  C   UNL     1      42.804 -17.294   5.022  1.00  0.00    -0.054 A 
HETATM   23  C   UNL     1      43.415 -17.921   3.922  1.00  0.00    -0.056 A 
HETATM   24  C   UNL     1      43.299 -17.528   6.427  1.00  0.00     0.049 C 
HETATM   25  C   UNL     1      44.605 -18.827   4.083  1.00  0.00     0.049 C 
HETATM   26  C   UNL     1      42.918 -17.669   2.641  1.00  0.00     0.009 A 
HETATM   27  C   UNL     1      41.820 -16.824   2.456  1.00  0.00     0.030 A 
ENDBRANCH  17  20
ENDBRANCH  15  16
ENDBRANCH   1  15
TORSDOF 3
ENDMDL
MODEL 4
REMARK VINA RESULT:      -7.9      3.558      5.359
REMARK  3 active torsions:
REMARK  status: ('A' for Active; 'I' for Inactive)
REMARK    1  A    between atoms: C_6  and  N_7 
REMARK       I    between atoms: N_7  and  C_8 
REMARK    2  A    between atoms: C_8  and  C_9 
REMARK    3  A    between atoms: C_9  and  C_10 
ROOT
HETATM    1  C   UNL     1      40.021 -11.397   0.933  1.00  0.00     0.286 C 
HETATM    2  N   UNL     1      40.617 -11.248  -0.466  1.00  0.00    -0.056 N 
HETATM    3  H   UNL     1      40.593 -10.246  -0.691  1.00  0.00     0.278 HD
HETATM    4  H   UNL     1      41.638 -11.451  -0.409  1.00  0.00     0.278 HD
HETATM    5  C   UNL     1      39.969 -11.992  -1.590  1.00  0.00     0.209 C 
HETATM    6  C   UNL     1      38.447 -11.740  -1.549  1.00  0.00     0.115 C 
HETATM    7  N   UNL     1      37.888 -12.003  -0.227  1.00  0.00    -0.353 N 
HETATM    8  C   UNL     1      38.507 -11.673   0.950  1.00  0.00     0.249 C 
HETATM    9  O   UNL     1      37.862 -11.668   1.995  1.00  0.00    -0.271 OA
HETATM   10  C   UNL     1      40.333 -13.476  -1.545  1.00  0.00     0.035 C 
HETATM   11  C   UNL     1      39.621 -14.239  -2.660  1.00  0.00     0.002 C 
HETATM   12  C   UNL     1      38.108 -14.037  -2.598  1.00  0.00     0.002 C 
HETATM   13  C   UNL     1      37.728 -12.556  -2.629  1.00  0.00     0.027 C 
HETATM   14  H   UNL     1      36.877 -12.101  -0.132  1.00  0.00     0.163 HD
ENDROOT
BRANCH   1  15
HETATM   15  C   UNL     1      40.728 -12.450   1.808  1.00  0.00     0.146 C 
BRANCH  15  16
HETATM   16  C   UNL     1      42.107 -12.038   2.242  1.00  0.00     0.224 C 
HETATM   17  N   UNL     1      43.049 -12.920   2.655  1.00  0.00    -0.327 N 
HETATM   18  H   UNL     1      43.901 -12.439   2.936  1.00  0.00     0.169 HD
HETATM   19  O   UNL     1      42.415 -10.839   2.178  1.00  0.00    -0.273 OA
BRANCH  17  20
HETATM   20  C   UNL     1      43.108 -14.323   2.787  1.00  0.00     0.035 A 
HETATM   21  C   UNL     1      42.984 -15.046   3.973  1.00  0.00     0.037 A 
HETATM   22  C   UNL     1      43.074 -16.455   3.986  1.00  0.00    -0.054 A 
HETATM   23  C   UNL     1      43.248 -17.155   2.779  1.00  0.00    -0.056 A 
HETATM   24  C   UNL     1      42.940 -17.186   5.298  1.00  0.00     0.049 C 
HETATM   25  C   UNL     1      43.340 -18.657   2.736  1.00  0.00     0.049 C 
HETATM   26  C   UNL     1      43.368 -16.431   1.591  1.00  0.00     0.009 A 
HETATM   27  C   UNL     1      43.298 -15.035   1.597  1.00  0.00     0.030 A 
ENDBRANCH  17  20
ENDBRANCH  15  16
ENDBRANCH   1  15
TORSDOF 3
ENDMDL
MODEL 5
REMARK VINA RESULT:      -7.8      2.420      4.012
REMARK  3 active torsions:
REMARK  status: ('A' for Active; 'I' for Inactive)
REMARK    1  A    between atoms: C_6  and  N_7 
REMARK       I    between atoms: N_7  and  C_8 
REMARK    2  A    between atoms: C_8  and  C_9 
REMARK    3  A    between atoms: C_9  and  C_10 
ROOT
HETATM    1  C   UNL     1      41.482 -13.631   5.042  1.00  0.00     0.286 C 
HETATM    2  N   UNL     1      42.006 -12.230   4.734  1.00  0.00    -0.056 N 
HETATM    3  H   UNL     1      42.811 -12.073   5.353  1.00  0.00     0.278 HD
HETATM    4  H   UNL     1      42.439 -12.245   3.785  1.00  0.00     0.278 HD
HETATM    5  C   UNL     1      41.067 -11.076   4.891  1.00  0.00     0.209 C 
HETATM    6  C   UNL     1      40.375 -11.175   6.268  1.00  0.00     0.115 C 
HETATM    7  N   UNL     1      39.782 -12.492   6.484  1.00  0.00    -0.353 N 
HETATM    8  C   UNL     1      40.368 -13.671   6.104  1.00  0.00     0.249 C 
HETATM    9  O   UNL     1      39.953 -14.731   6.565  1.00  0.00    -0.271 OA
HETATM   10  C   UNL     1      40.079 -11.011   3.726  1.00  0.00     0.035 C 
HETATM   11  C   UNL     1      39.087  -9.867   3.925  1.00  0.00     0.002 C 
HETATM   12  C   UNL     1      38.359  -9.984   5.262  1.00  0.00     0.002 C 
HETATM   13  C   UNL     1      39.334 -10.063   6.437  1.00  0.00     0.027 C 
HETATM   14  H   UNL     1      39.106 -12.607   7.239  1.00  0.00     0.163 HD
ENDROOT
BRANCH   1  15
HETATM   15  C   UNL     1      41.012 -14.414   3.800  1.00  0.00     0.146 C 
BRANCH  15  16
HETATM   16  C   UNL     1      41.958 -14.312   2.637  1.00  0.00     0.224 C 
HETATM   17  N   UNL     1      42.864 -15.272   2.332  1.00  0.00    -0.327 N 
HETATM   18  H   UNL     1      43.429 -14.998   1.531  1.00  0.00     0.169 HD
HETATM   19  O   UNL     1      41.880 -13.323   1.894  1.00  0.00    -0.273 OA
BRANCH  17  20
HETATM   20  C   UNL     1      43.195 -16.534   2.868  1.00  0.00     0.035 A 
HETATM   21  C   UNL     1      43.146 -17.754   2.196  1.00  0.00     0.037 A 
HETATM   22  C   UNL     1      43.488 -18.962   2.842  1.00  0.00    -0.054 A 
HETATM   23  C   UNL     1      43.931 -18.940   4.177  1.00  0.00    -0.056 A 
HETATM   24  C   UNL     1      43.410 -20.254   2.069  1.00  0.00     0.049 C 
HETATM   25  C   UNL     1      44.318 -20.196   4.908  1.00  0.00     0.049 C 
HETATM   26  C   UNL     1      43.983 -17.716   4.849  1.00  0.00     0.009 A 
HETATM   27  C   UNL     1      43.621 -16.531   4.202  1.00  0.00     0.030 A 
ENDBRANCH  17  20
ENDBRANCH  15  16
ENDBRANCH   1  15
TORSDOF 3
ENDMDL
MODEL 6
REMARK VINA RESULT:      -7.7      3.881      6.009
REMARK  3 active torsions:
REMARK  status: ('A' for Active; 'I' for Inactive)
REMARK    1  A    between atoms: C_6  and  N_7 
REMARK       I    between atoms: N_7  and  C_8 
REMARK    2  A    between atoms: C_8  and  C_9 
REMARK    3  A    between atoms: C_9  and  C_10 
ROOT
HETATM    1  C   UNL     1      42.985 -11.753   5.299  1.00  0.00     0.286 C 
HETATM    2  N   UNL     1      43.767 -12.522   6.362  1.00  0.00    -0.056 N 
HETATM    3  H   UNL     1      43.086 -13.099   6.870  1.00  0.00     0.278 HD
HETATM    4  H   UNL     1      44.362 -13.230   5.880  1.00  0.00     0.278 HD
HETATM    5  C   UNL     1      44.552 -11.736   7.364  1.00  0.00     0.209 C 
HETATM    6  C   UNL     1      43.649 -10.633   7.956  1.00  0.00     0.115 C 
HETATM    7  N   UNL     1      43.005  -9.840   6.913  1.00  0.00    -0.353 N 
HETATM    8  C   UNL     1      42.503 -10.362   5.750  1.00  0.00     0.249 C 
HETATM    9  O   UNL     1      41.737  -9.691   5.064  1.00  0.00    -0.271 OA
HETATM   10  C   UNL     1      45.839 -11.191   6.747  1.00  0.00     0.035 C 
HETATM   11  C   UNL     1      46.604 -10.341   7.759  1.00  0.00     0.002 C 
HETATM   12  C   UNL     1      45.735  -9.214   8.313  1.00  0.00     0.002 C 
HETATM   13  C   UNL     1      44.437  -9.743   8.924  1.00  0.00     0.027 C 
HETATM   14  H   UNL     1      42.579  -8.949   7.167  1.00  0.00     0.163 HD
ENDROOT
BRANCH   1  15
HETATM   15  C   UNL     1      43.723 -11.611   3.954  1.00  0.00     0.146 C 
BRANCH  15  16
HETATM   16  C   UNL     1      42.826 -11.779   2.760  1.00  0.00     0.224 C 
HETATM   17  N   UNL     1      42.472 -12.989   2.263  1.00  0.00    -0.327 N 
HETATM   18  H   UNL     1      41.889 -12.887   1.435  1.00  0.00     0.169 HD
HETATM   19  O   UNL     1      42.352 -10.766   2.228  1.00  0.00    -0.273 OA
BRANCH  17  20
HETATM   20  C   UNL     1      42.732 -14.327   2.625  1.00  0.00     0.035 A 
HETATM   21  C   UNL     1      42.567 -14.886   3.891  1.00  0.00     0.037 A 
HETATM   22  C   UNL     1      42.874 -16.242   4.141  1.00  0.00    -0.054 A 
HETATM   23  C   UNL     1      43.312 -17.064   3.088  1.00  0.00    -0.056 A 
HETATM   24  C   UNL     1      42.684 -16.791   5.532  1.00  0.00     0.049 C 
HETATM   25  C   UNL     1      43.642 -18.517   3.298  1.00  0.00     0.049 C 
HETATM   26  C   UNL     1      43.473 -16.505   1.818  1.00  0.00     0.009 A 
HETATM   27  C   UNL     1      43.186 -15.157   1.591  1.00  0.00     0.030 A 
ENDBRANCH  17  20
ENDBRANCH  15  16
ENDBRANCH   1  15
TORSDOF 3
ENDMDL
MODEL 7
REMARK VINA RESULT:      -7.5      2.241      3.571
REMARK  3 active torsions:
REMARK  status: ('A' for Active; 'I' for Inactive)
REMARK    1  A    between atoms: C_6  and  N_7 
REMARK       I    between atoms: N_7  and  C_8 
REMARK    2  A    between atoms: C_8  and  C_9 
REMARK    3  A    between atoms: C_9  and  C_10 
ROOT
HETATM    1  C   UNL     1      40.917 -14.154   5.003  1.00  0.00     0.286 C 
HETATM    2  N   UNL     1      40.678 -13.425   6.323  1.00  0.00    -0.056 N 
HETATM    3  H   UNL     1      39.929 -13.934   6.810  1.00  0.00     0.278 HD
HETATM    4  H   UNL     1      41.506 -13.583   6.938  1.00  0.00     0.278 HD
HETATM    5  C   UNL     1      40.299 -11.979   6.271  1.00  0.00     0.209 C 
HETATM    6  C   UNL     1      39.146 -11.797   5.261  1.00  0.00     0.115 C 
HETATM    7  N   UNL     1      39.454 -12.406   3.970  1.00  0.00    -0.353 N 
HETATM    8  C   UNL     1      40.101 -13.604   3.819  1.00  0.00     0.249 C 
HETATM    9  O   UNL     1      40.072 -14.178   2.734  1.00  0.00    -0.271 OA
HETATM   10  C   UNL     1      41.514 -11.106   5.957  1.00  0.00     0.035 C 
HETATM   11  C   UNL     1      41.108  -9.638   5.847  1.00  0.00     0.002 C 
HETATM   12  C   UNL     1      40.002  -9.440   4.812  1.00  0.00     0.002 C 
HETATM   13  C   UNL     1      38.784 -10.317   5.105  1.00  0.00     0.027 C 
HETATM   14  H   UNL     1      38.885 -12.155   3.162  1.00  0.00     0.163 HD
ENDROOT
BRANCH   1  15
HETATM   15  C   UNL     1      42.399 -14.236   4.590  1.00  0.00     0.146 C 
BRANCH  15  16
HETATM   16  C   UNL     1      43.303 -14.702   5.697  1.00  0.00     0.224 C 
HETATM   17  N   UNL     1      43.841 -15.945   5.741  1.00  0.00    -0.327 N 
HETATM   18  H   UNL     1      44.395 -16.072   6.586  1.00  0.00     0.169 HD
HETATM   19  O   UNL     1      43.607 -13.899   6.591  1.00  0.00    -0.273 OA
BRANCH  17  20
HETATM   20  C   UNL     1      43.800 -17.077   4.901  1.00  0.00     0.035 A 
HETATM   21  C   UNL     1      44.011 -18.399   5.289  1.00  0.00     0.037 A 
HETATM   22  C   UNL     1      43.959 -19.456   4.353  1.00  0.00    -0.054 A 
HETATM   23  C   UNL     1      43.644 -19.184   3.009  1.00  0.00    -0.056 A 
HETATM   24  C   UNL     1      44.203 -20.866   4.826  1.00  0.00     0.049 C 
HETATM   25  C   UNL     1      43.565 -20.273   1.975  1.00  0.00     0.049 C 
HETATM   26  C   UNL     1      43.429 -17.858   2.622  1.00  0.00     0.009 A 
HETATM   27  C   UNL     1      43.505 -16.822   3.556  1.00  0.00     0.030 A 
ENDBRANCH  17  20
ENDBRANCH  15  16
ENDBRANCH   1  15
TORSDOF 3
ENDMDL
MODEL 8
REMARK VINA RESULT:      -7.4      1.914      6.174
REMARK  3 active torsions:
REMARK  status: ('A' for Active; 'I' for Inactive)
REMARK    1  A    between atoms: C_6  and  N_7 
REMARK       I    between atoms: N_7  and  C_8 
REMARK    2  A    between atoms: C_8  and  C_9 
REMARK    3  A    between atoms: C_9  and  C_10 
ROOT
HETATM    1  C   UNL     1      41.614 -14.238   6.210  1.00  0.00     0.286 C 
HETATM    2  N   UNL     1      40.787 -15.480   5.885  1.00  0.00    -0.056 N 
HETATM    3  H   UNL     1      40.599 -15.951   6.778  1.00  0.00     0.278 HD
HETATM    4  H   UNL     1      39.840 -15.170   5.579  1.00  0.00     0.278 HD
HETATM    5  C   UNL     1      41.368 -16.485   4.942  1.00  0.00     0.209 C 
HETATM    6  C   UNL     1      42.810 -16.816   5.384  1.00  0.00     0.115 C 
HETATM    7  N   UNL     1      43.609 -15.609   5.575  1.00  0.00    -0.353 N 
HETATM    8  C   UNL     1      43.137 -14.455   6.142  1.00  0.00     0.249 C 
HETATM    9  O   UNL     1      43.928 -13.597   6.521  1.00  0.00    -0.271 OA
HETATM   10  C   UNL     1      41.281 -15.994   3.497  1.00  0.00     0.035 C 
HETATM   11  C   UNL     1      41.929 -17.000   2.547  1.00  0.00     0.002 C 
HETATM   12  C   UNL     1      43.373 -17.295   2.946  1.00  0.00     0.002 C 
HETATM   13  C   UNL     1      43.478 -17.775   4.394  1.00  0.00     0.027 C 
HETATM   14  H   UNL     1      44.623 -15.698   5.634  1.00  0.00     0.163 HD
ENDROOT
BRANCH   1  15
HETATM   15  C   UNL     1      41.250 -13.001   5.365  1.00  0.00     0.146 C 
BRANCH  15  16
HETATM   16  C   UNL     1      39.769 -12.790   5.224  1.00  0.00     0.224 C 
HETATM   17  N   UNL     1      39.161 -12.578   4.031  1.00  0.00    -0.327 N 
HETATM   18  H   UNL     1      38.162 -12.426   4.153  1.00  0.00     0.169 HD
HETATM   19  O   UNL     1      39.061 -12.854   6.239  1.00  0.00    -0.273 OA
BRANCH  17  20
HETATM   20  C   UNL     1      39.595 -12.518   2.691  1.00  0.00     0.035 A 
HETATM   21  C   UNL     1      39.548 -13.555   1.760  1.00  0.00     0.037 A 
HETATM   22  C   UNL     1      40.027 -13.382   0.443  1.00  0.00    -0.054 A 
HETATM   23  C   UNL     1      40.522 -12.130   0.039  1.00  0.00    -0.056 A 
HETATM   24  C   UNL     1      39.958 -14.541  -0.519  1.00  0.00     0.049 C 
HETATM   25  C   UNL     1      41.035 -11.890  -1.356  1.00  0.00     0.049 C 
HETATM   26  C   UNL     1      40.566 -11.089   0.970  1.00  0.00     0.009 A 
HETATM   27  C   UNL     1      40.108 -11.282   2.276  1.00  0.00     0.030 A 
ENDBRANCH  17  20
ENDBRANCH  15  16
ENDBRANCH   1  15
TORSDOF 3
ENDMDL
MODEL 9
REMARK VINA RESULT:      -7.4     14.029     15.846
REMARK  3 active torsions:
REMARK  status: ('A' for Active; 'I' for Inactive)
REMARK    1  A    between atoms: C_6  and  N_7 
REMARK       I    between atoms: N_7  and  C_8 
REMARK    2  A    between atoms: C_8  and  C_9 
REMARK    3  A    between atoms: C_9  and  C_10 
ROOT
HETATM    1  C   UNL     1      45.731 -28.474  -0.553  1.00  0.00     0.286 C 
HETATM    2  N   UNL     1      46.483 -28.205  -1.855  1.00  0.00    -0.056 N 
HETATM    3  H   UNL     1      46.364 -27.206  -2.063  1.00  0.00     0.278 HD
HETATM    4  H   UNL     1      47.506 -28.284  -1.663  1.00  0.00     0.278 HD
HETATM    5  C   UNL     1      46.090 -28.984  -3.070  1.00  0.00     0.209 C 
HETATM    6  C   UNL     1      44.557 -28.921  -3.233  1.00  0.00     0.115 C 
HETATM    7  N   UNL     1      43.864 -29.297  -2.003  1.00  0.00    -0.353 N 
HETATM    8  C   UNL     1      44.275 -28.934  -0.747  1.00  0.00     0.249 C 
HETATM    9  O   UNL     1      43.501 -29.044   0.200  1.00  0.00    -0.271 OA
HETATM   10  C   UNL     1      46.629 -30.412  -3.002  1.00  0.00     0.035 C 
HETATM   11  C   UNL     1      46.173 -31.218  -4.217  1.00  0.00     0.002 C 
HETATM   12  C   UNL     1      44.653 -31.205  -4.358  1.00  0.00     0.002 C 
HETATM   13  C   UNL     1      44.097 -29.782  -4.414  1.00  0.00     0.027 C 
HETATM   14  H   UNL     1      42.871 -29.521  -2.049  1.00  0.00     0.163 HD
ENDROOT
BRANCH   1  15
HETATM   15  C   UNL     1      46.443 -29.462   0.391  1.00  0.00     0.146 C 
BRANCH  15  16
HETATM   16  C   UNL     1      47.300 -28.788   1.426  1.00  0.00     0.224 C 
HETATM   17  N   UNL     1      48.613 -29.074   1.601  1.00  0.00    -0.327 N 
HETATM   18  H   UNL     1      49.003 -28.534   2.371  1.00  0.00     0.169 HD
HETATM   19  O   UNL     1      46.795 -27.897   2.124  1.00  0.00    -0.273 OA
BRANCH  17  20
HETATM   20  C   UNL     1      49.535 -29.936   0.974  1.00  0.00     0.035 A 
HETATM   21  C   UNL     1      49.925 -29.895  -0.365  1.00  0.00     0.037 A 
HETATM   22  C   UNL     1      50.850 -30.824  -0.889  1.00  0.00    -0.054 A 
HETATM   23  C   UNL     1      51.431 -31.785  -0.042  1.00  0.00    -0.056 A 
HETATM   24  C   UNL     1      51.229 -30.738  -2.345  1.00  0.00     0.049 C 
HETATM   25  C   UNL     1      52.430 -32.791  -0.547  1.00  0.00     0.049 C 
HETATM   26  C   UNL     1      51.043 -31.824   1.300  1.00  0.00     0.009 A 
HETATM   27  C   UNL     1      50.110 -30.911   1.799  1.00  0.00     0.030 A 
ENDBRANCH  17  20
ENDBRANCH  15  16
ENDBRANCH   1  15
TORSDOF 3
ENDMDL
MODEL 10
REMARK VINA RESULT:      -7.3      2.556      3.878
REMARK  3 active torsions:
REMARK  status: ('A' for Active; 'I' for Inactive)
REMARK    1  A    between atoms: C_6  and  N_7 
REMARK       I    between atoms: N_7  and  C_8 
REMARK    2  A    between atoms: C_8  and  C_9 
REMARK    3  A    between atoms: C_9  and  C_10 
ROOT
HETATM    1  C   UNL     1      39.982 -14.869   2.479  1.00  0.00     0.286 C 
HETATM    2  N   UNL     1      38.870 -13.836   2.647  1.00  0.00    -0.056 N 
HETATM    3  H   UNL     1      38.027 -14.238   2.219  1.00  0.00     0.278 HD
HETATM    4  H   UNL     1      38.620 -13.788   3.658  1.00  0.00     0.278 HD
HETATM    5  C   UNL     1      39.081 -12.473   2.067  1.00  0.00     0.209 C 
HETATM    6  C   UNL     1      39.559 -12.617   0.606  1.00  0.00     0.115 C 
HETATM    7  N   UNL     1      40.699 -13.523   0.494  1.00  0.00    -0.353 N 
HETATM    8  C   UNL     1      40.831 -14.685   1.207  1.00  0.00     0.249 C 
HETATM    9  O   UNL     1      41.660 -15.520   0.859  1.00  0.00    -0.271 OA
HETATM   10  C   UNL     1      40.036 -11.652   2.933  1.00  0.00     0.035 C 
HETATM   11  C   UNL     1      40.293 -10.284   2.303  1.00  0.00     0.002 C 
HETATM   12  C   UNL     1      40.815 -10.416   0.874  1.00  0.00     0.002 C 
HETATM   13  C   UNL     1      39.877 -11.247  -0.002  1.00  0.00     0.027 C 
HETATM   14  H   UNL     1      41.246 -13.517  -0.366  1.00  0.00     0.163 HD
ENDROOT
BRANCH   1  15
HETATM   15  C   UNL     1      40.925 -14.981   3.693  1.00  0.00     0.146 C 
BRANCH  15  16
HETATM   16  C   UNL     1      42.336 -14.556   3.395  1.00  0.00     0.224 C 
HETATM   17  N   UNL     1      43.386 -15.413   3.406  1.00  0.00    -0.327 N 
HETATM   18  H   UNL     1      44.257 -14.924   3.211  1.00  0.00     0.169 HD
HETATM   19  O   UNL     1      42.546 -13.376   3.082  1.00  0.00    -0.273 OA
BRANCH  17  20
HETATM   20  C   UNL     1      43.537 -16.797   3.627  1.00  0.00     0.035 A 
HETATM   21  C   UNL     1      43.485 -17.799   2.658  1.00  0.00     0.037 A 
HETATM   22  C   UNL     1      43.637 -19.160   3.001  1.00  0.00    -0.054 A 
HETATM   23  C   UNL     1      43.892 -19.520   4.336  1.00  0.00    -0.056 A 
HETATM   24  C   UNL     1      43.563 -20.202   1.913  1.00  0.00     0.049 C 
HETATM   25  C   UNL     1      44.073 -20.955   4.752  1.00  0.00     0.049 C 
HETATM   26  C   UNL     1      43.949 -18.516   5.306  1.00  0.00     0.009 A 
HETATM   27  C   UNL     1      43.775 -17.175   4.954  1.00  0.00     0.030 A 
ENDBRANCH  17  20
ENDBRANCH  15  16
ENDBRANCH   1  15
TORSDOF 3
ENDMDL
