MODEL 1
REMARK VINA RESULT:      -8.9      0.000      0.000
REMARK  9 active torsions:
REMARK  status: ('A' for Active; 'I' for Inactive)
REMARK    1  A    between atoms: O_2  and  C_3 
REMARK    2  A    between atoms: C_5  and  O_6 
REMARK    3  A    between atoms: C_8  and  N_9 
REMARK    4  A    between atoms: C_10  and  C_12 
REMARK    5  A    between atoms: C_10  and  O_11 
REMARK       I    between atoms: C_12  and  N_13 
REMARK    6  A    between atoms: N_13  and  C_14 
REMARK    7  A    between atoms: C_14  and  C_15 
REMARK    8  A    between atoms: C_15  and  N_16 
REMARK    9  A    between atoms: N_20  and  C_21 
ROOT
HETATM    1  N   UNL     1      42.358 -14.716   5.154  1.00  0.00    -0.251 N 
HETATM    2  C   UNL     1      42.386 -15.096   3.738  1.00  0.00     0.256 C 
HETATM    3  C   UNL     1      42.835 -16.537   3.537  1.00  0.00     0.034 A 
HETATM    4  C   UNL     1      43.645 -17.109   4.516  1.00  0.00     0.048 A 
HETATM    5  N   UNL     1      43.905 -16.395   5.680  1.00  0.00    -0.308 N 
HETATM    6  C   UNL     1      43.268 -15.250   6.053  1.00  0.00     0.330 C 
HETATM    7  O   UNL     1      43.529 -14.766   7.154  1.00  0.00    -0.246 OA
HETATM    8  C   UNL     1      42.569 -17.293   2.381  1.00  0.00     0.015 A 
HETATM    9  C   UNL     1      43.104 -18.574   2.220  1.00  0.00     0.001 A 
HETATM   10  C   UNL     1      43.923 -19.115   3.205  1.00  0.00     0.002 A 
HETATM   11  C   UNL     1      44.197 -18.381   4.357  1.00  0.00     0.030 A 
HETATM   12  H   UNL     1      44.496 -16.797   6.398  1.00  0.00     0.170 HD
ENDROOT
BRANCH   2  13
HETATM   13  C   UNL     1      41.008 -14.834   2.954  1.00  0.00     0.279 C 
HETATM   14  N   UNL     1      40.788 -13.710   2.193  1.00  0.00    -0.355 N 
HETATM   15  H   UNL     1      39.810 -13.647   1.927  1.00  0.00     0.162 HD
HETATM   16  O   UNL     1      40.063 -15.631   2.952  1.00  0.00    -0.268 OA
BRANCH  14  17
HETATM   17  C   UNL     1      41.682 -12.641   1.783  1.00  0.00     0.150 C 
BRANCH  17  18
HETATM   18  C   UNL     1      41.192 -11.211   2.109  1.00  0.00     0.254 C 
BRANCH  18  19
HETATM   19  N   UNL     1      40.535 -10.483   0.933  1.00  0.00    -0.067 N 
HETATM   20  H   UNL     1      40.604  -9.470   1.080  1.00  0.00     0.280 HD
HETATM   21  C   UNL     1      41.326 -10.815  -0.354  1.00  0.00     0.254 C 
HETATM   22  C   UNL     1      40.641 -10.260  -1.622  1.00  0.00     0.150 C 
HETATM   23  N   UNL     1      39.238 -10.710  -1.698  1.00  0.00    -0.378 N 
HETATM   24  C   UNL     1      38.462 -10.236  -0.534  1.00  0.00     0.150 C 
HETATM   25  C   UNL     1      39.044 -10.825   0.768  1.00  0.00     0.254 C 
BRANCH  23  26
HETATM   26  C   UNL     1      38.937 -11.991  -2.192  1.00  0.00     0.030 A 
HETATM   27  C   UNL     1      39.917 -12.955  -2.483  1.00  0.00     0.029 A 
HETATM   28  C   UNL     1      39.589 -14.236  -2.950  1.00  0.00     0.002 A 
HETATM   29  C   UNL     1      38.264 -14.586  -3.165  1.00  0.00     0.000 A 
HETATM   30  C   UNL     1      37.272 -13.644  -2.938  1.00  0.00     0.002 A 
HETATM   31  C   UNL     1      37.609 -12.366  -2.472  1.00  0.00     0.029 A 
ENDBRANCH  23  26
ENDBRANCH  18  19
ENDBRANCH  17  18
ENDBRANCH  14  17
ENDBRANCH   2  13
BRANCH   2  32
HETATM   32  O   UNL     1      43.451 -14.327   3.161  1.00  0.00    -0.359 OA
HETATM   33  H   UNL     1      44.240 -14.856   3.375  1.00  0.00     0.213 HD
ENDBRANCH   2  32
BRANCH   1  34
HETATM   34  C   UNL     1      41.633 -13.554   5.559  1.00  0.00     0.076 A 
HETATM   35  C   UNL     1      42.231 -12.282   5.462  1.00  0.00     0.098 A 
HETATM   36  C   UNL     1      41.483 -11.145   5.778  1.00  0.00     0.075 A 
HETATM   37  C   UNL     1      40.140 -11.272   6.133  1.00  0.00     0.070 A 
HETATM   38  C   UNL     1      39.542 -12.526   6.231  1.00  0.00     0.039 A 
HETATM   39  C   UNL     1      40.285 -13.667   5.931  1.00  0.00     0.035 A 
BRANCH  35  40
HETATM   40  O   UNL     1      43.516 -12.258   4.989  1.00  0.00    -0.354 OA
HETATM   41  C   UNL     1      44.495 -11.575   5.765  1.00  0.00     0.210 C 
ENDBRANCH  35  40
BRANCH  37  42
HETATM   42  O   UNL     1      39.449 -10.122   6.404  1.00  0.00    -0.356 OA
HETATM   43  C   UNL     1      38.394  -9.916   5.461  1.00  0.00     0.210 C 
ENDBRANCH  37  42
ENDBRANCH   1  34
TORSDOF 9
ENDMDL
MODEL 2
REMARK VINA RESULT:      -8.9      4.133      8.911
REMARK  9 active torsions:
REMARK  status: ('A' for Active; 'I' for Inactive)
REMARK    1  A    between atoms: O_2  and  C_3 
REMARK    2  A    between atoms: C_5  and  O_6 
REMARK    3  A    between atoms: C_8  and  N_9 
REMARK    4  A    between atoms: C_10  and  C_12 
REMARK    5  A    between atoms: C_10  and  O_11 
REMARK       I    between atoms: C_12  and  N_13 
REMARK    6  A    between atoms: N_13  and  C_14 
REMARK    7  A    between atoms: C_14  and  C_15 
REMARK    8  A    between atoms: C_15  and  N_16 
REMARK    9  A    between atoms: N_20  and  C_21 
ROOT
HETATM    1  N   UNL     1      41.494 -14.440   5.080  1.00  0.00    -0.251 N 
HETATM    2  C   UNL     1      41.595 -13.207   4.293  1.00  0.00     0.256 C 
HETATM    3  C   UNL     1      40.837 -12.050   4.932  1.00  0.00     0.034 A 
HETATM    4  C   UNL     1      39.764 -12.359   5.767  1.00  0.00     0.048 A 
HETATM    5  N   UNL     1      39.512 -13.690   6.079  1.00  0.00    -0.308 N 
HETATM    6  C   UNL     1      40.348 -14.730   5.805  1.00  0.00     0.330 C 
HETATM    7  O   UNL     1      40.046 -15.849   6.217  1.00  0.00    -0.246 OA
HETATM    8  C   UNL     1      41.084 -10.694   4.653  1.00  0.00     0.015 A 
HETATM    9  C   UNL     1      40.277  -9.690   5.195  1.00  0.00     0.001 A 
HETATM   10  C   UNL     1      39.203 -10.026   6.013  1.00  0.00     0.002 A 
HETATM   11  C   UNL     1      38.943 -11.364   6.300  1.00  0.00     0.030 A 
HETATM   12  H   UNL     1      38.733 -13.929   6.681  1.00  0.00     0.170 HD
ENDROOT
BRANCH   2  13
HETATM   13  C   UNL     1      43.100 -12.757   3.956  1.00  0.00     0.279 C 
HETATM   14  N   UNL     1      43.972 -12.299   4.915  1.00  0.00    -0.355 N 
HETATM   15  H   UNL     1      44.802 -11.905   4.481  1.00  0.00     0.162 HD
HETATM   16  O   UNL     1      43.592 -12.818   2.822  1.00  0.00    -0.268 OA
BRANCH  14  17
HETATM   17  C   UNL     1      43.865 -12.251   6.362  1.00  0.00     0.150 C 
BRANCH  17  18
HETATM   18  C   UNL     1      44.967 -11.436   7.078  1.00  0.00     0.254 C 
BRANCH  18  19
HETATM   19  N   UNL     1      44.587  -9.984   7.378  1.00  0.00    -0.067 N 
HETATM   20  H   UNL     1      44.860  -9.391   6.586  1.00  0.00     0.280 HD
HETATM   21  C   UNL     1      43.048  -9.895   7.509  1.00  0.00     0.254 C 
HETATM   22  C   UNL     1      42.580  -8.500   7.976  1.00  0.00     0.150 C 
HETATM   23  N   UNL     1      43.268  -8.106   9.220  1.00  0.00    -0.378 N 
HETATM   24  C   UNL     1      44.731  -8.037   9.021  1.00  0.00     0.150 C 
HETATM   25  C   UNL     1      45.281  -9.425   8.634  1.00  0.00     0.254 C 
BRANCH  23  26
HETATM   26  C   UNL     1      42.811  -8.588  10.459  1.00  0.00     0.030 A 
HETATM   27  C   UNL     1      43.521  -8.420  11.660  1.00  0.00     0.029 A 
HETATM   28  C   UNL     1      43.031  -8.886  12.889  1.00  0.00     0.002 A 
HETATM   29  C   UNL     1      41.820  -9.561  12.950  1.00  0.00     0.000 A 
HETATM   30  C   UNL     1      41.115  -9.789  11.778  1.00  0.00     0.002 A 
HETATM   31  C   UNL     1      41.613  -9.320  10.555  1.00  0.00     0.029 A 
ENDBRANCH  23  26
ENDBRANCH  18  19
ENDBRANCH  17  18
ENDBRANCH  14  17
ENDBRANCH   2  13
BRANCH   2  32
HETATM   32  O   UNL     1      40.863 -13.466   3.087  1.00  0.00    -0.359 OA
HETATM   33  H   UNL     1      40.049 -12.946   3.212  1.00  0.00     0.213 HD
ENDBRANCH   2  32
BRANCH   1  34
HETATM   34  C   UNL     1      42.413 -15.507   4.843  1.00  0.00     0.076 A 
HETATM   35  C   UNL     1      43.394 -15.819   5.806  1.00  0.00     0.098 A 
HETATM   36  C   UNL     1      44.230 -16.919   5.602  1.00  0.00     0.075 A 
HETATM   37  C   UNL     1      44.054 -17.730   4.480  1.00  0.00     0.070 A 
HETATM   38  C   UNL     1      43.087 -17.428   3.525  1.00  0.00     0.039 A 
HETATM   39  C   UNL     1      42.257 -16.323   3.713  1.00  0.00     0.035 A 
BRANCH  35  40
HETATM   40  O   UNL     1      43.405 -15.033   6.927  1.00  0.00    -0.354 OA
HETATM   41  C   UNL     1      43.106 -15.651   8.173  1.00  0.00     0.210 C 
ENDBRANCH  35  40
BRANCH  37  42
HETATM   42  O   UNL     1      44.884 -18.809   4.348  1.00  0.00    -0.356 OA
HETATM   43  C   UNL     1      44.294 -19.988   4.903  1.00  0.00     0.210 C 
ENDBRANCH  37  42
ENDBRANCH   1  34
TORSDOF 9
ENDMDL
MODEL 3
REMARK VINA RESULT:      -8.8      3.660      8.376
REMARK  9 active torsions:
REMARK  status: ('A' for Active; 'I' for Inactive)
REMARK    1  A    between atoms: O_2  and  C_3 
REMARK    2  A    between atoms: C_5  and  O_6 
REMARK    3  A    between atoms: C_8  and  N_9 
REMARK    4  A    between atoms: C_10  and  C_12 
REMARK    5  A    between atoms: C_10  and  O_11 
REMARK       I    between atoms: C_12  and  N_13 
REMARK    6  A    between atoms: N_13  and  C_14 
REMARK    7  A    between atoms: C_14  and  C_15 
REMARK    8  A    between atoms: C_15  and  N_16 
REMARK    9  A    between atoms: N_20  and  C_21 
ROOT
HETATM    1  N   UNL     1      42.055 -14.395   3.371  1.00  0.00    -0.251 N 
HETATM    2  C   UNL     1      41.427 -14.565   4.686  1.00  0.00     0.256 C 
HETATM    3  C   UNL     1      42.349 -15.258   5.680  1.00  0.00     0.034 A 
HETATM    4  C   UNL     1      43.340 -16.097   5.172  1.00  0.00     0.048 A 
HETATM    5  N   UNL     1      43.525 -16.169   3.797  1.00  0.00    -0.308 N 
HETATM    6  C   UNL     1      42.956 -15.330   2.886  1.00  0.00     0.330 C 
HETATM    7  O   UNL     1      43.275 -15.445   1.704  1.00  0.00    -0.246 OA
HETATM    8  C   UNL     1      42.200 -15.187   7.077  1.00  0.00     0.015 A 
HETATM    9  C   UNL     1      43.019 -15.936   7.926  1.00  0.00     0.001 A 
HETATM   10  C   UNL     1      43.990 -16.778   7.393  1.00  0.00     0.002 A 
HETATM   11  C   UNL     1      44.151 -16.862   6.013  1.00  0.00     0.030 A 
HETATM   12  H   UNL     1      44.238 -16.778   3.414  1.00  0.00     0.170 HD
ENDROOT
BRANCH   2  13
HETATM   13  C   UNL     1      40.848 -13.209   5.325  1.00  0.00     0.279 C 
HETATM   14  N   UNL     1      41.657 -12.174   5.731  1.00  0.00    -0.355 N 
HETATM   15  H   UNL     1      41.123 -11.493   6.261  1.00  0.00     0.162 HD
HETATM   16  O   UNL     1      39.640 -12.985   5.470  1.00  0.00    -0.268 OA
BRANCH  14  17
HETATM   17  C   UNL     1      43.083 -11.953   5.568  1.00  0.00     0.150 C 
BRANCH  17  18
HETATM   18  C   UNL     1      43.906 -11.965   6.878  1.00  0.00     0.254 C 
BRANCH  18  19
HETATM   19  N   UNL     1      44.368 -10.584   7.348  1.00  0.00    -0.067 N 
HETATM   20  H   UNL     1      44.883 -10.122   6.590  1.00  0.00     0.280 HD
HETATM   21  C   UNL     1      43.117  -9.722   7.643  1.00  0.00     0.254 C 
HETATM   22  C   UNL     1      43.480  -8.364   8.283  1.00  0.00     0.150 C 
HETATM   23  N   UNL     1      44.319  -8.558   9.481  1.00  0.00    -0.378 N 
HETATM   24  C   UNL     1      45.586  -9.237   9.141  1.00  0.00     0.150 C 
HETATM   25  C   UNL     1      45.299 -10.643   8.572  1.00  0.00     0.254 C 
BRANCH  23  26
HETATM   26  C   UNL     1      43.723  -8.888  10.710  1.00  0.00     0.030 A 
HETATM   27  C   UNL     1      43.577 -10.210  11.165  1.00  0.00     0.029 A 
HETATM   28  C   UNL     1      43.003 -10.514  12.408  1.00  0.00     0.002 A 
HETATM   29  C   UNL     1      42.533  -9.499  13.229  1.00  0.00     0.000 A 
HETATM   30  C   UNL     1      42.614  -8.185  12.793  1.00  0.00     0.002 A 
HETATM   31  C   UNL     1      43.189  -7.892  11.549  1.00  0.00     0.029 A 
ENDBRANCH  23  26
ENDBRANCH  18  19
ENDBRANCH  17  18
ENDBRANCH  14  17
ENDBRANCH   2  13
BRANCH   2  32
HETATM   32  O   UNL     1      40.373 -15.517   4.481  1.00  0.00    -0.359 OA
HETATM   33  H   UNL     1      39.574 -15.008   4.706  1.00  0.00     0.213 HD
ENDBRANCH   2  32
BRANCH   1  34
HETATM   34  C   UNL     1      41.501 -13.466   2.439  1.00  0.00     0.076 A 
HETATM   35  C   UNL     1      40.312 -13.782   1.751  1.00  0.00     0.098 A 
HETATM   36  C   UNL     1      39.733 -12.830   0.908  1.00  0.00     0.075 A 
HETATM   37  C   UNL     1      40.302 -11.561   0.796  1.00  0.00     0.070 A 
HETATM   38  C   UNL     1      41.475 -11.241   1.473  1.00  0.00     0.039 A 
HETATM   39  C   UNL     1      42.068 -12.189   2.306  1.00  0.00     0.035 A 
BRANCH  35  40
HETATM   40  O   UNL     1      39.771 -15.010   2.022  1.00  0.00    -0.354 OA
HETATM   41  C   UNL     1      39.831 -16.000   1.002  1.00  0.00     0.210 C 
ENDBRANCH  35  40
BRANCH  37  42
HETATM   42  O   UNL     1      39.675 -10.661  -0.022  1.00  0.00    -0.356 OA
HETATM   43  C   UNL     1      39.343 -11.250  -1.283  1.00  0.00     0.210 C 
ENDBRANCH  37  42
ENDBRANCH   1  34
TORSDOF 9
ENDMDL
MODEL 4
REMARK VINA RESULT:      -8.8      3.413      7.723
REMARK  9 active torsions:
REMARK  status: ('A' for Active; 'I' for Inactive)
REMARK    1  A    between atoms: O_2  and  C_3 
REMARK    2  A    between atoms: C_5  and  O_6 
REMARK    3  A    between atoms: C_8  and  N_9 
REMARK    4  A    between atoms: C_10  and  C_12 
REMARK    5  A    between atoms: C_10  and  O_11 
REMARK       I    between atoms: C_12  and  N_13 
REMARK    6  A    between atoms: N_13  and  C_14 
REMARK    7  A    between atoms: C_14  and  C_15 
REMARK    8  A    between atoms: C_15  and  N_16 
REMARK    9  A    between atoms: N_20  and  C_21 
ROOT
HETATM    1  N   UNL     1      41.313 -14.705   3.383  1.00  0.00    -0.251 N 
HETATM    2  C   UNL     1      41.064 -15.385   4.658  1.00  0.00     0.256 C 
HETATM    3  C   UNL     1      42.137 -16.418   4.978  1.00  0.00     0.034 A 
HETATM    4  C   UNL     1      42.834 -16.984   3.912  1.00  0.00     0.048 A 
HETATM    5  N   UNL     1      42.614 -16.500   2.628  1.00  0.00    -0.308 N 
HETATM    6  C   UNL     1      41.919 -15.368   2.327  1.00  0.00     0.330 C 
HETATM    7  O   UNL     1      41.875 -15.001   1.154  1.00  0.00    -0.246 OA
HETATM    8  C   UNL     1      42.398 -16.911   6.269  1.00  0.00     0.015 A 
HETATM    9  C   UNL     1      43.325 -17.937   6.474  1.00  0.00     0.001 A 
HETATM   10  C   UNL     1      43.995 -18.495   5.391  1.00  0.00     0.002 A 
HETATM   11  C   UNL     1      43.749 -18.021   4.105  1.00  0.00     0.030 A 
HETATM   12  H   UNL     1      43.110 -16.906   1.843  1.00  0.00     0.170 HD
ENDROOT
BRANCH   2  13
HETATM   13  C   UNL     1      40.860 -14.398   5.908  1.00  0.00     0.279 C 
HETATM   14  N   UNL     1      41.881 -13.639   6.431  1.00  0.00    -0.355 N 
HETATM   15  H   UNL     1      41.598 -13.223   7.313  1.00  0.00     0.162 HD
HETATM   16  O   UNL     1      39.772 -14.226   6.470  1.00  0.00    -0.268 OA
BRANCH  14  17
HETATM   17  C   UNL     1      43.235 -13.403   5.963  1.00  0.00     0.150 C 
BRANCH  17  18
HETATM   18  C   UNL     1      44.215 -12.857   7.027  1.00  0.00     0.254 C 
BRANCH  18  19
HETATM   19  N   UNL     1      44.357 -11.333   7.034  1.00  0.00    -0.067 N 
HETATM   20  H   UNL     1      44.665 -11.016   6.107  1.00  0.00     0.280 HD
HETATM   21  C   UNL     1      42.964 -10.710   7.291  1.00  0.00     0.254 C 
HETATM   22  C   UNL     1      43.034  -9.179   7.482  1.00  0.00     0.150 C 
HETATM   23  N   UNL     1      44.005  -8.826   8.534  1.00  0.00    -0.378 N 
HETATM   24  C   UNL     1      45.364  -9.289   8.183  1.00  0.00     0.150 C 
HETATM   25  C   UNL     1      45.386 -10.827   8.060  1.00  0.00     0.254 C 
BRANCH  23  26
HETATM   26  C   UNL     1      43.632  -8.898   9.887  1.00  0.00     0.030 A 
HETATM   27  C   UNL     1      43.587 -10.102  10.611  1.00  0.00     0.029 A 
HETATM   28  C   UNL     1      43.237 -10.145  11.969  1.00  0.00     0.002 A 
HETATM   29  C   UNL     1      42.897  -8.980  12.642  1.00  0.00     0.000 A 
HETATM   30  C   UNL     1      42.882  -7.780  11.948  1.00  0.00     0.002 A 
HETATM   31  C   UNL     1      43.232  -7.747  10.592  1.00  0.00     0.029 A 
ENDBRANCH  23  26
ENDBRANCH  18  19
ENDBRANCH  17  18
ENDBRANCH  14  17
ENDBRANCH   2  13
BRANCH   2  32
HETATM   32  O   UNL     1      39.887 -16.177   4.441  1.00  0.00    -0.359 OA
HETATM   33  H   UNL     1      39.180 -15.508   4.408  1.00  0.00     0.213 HD
ENDBRANCH   2  32
BRANCH   1  34
HETATM   34  C   UNL     1      40.637 -13.480   3.093  1.00  0.00     0.076 A 
HETATM   35  C   UNL     1      41.376 -12.296   2.901  1.00  0.00     0.098 A 
HETATM   36  C   UNL     1      40.711 -11.124   2.532  1.00  0.00     0.075 A 
HETATM   37  C   UNL     1      39.335 -11.146   2.303  1.00  0.00     0.070 A 
HETATM   38  C   UNL     1      38.598 -12.313   2.491  1.00  0.00     0.039 A 
HETATM   39  C   UNL     1      39.251 -13.484   2.872  1.00  0.00     0.035 A 
BRANCH  35  40
HETATM   40  O   UNL     1      42.734 -12.408   3.034  1.00  0.00    -0.354 OA
HETATM   41  C   UNL     1      43.455 -11.261   3.469  1.00  0.00     0.210 C 
ENDBRANCH  35  40
BRANCH  37  42
HETATM   42  O   UNL     1      38.742  -9.975   1.917  1.00  0.00    -0.356 OA
HETATM   43  C   UNL     1      38.669  -9.047   3.003  1.00  0.00     0.210 C 
ENDBRANCH  37  42
ENDBRANCH   1  34
TORSDOF 9
ENDMDL
MODEL 5
REMARK VINA RESULT:      -8.7      4.179      9.496
REMARK  9 active torsions:
REMARK  status: ('A' for Active; 'I' for Inactive)
REMARK    1  A    between atoms: O_2  and  C_3 
REMARK    2  A    between atoms: C_5  and  O_6 
REMARK    3  A    between atoms: C_8  and  N_9 
REMARK    4  A    between atoms: C_10  and  C_12 
REMARK    5  A    between atoms: C_10  and  O_11 
REMARK       I    between atoms: C_12  and  N_13 
REMARK    6  A    between atoms: N_13  and  C_14 
REMARK    7  A    between atoms: C_14  and  C_15 
REMARK    8  A    between atoms: C_15  and  N_16 
REMARK    9  A    between atoms: N_20  and  C_21 
ROOT
HETATM    1  N   UNL     1      41.452 -13.013   5.512  1.00  0.00    -0.251 N 
HETATM    2  C   UNL     1      41.856 -11.869   4.688  1.00  0.00     0.256 C 
HETATM    3  C   UNL     1      41.184 -10.575   5.128  1.00  0.00     0.034 A 
HETATM    4  C   UNL     1      39.959 -10.670   5.787  1.00  0.00     0.048 A 
HETATM    5  N   UNL     1      39.468 -11.927   6.123  1.00  0.00    -0.308 N 
HETATM    6  C   UNL     1      40.176 -13.088   6.049  1.00  0.00     0.330 C 
HETATM    7  O   UNL     1      39.652 -14.121   6.463  1.00  0.00    -0.246 OA
HETATM    8  C   UNL     1      41.668  -9.291   4.823  1.00  0.00     0.015 A 
HETATM    9  C   UNL     1      40.941  -8.148   5.167  1.00  0.00     0.001 A 
HETATM   10  C   UNL     1      39.714  -8.271   5.810  1.00  0.00     0.002 A 
HETATM   11  C   UNL     1      39.218  -9.535   6.120  1.00  0.00     0.030 A 
HETATM   12  H   UNL     1      38.577 -12.010   6.598  1.00  0.00     0.170 HD
ENDROOT
BRANCH   2  13
HETATM   13  C   UNL     1      43.445 -11.656   4.584  1.00  0.00     0.279 C 
HETATM   14  N   UNL     1      44.215 -11.272   5.656  1.00  0.00    -0.355 N 
HETATM   15  H   UNL     1      45.151 -11.024   5.350  1.00  0.00     0.162 HD
HETATM   16  O   UNL     1      44.092 -11.849   3.548  1.00  0.00    -0.268 OA
BRANCH  14  17
HETATM   17  C   UNL     1      43.892 -11.127   7.065  1.00  0.00     0.150 C 
BRANCH  17  18
HETATM   18  C   UNL     1      44.501  -9.886   7.757  1.00  0.00     0.254 C 
BRANCH  18  19
HETATM   19  N   UNL     1      43.489  -8.788   8.093  1.00  0.00    -0.067 N 
HETATM   20  H   UNL     1      43.244  -8.278   7.237  1.00  0.00     0.280 HD
HETATM   21  C   UNL     1      42.195  -9.456   8.615  1.00  0.00     0.254 C 
HETATM   22  C   UNL     1      41.173  -8.423   9.138  1.00  0.00     0.150 C 
HETATM   23  N   UNL     1      41.790  -7.540  10.146  1.00  0.00    -0.378 N 
HETATM   24  C   UNL     1      42.924  -6.787   9.572  1.00  0.00     0.150 C 
HETATM   25  C   UNL     1      44.027  -7.760   9.105  1.00  0.00     0.254 C 
BRANCH  23  26
HETATM   26  C   UNL     1      41.915  -7.973  11.477  1.00  0.00     0.030 A 
HETATM   27  C   UNL     1      41.168  -9.035  12.016  1.00  0.00     0.029 A 
HETATM   28  C   UNL     1      41.330  -9.465  13.341  1.00  0.00     0.002 A 
HETATM   29  C   UNL     1      42.233  -8.827  14.180  1.00  0.00     0.000 A 
HETATM   30  C   UNL     1      42.951  -7.743  13.699  1.00  0.00     0.002 A 
HETATM   31  C   UNL     1      42.782  -7.320  12.374  1.00  0.00     0.029 A 
ENDBRANCH  23  26
ENDBRANCH  18  19
ENDBRANCH  17  18
ENDBRANCH  14  17
ENDBRANCH   2  13
BRANCH   2  32
HETATM   32  O   UNL     1      41.294 -12.119   3.392  1.00  0.00    -0.359 OA
HETATM   33  H   UNL     1      41.017 -11.231   3.102  1.00  0.00     0.213 HD
ENDBRANCH   2  32
BRANCH   1  34
HETATM   34  C   UNL     1      42.231 -14.210   5.489  1.00  0.00     0.076 A 
HETATM   35  C   UNL     1      42.128 -15.097   4.400  1.00  0.00     0.098 A 
HETATM   36  C   UNL     1      42.958 -16.219   4.347  1.00  0.00     0.075 A 
HETATM   37  C   UNL     1      43.916 -16.424   5.340  1.00  0.00     0.070 A 
HETATM   38  C   UNL     1      44.024 -15.551   6.420  1.00  0.00     0.039 A 
HETATM   39  C   UNL     1      43.191 -14.436   6.488  1.00  0.00     0.035 A 
BRANCH  35  40
HETATM   40  O   UNL     1      41.240 -14.743   3.420  1.00  0.00    -0.354 OA
HETATM   41  C   UNL     1      40.314 -15.728   2.976  1.00  0.00     0.210 C 
ENDBRANCH  35  40
BRANCH  37  42
HETATM   42  O   UNL     1      44.721 -17.525   5.221  1.00  0.00    -0.356 OA
HETATM   43  C   UNL     1      44.168 -18.474   4.305  1.00  0.00     0.210 C 
ENDBRANCH  37  42
ENDBRANCH   1  34
TORSDOF 9
ENDMDL
MODEL 6
REMARK VINA RESULT:      -8.7      3.481      8.073
REMARK  9 active torsions:
REMARK  status: ('A' for Active; 'I' for Inactive)
REMARK    1  A    between atoms: O_2  and  C_3 
REMARK    2  A    between atoms: C_5  and  O_6 
REMARK    3  A    between atoms: C_8  and  N_9 
REMARK    4  A    between atoms: C_10  and  C_12 
REMARK    5  A    between atoms: C_10  and  O_11 
REMARK       I    between atoms: C_12  and  N_13 
REMARK    6  A    between atoms: N_13  and  C_14 
REMARK    7  A    between atoms: C_14  and  C_15 
REMARK    8  A    between atoms: C_15  and  N_16 
REMARK    9  A    between atoms: N_20  and  C_21 
ROOT
HETATM    1  N   UNL     1      41.061 -12.573   3.034  1.00  0.00    -0.251 N 
HETATM    2  C   UNL     1      40.773 -13.761   3.844  1.00  0.00     0.256 C 
HETATM    3  C   UNL     1      41.722 -14.913   3.537  1.00  0.00     0.034 A 
HETATM    4  C   UNL     1      42.310 -14.951   2.274  1.00  0.00     0.048 A 
HETATM    5  N   UNL     1      42.109 -13.888   1.402  1.00  0.00    -0.308 N 
HETATM    6  C   UNL     1      41.547 -12.694   1.741  1.00  0.00     0.330 C 
HETATM    7  O   UNL     1      41.510 -11.802   0.895  1.00  0.00    -0.246 OA
HETATM    8  C   UNL     1      41.963 -15.990   4.407  1.00  0.00     0.015 A 
HETATM    9  C   UNL     1      42.764 -17.066   4.015  1.00  0.00     0.001 A 
HETATM   10  C   UNL     1      43.326 -17.088   2.743  1.00  0.00     0.002 A 
HETATM   11  C   UNL     1      43.098 -16.029   1.867  1.00  0.00     0.030 A 
HETATM   12  H   UNL     1      42.526 -13.905   0.479  1.00  0.00     0.170 HD
ENDROOT
BRANCH   2  13
HETATM   13  C   UNL     1      40.732 -13.490   5.427  1.00  0.00     0.279 C 
HETATM   14  N   UNL     1      41.850 -13.157   6.154  1.00  0.00    -0.355 N 
HETATM   15  H   UNL     1      41.653 -13.199   7.149  1.00  0.00     0.162 HD
HETATM   16  O   UNL     1      39.694 -13.531   6.099  1.00  0.00    -0.268 OA
BRANCH  14  17
HETATM   17  C   UNL     1      43.200 -12.824   5.735  1.00  0.00     0.150 C 
BRANCH  17  18
HETATM   18  C   UNL     1      44.187 -12.506   6.883  1.00  0.00     0.254 C 
BRANCH  18  19
HETATM   19  N   UNL     1      44.416 -11.013   7.126  1.00  0.00    -0.067 N 
HETATM   20  H   UNL     1      44.783 -10.582   6.269  1.00  0.00     0.280 HD
HETATM   21  C   UNL     1      43.051 -10.349   7.425  1.00  0.00     0.254 C 
HETATM   22  C   UNL     1      43.199  -8.871   7.848  1.00  0.00     0.150 C 
HETATM   23  N   UNL     1      44.141  -8.741   8.975  1.00  0.00    -0.378 N 
HETATM   24  C   UNL     1      45.486  -9.231   8.607  1.00  0.00     0.150 C 
HETATM   25  C   UNL     1      45.425 -10.732   8.253  1.00  0.00     0.254 C 
BRANCH  23  26
HETATM   26  C   UNL     1      43.705  -8.991  10.288  1.00  0.00     0.030 A 
HETATM   27  C   UNL     1      43.285  -7.977  11.167  1.00  0.00     0.029 A 
HETATM   28  C   UNL     1      42.829  -8.254  12.464  1.00  0.00     0.002 A 
HETATM   29  C   UNL     1      42.801  -9.560  12.932  1.00  0.00     0.000 A 
HETATM   30  C   UNL     1      43.255 -10.581  12.112  1.00  0.00     0.002 A 
HETATM   31  C   UNL     1      43.710 -10.295  10.819  1.00  0.00     0.029 A 
ENDBRANCH  23  26
ENDBRANCH  18  19
ENDBRANCH  17  18
ENDBRANCH  14  17
ENDBRANCH   2  13
BRANCH   2  32
HETATM   32  O   UNL     1      39.502 -14.238   3.379  1.00  0.00    -0.359 OA
HETATM   33  H   UNL     1      38.905 -14.012   4.114  1.00  0.00     0.213 HD
ENDBRANCH   2  32
BRANCH   1  34
HETATM   34  C   UNL     1      40.530 -11.306   3.425  1.00  0.00     0.076 A 
HETATM   35  C   UNL     1      39.191 -10.982   3.127  1.00  0.00     0.098 A 
HETATM   36  C   UNL     1      38.658  -9.777   3.591  1.00  0.00     0.075 A 
HETATM   37  C   UNL     1      39.433  -8.933   4.387  1.00  0.00     0.070 A 
HETATM   38  C   UNL     1      40.756  -9.247   4.685  1.00  0.00     0.039 A 
HETATM   39  C   UNL     1      41.301 -10.441   4.216  1.00  0.00     0.035 A 
BRANCH  35  40
HETATM   40  O   UNL     1      38.482 -11.931   2.442  1.00  0.00    -0.354 OA
HETATM   41  C   UNL     1      37.791 -11.523   1.267  1.00  0.00     0.210 C 
ENDBRANCH  35  40
BRANCH  37  42
HETATM   42  O   UNL     1      38.848  -7.780   4.836  1.00  0.00    -0.356 OA
HETATM   43  C   UNL     1      37.426  -7.916   4.917  1.00  0.00     0.210 C 
ENDBRANCH  37  42
ENDBRANCH   1  34
TORSDOF 9
ENDMDL
MODEL 7
REMARK VINA RESULT:      -8.5      2.183      7.056
REMARK  9 active torsions:
REMARK  status: ('A' for Active; 'I' for Inactive)
REMARK    1  A    between atoms: O_2  and  C_3 
REMARK    2  A    between atoms: C_5  and  O_6 
REMARK    3  A    between atoms: C_8  and  N_9 
REMARK    4  A    between atoms: C_10  and  C_12 
REMARK    5  A    between atoms: C_10  and  O_11 
REMARK       I    between atoms: C_12  and  N_13 
REMARK    6  A    between atoms: N_13  and  C_14 
REMARK    7  A    between atoms: C_14  and  C_15 
REMARK    8  A    between atoms: C_15  and  N_16 
REMARK    9  A    between atoms: N_20  and  C_21 
ROOT
HETATM    1  N   UNL     1      40.945 -14.561   2.575  1.00  0.00    -0.251 N 
HETATM    2  C   UNL     1      41.770 -13.618   1.813  1.00  0.00     0.256 C 
HETATM    3  C   UNL     1      41.031 -13.049   0.609  1.00  0.00     0.034 A 
HETATM    4  C   UNL     1      40.002 -13.811   0.057  1.00  0.00     0.048 A 
HETATM    5  N   UNL     1      39.613 -14.983   0.694  1.00  0.00    -0.308 N 
HETATM    6  C   UNL     1      40.011 -15.365   1.940  1.00  0.00     0.330 C 
HETATM    7  O   UNL     1      39.521 -16.384   2.425  1.00  0.00    -0.246 OA
HETATM    8  C   UNL     1      41.387 -11.855  -0.043  1.00  0.00     0.015 A 
HETATM    9  C   UNL     1      40.731 -11.448  -1.208  1.00  0.00     0.001 A 
HETATM   10  C   UNL     1      39.718 -12.235  -1.747  1.00  0.00     0.002 A 
HETATM   11  C   UNL     1      39.352 -13.421  -1.115  1.00  0.00     0.030 A 
HETATM   12  H   UNL     1      38.870 -15.549   0.302  1.00  0.00     0.170 HD
ENDROOT
BRANCH   2  13
HETATM   13  C   UNL     1      42.394 -12.425   2.690  1.00  0.00     0.279 C 
HETATM   14  N   UNL     1      41.633 -11.401   3.200  1.00  0.00    -0.355 N 
HETATM   15  H   UNL     1      42.229 -10.665   3.569  1.00  0.00     0.162 HD
HETATM   16  O   UNL     1      43.592 -12.357   2.993  1.00  0.00    -0.268 OA
BRANCH  14  17
HETATM   17  C   UNL     1      40.195 -11.204   3.241  1.00  0.00     0.150 C 
BRANCH  17  18
HETATM   18  C   UNL     1      39.735  -9.742   3.448  1.00  0.00     0.254 C 
BRANCH  18  19
HETATM   19  N   UNL     1      39.989  -9.191   4.853  1.00  0.00    -0.067 N 
HETATM   20  H   UNL     1      39.237  -8.539   5.103  1.00  0.00     0.280 HD
HETATM   21  C   UNL     1      39.931 -10.366   5.859  1.00  0.00     0.254 C 
HETATM   22  C   UNL     1      40.340  -9.935   7.285  1.00  0.00     0.150 C 
HETATM   23  N   UNL     1      41.659  -9.276   7.274  1.00  0.00    -0.378 N 
HETATM   24  C   UNL     1      41.641  -8.060   6.435  1.00  0.00     0.150 C 
HETATM   25  C   UNL     1      41.321  -8.429   4.971  1.00  0.00     0.254 C 
BRANCH  23  26
HETATM   26  C   UNL     1      42.832 -10.051   7.256  1.00  0.00     0.030 A 
HETATM   27  C   UNL     1      42.929 -11.288   6.596  1.00  0.00     0.029 A 
HETATM   28  C   UNL     1      44.119 -12.030   6.570  1.00  0.00     0.002 A 
HETATM   29  C   UNL     1      45.248 -11.566   7.229  1.00  0.00     0.000 A 
HETATM   30  C   UNL     1      45.177 -10.374   7.933  1.00  0.00     0.002 A 
HETATM   31  C   UNL     1      43.984  -9.640   7.954  1.00  0.00     0.029 A 
ENDBRANCH  23  26
ENDBRANCH  18  19
ENDBRANCH  17  18
ENDBRANCH  14  17
ENDBRANCH   2  13
BRANCH   2  32
HETATM   32  O   UNL     1      42.810 -14.413   1.227  1.00  0.00    -0.359 OA
HETATM   33  H   UNL     1      43.544 -13.780   1.141  1.00  0.00     0.213 HD
ENDBRANCH   2  32
BRANCH   1  34
HETATM   34  C   UNL     1      41.321 -14.912   3.908  1.00  0.00     0.076 A 
HETATM   35  C   UNL     1      42.349 -15.852   4.125  1.00  0.00     0.098 A 
HETATM   36  C   UNL     1      42.767 -16.121   5.430  1.00  0.00     0.075 A 
HETATM   37  C   UNL     1      42.207 -15.422   6.500  1.00  0.00     0.070 A 
HETATM   38  C   UNL     1      41.192 -14.492   6.293  1.00  0.00     0.039 A 
HETATM   39  C   UNL     1      40.758 -14.226   4.995  1.00  0.00     0.035 A 
BRANCH  35  40
HETATM   40  O   UNL     1      42.914 -16.393   3.002  1.00  0.00    -0.354 OA
HETATM   41  C   UNL     1      43.165 -17.793   2.996  1.00  0.00     0.210 C 
ENDBRANCH  35  40
BRANCH  37  42
HETATM   42  O   UNL     1      42.677 -15.708   7.754  1.00  0.00    -0.356 OA
HETATM   43  C   UNL     1      43.795 -16.597   7.698  1.00  0.00     0.210 C 
ENDBRANCH  37  42
ENDBRANCH   1  34
TORSDOF 9
ENDMDL
MODEL 8
REMARK VINA RESULT:      -8.5      1.645      5.101
REMARK  9 active torsions:
REMARK  status: ('A' for Active; 'I' for Inactive)
REMARK    1  A    between atoms: O_2  and  C_3 
REMARK    2  A    between atoms: C_5  and  O_6 
REMARK    3  A    between atoms: C_8  and  N_9 
REMARK    4  A    between atoms: C_10  and  C_12 
REMARK    5  A    between atoms: C_10  and  O_11 
REMARK       I    between atoms: C_12  and  N_13 
REMARK    6  A    between atoms: N_13  and  C_14 
REMARK    7  A    between atoms: C_14  and  C_15 
REMARK    8  A    between atoms: C_15  and  N_16 
REMARK    9  A    between atoms: N_20  and  C_21 
ROOT
HETATM    1  N   UNL     1      41.596 -13.022   4.902  1.00  0.00    -0.251 N 
HETATM    2  C   UNL     1      40.195 -12.624   4.730  1.00  0.00     0.256 C 
HETATM    3  C   UNL     1      39.929 -11.214   5.240  1.00  0.00     0.034 A 
HETATM    4  C   UNL     1      40.768 -10.712   6.234  1.00  0.00     0.048 A 
HETATM    5  N   UNL     1      41.873 -11.459   6.625  1.00  0.00    -0.308 N 
HETATM    6  C   UNL     1      42.340 -12.564   5.978  1.00  0.00     0.330 C 
HETATM    7  O   UNL     1      43.383 -13.080   6.377  1.00  0.00    -0.246 OA
HETATM    8  C   UNL     1      38.832 -10.426   4.847  1.00  0.00     0.015 A 
HETATM    9  C   UNL     1      38.592  -9.182   5.437  1.00  0.00     0.001 A 
HETATM   10  C   UNL     1      39.436  -8.712   6.437  1.00  0.00     0.002 A 
HETATM   11  C   UNL     1      40.527  -9.478   6.840  1.00  0.00     0.030 A 
HETATM   12  H   UNL     1      42.489 -11.109   7.349  1.00  0.00     0.170 HD
ENDROOT
BRANCH   2  13
HETATM   13  C   UNL     1      39.639 -12.781   3.231  1.00  0.00     0.279 C 
HETATM   14  N   UNL     1      40.037 -11.962   2.201  1.00  0.00    -0.355 N 
HETATM   15  H   UNL     1      39.450 -12.107   1.385  1.00  0.00     0.162 HD
HETATM   16  O   UNL     1      38.841 -13.662   2.889  1.00  0.00    -0.268 OA
BRANCH  14  17
HETATM   17  C   UNL     1      41.075 -10.949   2.130  1.00  0.00     0.150 C 
BRANCH  17  18
HETATM   18  C   UNL     1      40.587  -9.531   1.752  1.00  0.00     0.254 C 
BRANCH  18  19
HETATM   19  N   UNL     1      40.450  -9.288   0.247  1.00  0.00    -0.067 N 
HETATM   20  H   UNL     1      40.671  -8.307   0.040  1.00  0.00     0.280 HD
HETATM   21  C   UNL     1      41.496 -10.159  -0.488  1.00  0.00     0.254 C 
HETATM   22  C   UNL     1      41.325 -10.108  -2.022  1.00  0.00     0.150 C 
HETATM   23  N   UNL     1      39.943 -10.453  -2.406  1.00  0.00    -0.378 N 
HETATM   24  C   UNL     1      38.974  -9.503  -1.823  1.00  0.00     0.150 C 
HETATM   25  C   UNL     1      39.031  -9.564  -0.282  1.00  0.00     0.254 C 
BRANCH  23  26
HETATM   26  C   UNL     1      39.552 -11.801  -2.486  1.00  0.00     0.030 A 
HETATM   27  C   UNL     1      40.466 -12.866  -2.552  1.00  0.00     0.029 A 
HETATM   28  C   UNL     1      40.050 -14.205  -2.604  1.00  0.00     0.002 A 
HETATM   29  C   UNL     1      38.699 -14.519  -2.617  1.00  0.00     0.000 A 
HETATM   30  C   UNL     1      37.767 -13.493  -2.604  1.00  0.00     0.002 A 
HETATM   31  C   UNL     1      38.191 -12.158  -2.552  1.00  0.00     0.029 A 
ENDBRANCH  23  26
ENDBRANCH  18  19
ENDBRANCH  17  18
ENDBRANCH  14  17
ENDBRANCH   2  13
BRANCH   2  32
HETATM   32  O   UNL     1      39.452 -13.456   5.634  1.00  0.00    -0.359 OA
HETATM   33  H   UNL     1      38.862 -13.950   5.038  1.00  0.00     0.213 HD
ENDBRANCH   2  32
BRANCH   1  34
HETATM   34  C   UNL     1      42.107 -14.138   4.172  1.00  0.00     0.076 A 
HETATM   35  C   UNL     1      41.821 -15.450   4.600  1.00  0.00     0.098 A 
HETATM   36  C   UNL     1      42.253 -16.532   3.830  1.00  0.00     0.075 A 
HETATM   37  C   UNL     1      42.913 -16.309   2.621  1.00  0.00     0.070 A 
HETATM   38  C   UNL     1      43.199 -15.015   2.192  1.00  0.00     0.039 A 
HETATM   39  C   UNL     1      42.784 -13.928   2.961  1.00  0.00     0.035 A 
BRANCH  35  40
HETATM   40  O   UNL     1      41.065 -15.558   5.736  1.00  0.00    -0.354 OA
HETATM   41  C   UNL     1      41.692 -16.080   6.902  1.00  0.00     0.210 C 
ENDBRANCH  35  40
BRANCH  37  42
HETATM   42  O   UNL     1      43.287 -17.407   1.896  1.00  0.00    -0.356 OA
HETATM   43  C   UNL     1      43.602 -18.510   2.751  1.00  0.00     0.210 C 
ENDBRANCH  37  42
ENDBRANCH   1  34
TORSDOF 9
ENDMDL
MODEL 9
REMARK VINA RESULT:      -8.4      3.589      9.053
REMARK  9 active torsions:
REMARK  status: ('A' for Active; 'I' for Inactive)
REMARK    1  A    between atoms: O_2  and  C_3 
REMARK    2  A    between atoms: C_5  and  O_6 
REMARK    3  A    between atoms: C_8  and  N_9 
REMARK    4  A    between atoms: C_10  and  C_12 
REMARK    5  A    between atoms: C_10  and  O_11 
REMARK       I    between atoms: C_12  and  N_13 
REMARK    6  A    between atoms: N_13  and  C_14 
REMARK    7  A    between atoms: C_14  and  C_15 
REMARK    8  A    between atoms: C_15  and  N_16 
REMARK    9  A    between atoms: N_20  and  C_21 
ROOT
HETATM    1  N   UNL     1      40.486 -14.141   3.587  1.00  0.00    -0.251 N 
HETATM    2  C   UNL     1      40.636 -12.751   4.030  1.00  0.00     0.256 C 
HETATM    3  C   UNL     1      39.564 -11.841   3.446  1.00  0.00     0.034 A 
HETATM    4  C   UNL     1      38.977 -12.218   2.240  1.00  0.00     0.048 A 
HETATM    5  N   UNL     1      39.298 -13.453   1.689  1.00  0.00    -0.308 N 
HETATM    6  C   UNL     1      39.991 -14.437   2.326  1.00  0.00     0.330 C 
HETATM    7  O   UNL     1      40.130 -15.520   1.758  1.00  0.00    -0.246 OA
HETATM    8  C   UNL     1      39.201 -10.597   3.993  1.00  0.00     0.015 A 
HETATM    9  C   UNL     1      38.284  -9.766   3.344  1.00  0.00     0.001 A 
HETATM   10  C   UNL     1      37.725 -10.159   2.132  1.00  0.00     0.002 A 
HETATM   11  C   UNL     1      38.072 -11.387   1.576  1.00  0.00     0.030 A 
HETATM   12  H   UNL     1      38.882 -13.738   0.810  1.00  0.00     0.170 HD
ENDROOT
BRANCH   2  13
HETATM   13  C   UNL     1      40.706 -12.567   5.624  1.00  0.00     0.279 C 
HETATM   14  N   UNL     1      41.892 -12.422   6.305  1.00  0.00    -0.355 N 
HETATM   15  H   UNL     1      41.739 -12.496   7.306  1.00  0.00     0.162 HD
HETATM   16  O   UNL     1      39.705 -12.513   6.349  1.00  0.00    -0.268 OA
BRANCH  14  17
HETATM   17  C   UNL     1      43.253 -12.243   5.830  1.00  0.00     0.150 C 
BRANCH  17  18
HETATM   18  C   UNL     1      44.320 -12.074   6.936  1.00  0.00     0.254 C 
BRANCH  18  19
HETATM   19  N   UNL     1      44.594 -10.623   7.336  1.00  0.00    -0.067 N 
HETATM   20  H   UNL     1      45.048 -10.135   6.555  1.00  0.00     0.280 HD
HETATM   21  C   UNL     1      43.239  -9.919   7.590  1.00  0.00     0.254 C 
HETATM   22  C   UNL     1      43.417  -8.495   8.161  1.00  0.00     0.150 C 
HETATM   23  N   UNL     1      44.269  -8.517   9.365  1.00  0.00    -0.378 N 
HETATM   24  C   UNL     1      45.616  -9.040   9.057  1.00  0.00     0.150 C 
HETATM   25  C   UNL     1      45.519 -10.497   8.560  1.00  0.00     0.254 C 
BRANCH  23  26
HETATM   26  C   UNL     1      43.716  -8.862  10.611  1.00  0.00     0.030 A 
HETATM   27  C   UNL     1      43.541 -10.190  11.035  1.00  0.00     0.029 A 
HETATM   28  C   UNL     1      43.011 -10.508  12.294  1.00  0.00     0.002 A 
HETATM   29  C   UNL     1      42.615  -9.501  13.162  1.00  0.00     0.000 A 
HETATM   30  C   UNL     1      42.725  -8.180  12.759  1.00  0.00     0.002 A 
HETATM   31  C   UNL     1      43.255  -7.871  11.499  1.00  0.00     0.029 A 
ENDBRANCH  23  26
ENDBRANCH  18  19
ENDBRANCH  17  18
ENDBRANCH  14  17
ENDBRANCH   2  13
BRANCH   2  32
HETATM   32  O   UNL     1      41.846 -12.287   3.414  1.00  0.00    -0.359 OA
HETATM   33  H   UNL     1      42.235 -13.105   3.058  1.00  0.00     0.213 HD
ENDBRANCH   2  32
BRANCH   1  34
HETATM   34  C   UNL     1      41.156 -15.185   4.296  1.00  0.00     0.076 A 
HETATM   35  C   UNL     1      42.500 -15.487   3.998  1.00  0.00     0.098 A 
HETATM   36  C   UNL     1      43.171 -16.449   4.757  1.00  0.00     0.075 A 
HETATM   37  C   UNL     1      42.527 -17.061   5.833  1.00  0.00     0.070 A 
HETATM   38  C   UNL     1      41.200 -16.767   6.133  1.00  0.00     0.039 A 
HETATM   39  C   UNL     1      40.517 -15.818   5.373  1.00  0.00     0.035 A 
BRANCH  35  40
HETATM   40  O   UNL     1      43.075 -14.746   3.002  1.00  0.00    -0.354 OA
HETATM   41  C   UNL     1      43.534 -15.434   1.844  1.00  0.00     0.210 C 
ENDBRANCH  35  40
BRANCH  37  42
HETATM   42  O   UNL     1      43.243 -17.975   6.558  1.00  0.00    -0.356 OA
HETATM   43  C   UNL     1      43.803 -18.984   5.712  1.00  0.00     0.210 C 
ENDBRANCH  37  42
ENDBRANCH   1  34
TORSDOF 9
ENDMDL
MODEL 10
REMARK VINA RESULT:      -8.4      2.487      8.260
REMARK  9 active torsions:
REMARK  status: ('A' for Active; 'I' for Inactive)
REMARK    1  A    between atoms: O_2  and  C_3 
REMARK    2  A    between atoms: C_5  and  O_6 
REMARK    3  A    between atoms: C_8  and  N_9 
REMARK    4  A    between atoms: C_10  and  C_12 
REMARK    5  A    between atoms: C_10  and  O_11 
REMARK       I    between atoms: C_12  and  N_13 
REMARK    6  A    between atoms: N_13  and  C_14 
REMARK    7  A    between atoms: C_14  and  C_15 
REMARK    8  A    between atoms: C_15  and  N_16 
REMARK    9  A    between atoms: N_20  and  C_21 
ROOT
HETATM    1  N   UNL     1      39.009 -10.728   1.089  1.00  0.00    -0.251 N 
HETATM    2  C   UNL     1      40.037  -9.761   1.487  1.00  0.00     0.256 C 
HETATM    3  C   UNL     1      39.891  -9.329   2.940  1.00  0.00     0.034 A 
HETATM    4  C   UNL     1      38.624  -9.404   3.516  1.00  0.00     0.048 A 
HETATM    5  N   UNL     1      37.586  -9.980   2.794  1.00  0.00    -0.308 N 
HETATM    6  C   UNL     1      37.734 -10.674   1.631  1.00  0.00     0.330 C 
HETATM    7  O   UNL     1      36.742 -11.212   1.139  1.00  0.00    -0.246 OA
HETATM    8  C   UNL     1      40.928  -8.764   3.704  1.00  0.00     0.015 A 
HETATM    9  C   UNL     1      40.693  -8.292   4.998  1.00  0.00     0.001 A 
HETATM   10  C   UNL     1      39.416  -8.364   5.544  1.00  0.00     0.002 A 
HETATM   11  C   UNL     1      38.376  -8.920   4.802  1.00  0.00     0.030 A 
HETATM   12  H   UNL     1      36.659 -10.038   3.199  1.00  0.00     0.170 HD
ENDROOT
BRANCH   2  13
HETATM   13  C   UNL     1      41.544 -10.243   1.205  1.00  0.00     0.279 C 
HETATM   14  N   UNL     1      42.182 -11.182   1.980  1.00  0.00    -0.355 N 
HETATM   15  H   UNL     1      43.170 -11.220   1.752  1.00  0.00     0.162 HD
HETATM   16  O   UNL     1      42.226  -9.829   0.259  1.00  0.00    -0.268 OA
BRANCH  14  17
HETATM   17  C   UNL     1      41.690 -12.038   3.046  1.00  0.00     0.150 C 
BRANCH  17  18
HETATM   18  C   UNL     1      42.501 -11.983   4.362  1.00  0.00     0.254 C 
BRANCH  18  19
HETATM   19  N   UNL     1      42.199 -13.121   5.340  1.00  0.00    -0.067 N 
HETATM   20  H   UNL     1      41.774 -12.734   6.190  1.00  0.00     0.280 HD
HETATM   21  C   UNL     1      41.155 -14.062   4.692  1.00  0.00     0.254 C 
HETATM   22  C   UNL     1      40.910 -15.332   5.535  1.00  0.00     0.150 C 
HETATM   23  N   UNL     1      42.181 -16.023   5.821  1.00  0.00    -0.378 N 
HETATM   24  C   UNL     1      43.099 -15.156   6.589  1.00  0.00     0.150 C 
HETATM   25  C   UNL     1      43.456 -13.901   5.765  1.00  0.00     0.254 C 
BRANCH  23  26
HETATM   26  C   UNL     1      42.754 -16.870   4.856  1.00  0.00     0.030 A 
HETATM   27  C   UNL     1      42.348 -16.891   3.511  1.00  0.00     0.029 A 
HETATM   28  C   UNL     1      42.954 -17.726   2.560  1.00  0.00     0.002 A 
HETATM   29  C   UNL     1      43.974 -18.588   2.935  1.00  0.00     0.000 A 
HETATM   30  C   UNL     1      44.368 -18.632   4.263  1.00  0.00     0.002 A 
HETATM   31  C   UNL     1      43.756 -17.794   5.206  1.00  0.00     0.029 A 
ENDBRANCH  23  26
ENDBRANCH  18  19
ENDBRANCH  17  18
ENDBRANCH  14  17
ENDBRANCH   2  13
BRANCH   2  32
HETATM   32  O   UNL     1      39.742  -8.568   0.748  1.00  0.00    -0.359 OA
HETATM   33  H   UNL     1      40.254  -8.688  -0.071  1.00  0.00     0.213 HD
ENDBRANCH   2  32
BRANCH   1  34
HETATM   34  C   UNL     1      39.192 -11.507  -0.094  1.00  0.00     0.076 A 
HETATM   35  C   UNL     1      39.536 -12.870   0.007  1.00  0.00     0.098 A 
HETATM   36  C   UNL     1      39.627 -13.643  -1.153  1.00  0.00     0.075 A 
HETATM   37  C   UNL     1      39.324 -13.077  -2.392  1.00  0.00     0.070 A 
HETATM   38  C   UNL     1      38.982 -11.732  -2.499  1.00  0.00     0.039 A 
HETATM   39  C   UNL     1      38.902 -10.949  -1.349  1.00  0.00     0.035 A 
BRANCH  35  40
HETATM   40  O   UNL     1      39.697 -13.355   1.277  1.00  0.00    -0.354 OA
HETATM   41  C   UNL     1      39.912 -14.753   1.430  1.00  0.00     0.210 C 
ENDBRANCH  35  40
BRANCH  37  42
HETATM   42  O   UNL     1      39.402 -13.890  -3.491  1.00  0.00    -0.356 OA
HETATM   43  C   UNL     1      38.251 -14.733  -3.595  1.00  0.00     0.210 C 
ENDBRANCH  37  42
ENDBRANCH   1  34
TORSDOF 9
ENDMDL
