MODEL 1
REMARK VINA RESULT:      -9.6      0.000      0.000
REMARK  8 active torsions:
REMARK  status: ('A' for Active; 'I' for Inactive)
REMARK    1  A    between atoms: C_2  and  O_3 
REMARK    2  A    between atoms: O_3  and  C_4 
REMARK    3  A    between atoms: C_7  and  N_8 
REMARK       I    between atoms: N_8  and  C_9 
REMARK    4  A    between atoms: C_9  and  C_10 
REMARK    5  A    between atoms: C_12  and  N_13 
REMARK    6  A    between atoms: N_16  and  C_18 
REMARK    7  A    between atoms: C_18  and  C_19 
REMARK    8  A    between atoms: C_18  and  C_25 
ROOT
HETATM    1  C   UNL     1      38.617 -11.827   2.907  1.00  0.00     0.164 C 
HETATM    2  N   UNL     1      39.021 -13.217   2.634  1.00  0.00    -0.249 NA
HETATM    3  C   UNL     1      39.774 -13.454   1.520  1.00  0.00     0.181 C 
HETATM    4  N   UNL     1      39.976 -12.580   0.586  1.00  0.00    -0.185 NA
HETATM    5  C   UNL     1      39.421 -11.337   0.717  1.00  0.00     0.247 C 
HETATM    6  O   UNL     1      39.920 -10.329   0.222  1.00  0.00    -0.271 OA
HETATM    7  C   UNL     1      38.215 -11.201   1.597  1.00  0.00     0.134 C 
HETATM    8  H   UNL     1      39.385 -13.624   3.493  1.00  0.00     0.131 HD
ENDROOT
BRANCH   3   9
HETATM    9  N   UNL     1      40.332 -14.708   1.431  1.00  0.00    -0.353 N 
HETATM   10  C   UNL     1      39.888 -15.902   2.160  1.00  0.00     0.153 C 
HETATM   11  C   UNL     1      40.905 -16.240   3.272  1.00  0.00     0.256 C 
HETATM   12  N   UNL     1      42.303 -16.408   2.670  1.00  0.00    -0.056 N 
HETATM   13  H   UNL     1      42.246 -17.132   1.952  1.00  0.00     0.281 HD
HETATM   14  C   UNL     1      42.707 -15.143   1.898  1.00  0.00     0.256 C 
HETATM   15  C   UNL     1      41.659 -14.862   0.802  1.00  0.00     0.153 C 
BRANCH  12  16
HETATM   16  C   UNL     1      43.378 -16.895   3.651  1.00  0.00     0.254 C 
BRANCH  16  17
HETATM   17  C   UNL     1      43.188 -16.305   5.049  1.00  0.00    -0.023 A 
HETATM   18  C   UNL     1      42.205 -16.787   5.935  1.00  0.00     0.009 A 
HETATM   19  C   UNL     1      42.025 -16.203   7.190  1.00  0.00     0.001 A 
HETATM   20  C   UNL     1      42.825 -15.135   7.583  1.00  0.00     0.000 A 
HETATM   21  C   UNL     1      43.813 -14.653   6.727  1.00  0.00     0.001 A 
HETATM   22  C   UNL     1      43.996 -15.233   5.472  1.00  0.00     0.009 A 
ENDBRANCH  16  17
BRANCH  16  23
HETATM   23  C   UNL     1      43.646 -18.412   3.606  1.00  0.00    -0.023 A 
HETATM   24  C   UNL     1      44.079 -19.150   4.725  1.00  0.00     0.009 A 
HETATM   25  C   UNL     1      44.255 -20.537   4.658  1.00  0.00     0.001 A 
HETATM   26  C   UNL     1      43.986 -21.222   3.479  1.00  0.00     0.000 A 
HETATM   27  C   UNL     1      43.526 -20.525   2.369  1.00  0.00     0.001 A 
HETATM   28  C   UNL     1      43.343 -19.142   2.436  1.00  0.00     0.009 A 
ENDBRANCH  16  23
ENDBRANCH  12  16
ENDBRANCH   3   9
BRANCH   1  29
HETATM   29  C   UNL     1      39.765 -11.161   3.725  1.00  0.00     0.240 C 
HETATM   30  N   UNL     1      40.687 -11.994   4.326  1.00  0.00    -0.326 N 
HETATM   31  H   UNL     1      40.486 -12.988   4.397  1.00  0.00     0.169 HD
HETATM   32  O   UNL     1      39.744  -9.930   3.832  1.00  0.00    -0.271 OA
BRANCH  30  33
HETATM   33  C   UNL     1      41.812 -11.602   5.084  1.00  0.00     0.034 A 
HETATM   34  C   UNL     1      41.741 -11.065   6.370  1.00  0.00     0.032 A 
HETATM   35  C   UNL     1      42.909 -10.693   7.053  1.00  0.00     0.039 A 
HETATM   36  C   UNL     1      44.158 -10.864   6.457  1.00  0.00     0.068 A 
HETATM   37  C   UNL     1      44.228 -11.392   5.169  1.00  0.00     0.039 A 
HETATM   38  C   UNL     1      43.066 -11.748   4.482  1.00  0.00     0.032 A 
BRANCH  36  39
HETATM   39  O   UNL     1      45.368 -10.566   7.016  1.00  0.00    -0.352 OA
BRANCH  39  40
HETATM   40  C   UNL     1      45.407 -10.364   8.426  1.00  0.00     0.171 C 
HETATM   41  C   UNL     1      45.763  -8.909   8.679  1.00  0.00     0.034 C 
ENDBRANCH  39  40
ENDBRANCH  36  39
ENDBRANCH  30  33
ENDBRANCH   1  29
TORSDOF 8
ENDMDL
MODEL 2
REMARK VINA RESULT:      -8.9      3.790      5.831
REMARK  8 active torsions:
REMARK  status: ('A' for Active; 'I' for Inactive)
REMARK    1  A    between atoms: C_2  and  O_3 
REMARK    2  A    between atoms: O_3  and  C_4 
REMARK    3  A    between atoms: C_7  and  N_8 
REMARK       I    between atoms: N_8  and  C_9 
REMARK    4  A    between atoms: C_9  and  C_10 
REMARK    5  A    between atoms: C_12  and  N_13 
REMARK    6  A    between atoms: N_16  and  C_18 
REMARK    7  A    between atoms: C_18  and  C_19 
REMARK    8  A    between atoms: C_18  and  C_25 
ROOT
HETATM    1  C   UNL     1      39.232  -9.605   7.245  1.00  0.00     0.164 C 
HETATM    2  N   UNL     1      39.733 -10.972   7.018  1.00  0.00    -0.249 NA
HETATM    3  C   UNL     1      40.901 -11.114   6.326  1.00  0.00     0.181 C 
HETATM    4  N   UNL     1      41.481 -10.151   5.681  1.00  0.00    -0.185 NA
HETATM    5  C   UNL     1      40.908  -8.910   5.699  1.00  0.00     0.247 C 
HETATM    6  O   UNL     1      41.559  -7.873   5.591  1.00  0.00    -0.271 OA
HETATM    7  C   UNL     1      39.436  -8.825   5.973  1.00  0.00     0.134 C 
HETATM    8  H   UNL     1      39.689 -11.483   7.896  1.00  0.00     0.131 HD
ENDROOT
BRANCH   3   9
HETATM    9  N   UNL     1      41.458 -12.371   6.345  1.00  0.00    -0.353 N 
HETATM   10  C   UNL     1      42.893 -12.678   6.325  1.00  0.00     0.153 C 
HETATM   11  C   UNL     1      43.286 -13.235   4.939  1.00  0.00     0.256 C 
HETATM   12  N   UNL     1      42.423 -14.453   4.600  1.00  0.00    -0.056 N 
HETATM   13  H   UNL     1      42.544 -15.136   5.350  1.00  0.00     0.281 HD
HETATM   14  C   UNL     1      40.933 -14.085   4.661  1.00  0.00     0.256 C 
HETATM   15  C   UNL     1      40.602 -13.543   6.067  1.00  0.00     0.153 C 
BRANCH  12  16
HETATM   16  C   UNL     1      42.818 -15.191   3.314  1.00  0.00     0.254 C 
BRANCH  16  17
HETATM   17  C   UNL     1      43.310 -16.611   3.595  1.00  0.00    -0.023 A 
HETATM   18  C   UNL     1      43.491 -17.555   2.567  1.00  0.00     0.009 A 
HETATM   19  C   UNL     1      43.902 -18.857   2.855  1.00  0.00     0.001 A 
HETATM   20  C   UNL     1      44.145 -19.236   4.172  1.00  0.00     0.000 A 
HETATM   21  C   UNL     1      43.986 -18.313   5.203  1.00  0.00     0.001 A 
HETATM   22  C   UNL     1      43.575 -17.010   4.919  1.00  0.00     0.009 A 
ENDBRANCH  16  17
BRANCH  16  23
HETATM   23  C   UNL     1      41.802 -15.060   2.163  1.00  0.00    -0.023 A 
HETATM   24  C   UNL     1      40.760 -15.985   1.948  1.00  0.00     0.009 A 
HETATM   25  C   UNL     1      39.822 -15.798   0.927  1.00  0.00     0.001 A 
HETATM   26  C   UNL     1      39.890 -14.678   0.107  1.00  0.00     0.000 A 
HETATM   27  C   UNL     1      40.886 -13.733   0.316  1.00  0.00     0.001 A 
HETATM   28  C   UNL     1      41.820 -13.913   1.340  1.00  0.00     0.009 A 
ENDBRANCH  16  23
ENDBRANCH  12  16
ENDBRANCH   3   9
BRANCH   1  29
HETATM   29  C   UNL     1      39.896  -9.078   8.553  1.00  0.00     0.240 C 
HETATM   30  N   UNL     1      40.146  -9.992   9.556  1.00  0.00    -0.326 N 
HETATM   31  H   UNL     1      39.717 -10.913   9.507  1.00  0.00     0.169 HD
HETATM   32  O   UNL     1      40.104  -7.861   8.633  1.00  0.00    -0.271 OA
BRANCH  30  33
HETATM   33  C   UNL     1      40.761  -9.734  10.801  1.00  0.00     0.034 A 
HETATM   34  C   UNL     1      42.116  -9.444  10.960  1.00  0.00     0.032 A 
HETATM   35  C   UNL     1      42.650  -9.207  12.236  1.00  0.00     0.039 A 
HETATM   36  C   UNL     1      41.830  -9.249  13.362  1.00  0.00     0.068 A 
HETATM   37  C   UNL     1      40.477  -9.548  13.203  1.00  0.00     0.039 A 
HETATM   38  C   UNL     1      39.947  -9.800  11.936  1.00  0.00     0.032 A 
BRANCH  36  39
HETATM   39  O   UNL     1      42.213  -9.018  14.652  1.00  0.00    -0.352 OA
BRANCH  39  40
HETATM   40  C   UNL     1      41.422  -8.111  15.418  1.00  0.00     0.171 C 
HETATM   41  C   UNL     1      42.179  -6.799  15.513  1.00  0.00     0.034 C 
ENDBRANCH  39  40
ENDBRANCH  36  39
ENDBRANCH  30  33
ENDBRANCH   1  29
TORSDOF 8
ENDMDL
MODEL 3
REMARK VINA RESULT:      -8.8      2.444      6.302
REMARK  8 active torsions:
REMARK  status: ('A' for Active; 'I' for Inactive)
REMARK    1  A    between atoms: C_2  and  O_3 
REMARK    2  A    between atoms: O_3  and  C_4 
REMARK    3  A    between atoms: C_7  and  N_8 
REMARK       I    between atoms: N_8  and  C_9 
REMARK    4  A    between atoms: C_9  and  C_10 
REMARK    5  A    between atoms: C_12  and  N_13 
REMARK    6  A    between atoms: N_16  and  C_18 
REMARK    7  A    between atoms: C_18  and  C_19 
REMARK    8  A    between atoms: C_18  and  C_25 
ROOT
HETATM    1  C   UNL     1      41.337  -8.725   4.933  1.00  0.00     0.164 C 
HETATM    2  N   UNL     1      41.913 -10.032   5.294  1.00  0.00    -0.249 NA
HETATM    3  C   UNL     1      41.178 -10.849   6.103  1.00  0.00     0.181 C 
HETATM    4  N   UNL     1      40.115 -10.471   6.738  1.00  0.00    -0.185 NA
HETATM    5  C   UNL     1      39.682  -9.182   6.587  1.00  0.00     0.247 C 
HETATM    6  O   UNL     1      38.501  -8.859   6.691  1.00  0.00    -0.271 OA
HETATM    7  C   UNL     1      40.689  -8.153   6.167  1.00  0.00     0.134 C 
HETATM    8  H   UNL     1      42.272 -10.472   4.450  1.00  0.00     0.131 HD
ENDROOT
BRANCH   3   9
HETATM    9  N   UNL     1      41.632 -12.143   6.218  1.00  0.00    -0.353 N 
HETATM   10  C   UNL     1      43.038 -12.561   6.266  1.00  0.00     0.153 C 
HETATM   11  C   UNL     1      43.426 -13.233   4.931  1.00  0.00     0.256 C 
HETATM   12  N   UNL     1      42.479 -14.399   4.635  1.00  0.00    -0.056 N 
HETATM   13  H   UNL     1      42.521 -15.041   5.429  1.00  0.00     0.281 HD
HETATM   14  C   UNL     1      41.022 -13.912   4.621  1.00  0.00     0.256 C 
HETATM   15  C   UNL     1      40.694 -13.258   5.980  1.00  0.00     0.153 C 
BRANCH  12  16
HETATM   16  C   UNL     1      42.853 -15.244   3.410  1.00  0.00     0.254 C 
BRANCH  16  17
HETATM   17  C   UNL     1      43.323 -16.645   3.802  1.00  0.00    -0.023 A 
HETATM   18  C   UNL     1      43.684 -17.607   2.840  1.00  0.00     0.009 A 
HETATM   19  C   UNL     1      44.071 -18.893   3.223  1.00  0.00     0.001 A 
HETATM   20  C   UNL     1      44.108 -19.237   4.571  1.00  0.00     0.000 A 
HETATM   21  C   UNL     1      43.769 -18.295   5.539  1.00  0.00     0.001 A 
HETATM   22  C   UNL     1      43.382 -17.009   5.161  1.00  0.00     0.009 A 
ENDBRANCH  16  17
BRANCH  16  23
HETATM   23  C   UNL     1      41.831 -15.189   2.258  1.00  0.00    -0.023 A 
HETATM   24  C   UNL     1      40.769 -16.106   2.128  1.00  0.00     0.009 A 
HETATM   25  C   UNL     1      39.827 -15.986   1.099  1.00  0.00     0.001 A 
HETATM   26  C   UNL     1      39.911 -14.940   0.189  1.00  0.00     0.000 A 
HETATM   27  C   UNL     1      40.927 -14.001   0.313  1.00  0.00     0.001 A 
HETATM   28  C   UNL     1      41.865 -14.114   1.343  1.00  0.00     0.009 A 
ENDBRANCH  16  23
ENDBRANCH  12  16
ENDBRANCH   3   9
BRANCH   1  29
HETATM   29  C   UNL     1      40.457  -8.939   3.665  1.00  0.00     0.240 C 
HETATM   30  N   UNL     1      40.598 -10.131   2.983  1.00  0.00    -0.326 N 
HETATM   31  H   UNL     1      41.392 -10.731   3.192  1.00  0.00     0.169 HD
HETATM   32  O   UNL     1      39.729  -8.002   3.315  1.00  0.00    -0.271 OA
BRANCH  30  33
HETATM   33  C   UNL     1      39.884 -10.537   1.835  1.00  0.00     0.034 A 
HETATM   34  C   UNL     1      38.691 -11.260   1.869  1.00  0.00     0.032 A 
HETATM   35  C   UNL     1      38.048 -11.632   0.679  1.00  0.00     0.039 A 
HETATM   36  C   UNL     1      38.588 -11.275  -0.555  1.00  0.00     0.068 A 
HETATM   37  C   UNL     1      39.785 -10.560  -0.590  1.00  0.00     0.039 A 
HETATM   38  C   UNL     1      40.435 -10.203   0.593  1.00  0.00     0.032 A 
BRANCH  36  39
HETATM   39  O   UNL     1      38.057 -11.552  -1.783  1.00  0.00    -0.352 OA
BRANCH  39  40
HETATM   40  C   UNL     1      37.700 -12.906  -2.052  1.00  0.00     0.171 C 
HETATM   41  C   UNL     1      38.749 -13.488  -2.983  1.00  0.00     0.034 C 
ENDBRANCH  39  40
ENDBRANCH  36  39
ENDBRANCH  30  33
ENDBRANCH   1  29
TORSDOF 8
ENDMDL
MODEL 4
REMARK VINA RESULT:      -8.8      4.425      7.341
REMARK  8 active torsions:
REMARK  status: ('A' for Active; 'I' for Inactive)
REMARK    1  A    between atoms: C_2  and  O_3 
REMARK    2  A    between atoms: O_3  and  C_4 
REMARK    3  A    between atoms: C_7  and  N_8 
REMARK       I    between atoms: N_8  and  C_9 
REMARK    4  A    between atoms: C_9  and  C_10 
REMARK    5  A    between atoms: C_12  and  N_13 
REMARK    6  A    between atoms: N_16  and  C_18 
REMARK    7  A    between atoms: C_18  and  C_19 
REMARK    8  A    between atoms: C_18  and  C_25 
ROOT
HETATM    1  C   UNL     1      44.063  -8.125   8.663  1.00  0.00     0.164 C 
HETATM    2  N   UNL     1      43.326  -8.599   7.478  1.00  0.00    -0.249 NA
HETATM    3  C   UNL     1      43.278  -9.944   7.256  1.00  0.00     0.181 C 
HETATM    4  N   UNL     1      44.005 -10.808   7.891  1.00  0.00    -0.185 NA
HETATM    5  C   UNL     1      44.866 -10.361   8.855  1.00  0.00     0.247 C 
HETATM    6  O   UNL     1      45.197 -11.044   9.822  1.00  0.00    -0.271 OA
HETATM    7  C   UNL     1      45.327  -8.937   8.771  1.00  0.00     0.134 C 
HETATM    8  H   UNL     1      42.426  -8.125   7.446  1.00  0.00     0.131 HD
ENDROOT
BRANCH   3   9
HETATM    9  N   UNL     1      42.388 -10.360   6.293  1.00  0.00    -0.353 N 
HETATM   10  C   UNL     1      40.986 -10.731   6.518  1.00  0.00     0.153 C 
HETATM   11  C   UNL     1      40.829 -12.263   6.399  1.00  0.00     0.256 C 
HETATM   12  N   UNL     1      41.348 -12.739   5.039  1.00  0.00    -0.056 N 
HETATM   13  H   UNL     1      40.836 -12.230   4.317  1.00  0.00     0.281 HD
HETATM   14  C   UNL     1      42.808 -12.303   4.844  1.00  0.00     0.256 C 
HETATM   15  C   UNL     1      42.899 -10.768   4.968  1.00  0.00     0.153 C 
BRANCH  12  16
HETATM   16  C   UNL     1      41.108 -14.224   4.736  1.00  0.00     0.254 C 
BRANCH  16  17
HETATM   17  C   UNL     1      40.833 -14.469   3.253  1.00  0.00    -0.023 A 
HETATM   18  C   UNL     1      41.181 -13.529   2.264  1.00  0.00     0.009 A 
HETATM   19  C   UNL     1      40.882 -13.759   0.920  1.00  0.00     0.001 A 
HETATM   20  C   UNL     1      40.237 -14.932   0.541  1.00  0.00     0.000 A 
HETATM   21  C   UNL     1      39.898 -15.882   1.501  1.00  0.00     0.001 A 
HETATM   22  C   UNL     1      40.194 -15.656   2.846  1.00  0.00     0.009 A 
ENDBRANCH  16  17
BRANCH  16  23
HETATM   23  C   UNL     1      42.123 -15.182   5.387  1.00  0.00    -0.023 A 
HETATM   24  C   UNL     1      42.051 -15.577   6.738  1.00  0.00     0.009 A 
HETATM   25  C   UNL     1      42.959 -16.496   7.277  1.00  0.00     0.001 A 
HETATM   26  C   UNL     1      43.949 -17.055   6.478  1.00  0.00     0.000 A 
HETATM   27  C   UNL     1      44.024 -16.710   5.134  1.00  0.00     0.001 A 
HETATM   28  C   UNL     1      43.114 -15.799   4.592  1.00  0.00     0.009 A 
ENDBRANCH  16  23
ENDBRANCH  12  16
ENDBRANCH   3   9
BRANCH   1  29
HETATM   29  C   UNL     1      43.069  -8.136   9.864  1.00  0.00     0.240 C 
HETATM   30  N   UNL     1      43.575  -8.451  11.108  1.00  0.00    -0.326 N 
HETATM   31  H   UNL     1      44.503  -8.861  11.178  1.00  0.00     0.169 HD
HETATM   32  O   UNL     1      41.877  -7.917   9.615  1.00  0.00    -0.271 OA
BRANCH  30  33
HETATM   33  C   UNL     1      42.859  -8.492  12.325  1.00  0.00     0.034 A 
HETATM   34  C   UNL     1      41.831  -9.395  12.599  1.00  0.00     0.032 A 
HETATM   35  C   UNL     1      41.165  -9.363  13.834  1.00  0.00     0.039 A 
HETATM   36  C   UNL     1      41.528  -8.434  14.807  1.00  0.00     0.068 A 
HETATM   37  C   UNL     1      42.550  -7.527  14.530  1.00  0.00     0.039 A 
HETATM   38  C   UNL     1      43.204  -7.546  13.296  1.00  0.00     0.032 A 
BRANCH  36  39
HETATM   39  O   UNL     1      40.981  -8.309  16.052  1.00  0.00    -0.352 OA
BRANCH  39  40
HETATM   40  C   UNL     1      41.109  -7.046  16.701  1.00  0.00     0.171 C 
HETATM   41  C   UNL     1      39.757  -6.357  16.651  1.00  0.00     0.034 C 
ENDBRANCH  39  40
ENDBRANCH  36  39
ENDBRANCH  30  33
ENDBRANCH   1  29
TORSDOF 8
ENDMDL
MODEL 5
REMARK VINA RESULT:      -8.7      2.874      5.993
REMARK  8 active torsions:
REMARK  status: ('A' for Active; 'I' for Inactive)
REMARK    1  A    between atoms: C_2  and  O_3 
REMARK    2  A    between atoms: O_3  and  C_4 
REMARK    3  A    between atoms: C_7  and  N_8 
REMARK       I    between atoms: N_8  and  C_9 
REMARK    4  A    between atoms: C_9  and  C_10 
REMARK    5  A    between atoms: C_12  and  N_13 
REMARK    6  A    between atoms: N_16  and  C_18 
REMARK    7  A    between atoms: C_18  and  C_19 
REMARK    8  A    between atoms: C_18  and  C_25 
ROOT
HETATM    1  C   UNL     1      38.406 -10.299   5.554  1.00  0.00     0.164 C 
HETATM    2  N   UNL     1      38.692 -10.312   4.109  1.00  0.00    -0.249 NA
HETATM    3  C   UNL     1      39.770  -9.600   3.668  1.00  0.00     0.181 C 
HETATM    4  N   UNL     1      40.425  -8.754   4.398  1.00  0.00    -0.185 NA
HETATM    5  C   UNL     1      40.034  -8.564   5.695  1.00  0.00     0.247 C 
HETATM    6  O   UNL     1      40.813  -8.226   6.583  1.00  0.00    -0.271 OA
HETATM    7  C   UNL     1      38.615  -8.892   6.050  1.00  0.00     0.134 C 
HETATM    8  H   UNL     1      38.647 -11.273   3.778  1.00  0.00     0.131 HD
ENDROOT
BRANCH   3   9
HETATM    9  N   UNL     1      40.147  -9.831   2.366  1.00  0.00    -0.353 N 
HETATM   10  C   UNL     1      39.241 -10.096   1.241  1.00  0.00     0.153 C 
HETATM   11  C   UNL     1      39.327 -11.586   0.845  1.00  0.00     0.256 C 
HETATM   12  N   UNL     1      40.778 -11.962   0.529  1.00  0.00    -0.056 N 
HETATM   13  H   UNL     1      41.105 -11.337  -0.209  1.00  0.00     0.281 HD
HETATM   14  C   UNL     1      41.684 -11.641   1.727  1.00  0.00     0.256 C 
HETATM   15  C   UNL     1      41.560 -10.142   2.069  1.00  0.00     0.153 C 
BRANCH  12  16
HETATM   16  C   UNL     1      40.975 -13.380  -0.025  1.00  0.00     0.254 C 
BRANCH  16  17
HETATM   17  C   UNL     1      41.094 -14.419   1.090  1.00  0.00    -0.023 A 
HETATM   18  C   UNL     1      42.299 -15.101   1.348  1.00  0.00     0.009 A 
HETATM   19  C   UNL     1      42.370 -16.075   2.345  1.00  0.00     0.001 A 
HETATM   20  C   UNL     1      41.244 -16.381   3.104  1.00  0.00     0.000 A 
HETATM   21  C   UNL     1      40.047 -15.707   2.875  1.00  0.00     0.001 A 
HETATM   22  C   UNL     1      39.970 -14.732   1.878  1.00  0.00     0.009 A 
ENDBRANCH  16  17
BRANCH  16  23
HETATM   23  C   UNL     1      40.024 -13.754  -1.178  1.00  0.00    -0.023 A 
HETATM   24  C   UNL     1      39.727 -12.881  -2.243  1.00  0.00     0.009 A 
HETATM   25  C   UNL     1      38.904 -13.280  -3.303  1.00  0.00     0.001 A 
HETATM   26  C   UNL     1      38.372 -14.564  -3.333  1.00  0.00     0.000 A 
HETATM   27  C   UNL     1      38.674 -15.457  -2.313  1.00  0.00     0.001 A 
HETATM   28  C   UNL     1      39.502 -15.063  -1.258  1.00  0.00     0.009 A 
ENDBRANCH  16  23
ENDBRANCH  12  16
ENDBRANCH   3   9
BRANCH   1  29
HETATM   29  C   UNL     1      39.238 -11.446   6.203  1.00  0.00     0.240 C 
HETATM   30  N   UNL     1      39.863 -12.339   5.357  1.00  0.00    -0.326 N 
HETATM   31  H   UNL     1      39.605 -12.355   4.374  1.00  0.00     0.169 HD
HETATM   32  O   UNL     1      39.238 -11.517   7.438  1.00  0.00    -0.271 OA
BRANCH  30  33
HETATM   33  C   UNL     1      40.682 -13.427   5.732  1.00  0.00     0.034 A 
HETATM   34  C   UNL     1      40.210 -14.585   6.351  1.00  0.00     0.032 A 
HETATM   35  C   UNL     1      41.094 -15.618   6.699  1.00  0.00     0.039 A 
HETATM   36  C   UNL     1      42.455 -15.504   6.422  1.00  0.00     0.068 A 
HETATM   37  C   UNL     1      42.927 -14.343   5.811  1.00  0.00     0.039 A 
HETATM   38  C   UNL     1      42.052 -13.307   5.479  1.00  0.00     0.032 A 
BRANCH  36  39
HETATM   39  O   UNL     1      43.416 -16.438   6.685  1.00  0.00    -0.352 OA
BRANCH  39  40
HETATM   40  C   UNL     1      44.242 -16.852   5.599  1.00  0.00     0.171 C 
HETATM   41  C   UNL     1      43.781 -18.231   5.163  1.00  0.00     0.034 C 
ENDBRANCH  39  40
ENDBRANCH  36  39
ENDBRANCH  30  33
ENDBRANCH   1  29
TORSDOF 8
ENDMDL
MODEL 6
REMARK VINA RESULT:      -8.6      3.947      6.711
REMARK  8 active torsions:
REMARK  status: ('A' for Active; 'I' for Inactive)
REMARK    1  A    between atoms: C_2  and  O_3 
REMARK    2  A    between atoms: O_3  and  C_4 
REMARK    3  A    between atoms: C_7  and  N_8 
REMARK       I    between atoms: N_8  and  C_9 
REMARK    4  A    between atoms: C_9  and  C_10 
REMARK    5  A    between atoms: C_12  and  N_13 
REMARK    6  A    between atoms: N_16  and  C_18 
REMARK    7  A    between atoms: C_18  and  C_19 
REMARK    8  A    between atoms: C_18  and  C_25 
ROOT
HETATM    1  C   UNL     1      43.288  -9.493   7.566  1.00  0.00     0.164 C 
HETATM    2  N   UNL     1      42.787 -10.753   6.990  1.00  0.00    -0.249 NA
HETATM    3  C   UNL     1      43.424 -11.909   7.338  1.00  0.00     0.181 C 
HETATM    4  N   UNL     1      44.556 -11.948   7.966  1.00  0.00    -0.185 NA
HETATM    5  C   UNL     1      45.153 -10.770   8.322  1.00  0.00     0.247 C 
HETATM    6  O   UNL     1      45.890 -10.664   9.299  1.00  0.00    -0.271 OA
HETATM    7  C   UNL     1      44.793  -9.543   7.539  1.00  0.00     0.134 C 
HETATM    8  H   UNL     1      41.775 -10.774   7.087  1.00  0.00     0.131 HD
ENDROOT
BRANCH   3   9
HETATM    9  N   UNL     1      42.787 -13.074   6.981  1.00  0.00    -0.353 N 
HETATM   10  C   UNL     1      43.272 -14.435   7.238  1.00  0.00     0.153 C 
HETATM   11  C   UNL     1      43.767 -15.067   5.919  1.00  0.00     0.256 C 
HETATM   12  N   UNL     1      42.651 -15.032   4.870  1.00  0.00    -0.056 N 
HETATM   13  H   UNL     1      41.843 -15.517   5.263  1.00  0.00     0.281 HD
HETATM   14  C   UNL     1      42.163 -13.591   4.659  1.00  0.00     0.256 C 
HETATM   15  C   UNL     1      41.678 -13.019   6.007  1.00  0.00     0.153 C 
BRANCH  12  16
HETATM   16  C   UNL     1      42.968 -15.769   3.561  1.00  0.00     0.254 C 
BRANCH  16  17
HETATM   17  C   UNL     1      43.346 -17.230   3.803  1.00  0.00    -0.023 A 
HETATM   18  C   UNL     1      43.525 -17.750   5.099  1.00  0.00     0.009 A 
HETATM   19  C   UNL     1      43.910 -19.078   5.291  1.00  0.00     0.001 A 
HETATM   20  C   UNL     1      44.117 -19.909   4.194  1.00  0.00     0.000 A 
HETATM   21  C   UNL     1      43.931 -19.419   2.904  1.00  0.00     0.001 A 
HETATM   22  C   UNL     1      43.547 -18.092   2.707  1.00  0.00     0.009 A 
ENDBRANCH  16  17
BRANCH  16  23
HETATM   23  C   UNL     1      41.951 -15.528   2.429  1.00  0.00    -0.023 A 
HETATM   24  C   UNL     1      40.699 -16.172   2.371  1.00  0.00     0.009 A 
HETATM   25  C   UNL     1      39.778 -15.882   1.358  1.00  0.00     0.001 A 
HETATM   26  C   UNL     1      40.077 -14.931   0.389  1.00  0.00     0.000 A 
HETATM   27  C   UNL     1      41.290 -14.256   0.441  1.00  0.00     0.001 A 
HETATM   28  C   UNL     1      42.208 -14.538   1.456  1.00  0.00     0.009 A 
ENDBRANCH  16  23
ENDBRANCH  12  16
ENDBRANCH   3   9
BRANCH   1  29
HETATM   29  C   UNL     1      42.576  -9.294   8.938  1.00  0.00     0.240 C 
HETATM   30  N   UNL     1      43.362  -8.960  10.022  1.00  0.00    -0.326 N 
HETATM   31  H   UNL     1      44.372  -9.054   9.952  1.00  0.00     0.169 HD
HETATM   32  O   UNL     1      41.359  -9.506   8.982  1.00  0.00    -0.271 OA
BRANCH  30  33
HETATM   33  C   UNL     1      42.921  -8.709  11.340  1.00  0.00     0.034 A 
HETATM   34  C   UNL     1      42.631  -7.440  11.841  1.00  0.00     0.032 A 
HETATM   35  C   UNL     1      42.205  -7.277  13.168  1.00  0.00     0.039 A 
HETATM   36  C   UNL     1      42.057  -8.384  14.002  1.00  0.00     0.068 A 
HETATM   37  C   UNL     1      42.355  -9.652  13.504  1.00  0.00     0.039 A 
HETATM   38  C   UNL     1      42.795  -9.815  12.189  1.00  0.00     0.032 A 
BRANCH  36  39
HETATM   39  O   UNL     1      41.631  -8.369  15.299  1.00  0.00    -0.352 OA
BRANCH  39  40
HETATM   40  C   UNL     1      41.213  -7.117  15.838  1.00  0.00     0.171 C 
HETATM   41  C   UNL     1      42.000  -6.871  17.113  1.00  0.00     0.034 C 
ENDBRANCH  39  40
ENDBRANCH  36  39
ENDBRANCH  30  33
ENDBRANCH   1  29
TORSDOF 8
ENDMDL
MODEL 7
REMARK VINA RESULT:      -8.5      3.016      8.414
REMARK  8 active torsions:
REMARK  status: ('A' for Active; 'I' for Inactive)
REMARK    1  A    between atoms: C_2  and  O_3 
REMARK    2  A    between atoms: O_3  and  C_4 
REMARK    3  A    between atoms: C_7  and  N_8 
REMARK       I    between atoms: N_8  and  C_9 
REMARK    4  A    between atoms: C_9  and  C_10 
REMARK    5  A    between atoms: C_12  and  N_13 
REMARK    6  A    between atoms: N_16  and  C_18 
REMARK    7  A    between atoms: C_18  and  C_19 
REMARK    8  A    between atoms: C_18  and  C_25 
ROOT
HETATM    1  C   UNL     1      41.379 -10.049   2.153  1.00  0.00     0.164 C 
HETATM    2  N   UNL     1      41.264  -9.219   3.364  1.00  0.00    -0.249 NA
HETATM    3  C   UNL     1      40.199  -9.440   4.188  1.00  0.00     0.181 C 
HETATM    4  N   UNL     1      39.182 -10.179   3.873  1.00  0.00    -0.185 NA
HETATM    5  C   UNL     1      39.169 -10.791   2.650  1.00  0.00     0.247 C 
HETATM    6  O   UNL     1      38.581 -11.850   2.441  1.00  0.00    -0.271 OA
HETATM    7  C   UNL     1      40.001 -10.187   1.559  1.00  0.00     0.134 C 
HETATM    8  H   UNL     1      42.169  -9.195   3.828  1.00  0.00     0.131 HD
ENDROOT
BRANCH   3   9
HETATM    9  N   UNL     1      40.255  -8.825   5.417  1.00  0.00    -0.353 N 
HETATM   10  C   UNL     1      41.162  -7.734   5.794  1.00  0.00     0.153 C 
HETATM   11  C   UNL     1      42.258  -8.273   6.739  1.00  0.00     0.256 C 
HETATM   12  N   UNL     1      41.616  -8.946   7.956  1.00  0.00    -0.056 N 
HETATM   13  H   UNL     1      41.008  -8.258   8.404  1.00  0.00     0.281 HD
HETATM   14  C   UNL     1      40.659 -10.060   7.506  1.00  0.00     0.256 C 
HETATM   15  C   UNL     1      39.587  -9.460   6.572  1.00  0.00     0.153 C 
BRANCH  12  16
HETATM   16  C   UNL     1      42.600  -9.389   9.047  1.00  0.00     0.254 C 
BRANCH  16  17
HETATM   17  C   UNL     1      43.959  -9.781   8.467  1.00  0.00    -0.023 A 
HETATM   18  C   UNL     1      44.175 -11.028   7.849  1.00  0.00     0.009 A 
HETATM   19  C   UNL     1      45.436 -11.378   7.364  1.00  0.00     0.001 A 
HETATM   20  C   UNL     1      46.500 -10.489   7.484  1.00  0.00     0.000 A 
HETATM   21  C   UNL     1      46.305  -9.245   8.079  1.00  0.00     0.001 A 
HETATM   22  C   UNL     1      45.045  -8.891   8.565  1.00  0.00     0.009 A 
ENDBRANCH  16  17
BRANCH  16  23
HETATM   23  C   UNL     1      42.649  -8.465  10.278  1.00  0.00    -0.023 A 
HETATM   24  C   UNL     1      42.208  -7.126  10.253  1.00  0.00     0.009 A 
HETATM   25  C   UNL     1      42.214  -6.337  11.409  1.00  0.00     0.001 A 
HETATM   26  C   UNL     1      42.644  -6.868  12.619  1.00  0.00     0.000 A 
HETATM   27  C   UNL     1      43.053  -8.194  12.681  1.00  0.00     0.001 A 
HETATM   28  C   UNL     1      43.041  -8.986  11.530  1.00  0.00     0.009 A 
ENDBRANCH  16  23
ENDBRANCH  12  16
ENDBRANCH   3   9
BRANCH   1  29
HETATM   29  C   UNL     1      42.148 -11.345   2.549  1.00  0.00     0.240 C 
HETATM   30  N   UNL     1      41.503 -12.551   2.369  1.00  0.00    -0.326 N 
HETATM   31  H   UNL     1      40.503 -12.557   2.187  1.00  0.00     0.169 HD
HETATM   32  O   UNL     1      43.268 -11.207   3.057  1.00  0.00    -0.271 OA
BRANCH  30  33
HETATM   33  C   UNL     1      42.024 -13.837   2.635  1.00  0.00     0.034 A 
HETATM   34  C   UNL     1      41.950 -14.470   3.876  1.00  0.00     0.032 A 
HETATM   35  C   UNL     1      42.502 -15.748   4.059  1.00  0.00     0.039 A 
HETATM   36  C   UNL     1      43.124 -16.405   2.999  1.00  0.00     0.068 A 
HETATM   37  C   UNL     1      43.205 -15.768   1.761  1.00  0.00     0.039 A 
HETATM   38  C   UNL     1      42.672 -14.490   1.581  1.00  0.00     0.032 A 
BRANCH  36  39
HETATM   39  O   UNL     1      43.679 -17.652   3.033  1.00  0.00    -0.352 OA
BRANCH  39  40
HETATM   40  C   UNL     1      43.041 -18.675   2.272  1.00  0.00     0.171 C 
HETATM   41  C   UNL     1      43.756 -19.983   2.558  1.00  0.00     0.034 C 
ENDBRANCH  39  40
ENDBRANCH  36  39
ENDBRANCH  30  33
ENDBRANCH   1  29
TORSDOF 8
ENDMDL
MODEL 8
REMARK VINA RESULT:      -8.3      2.964      6.698
REMARK  8 active torsions:
REMARK  status: ('A' for Active; 'I' for Inactive)
REMARK    1  A    between atoms: C_2  and  O_3 
REMARK    2  A    between atoms: O_3  and  C_4 
REMARK    3  A    between atoms: C_7  and  N_8 
REMARK       I    between atoms: N_8  and  C_9 
REMARK    4  A    between atoms: C_9  and  C_10 
REMARK    5  A    between atoms: C_12  and  N_13 
REMARK    6  A    between atoms: N_16  and  C_18 
REMARK    7  A    between atoms: C_18  and  C_19 
REMARK    8  A    between atoms: C_18  and  C_25 
ROOT
HETATM    1  C   UNL     1      43.373 -15.986   6.181  1.00  0.00     0.164 C 
HETATM    2  N   UNL     1      43.469 -15.689   4.740  1.00  0.00    -0.249 NA
HETATM    3  C   UNL     1      42.312 -15.411   4.071  1.00  0.00     0.181 C 
HETATM    4  N   UNL     1      41.129 -15.597   4.564  1.00  0.00    -0.185 NA
HETATM    5  C   UNL     1      41.017 -16.085   5.837  1.00  0.00     0.247 C 
HETATM    6  O   UNL     1      40.060 -15.832   6.566  1.00  0.00    -0.271 OA
HETATM    7  C   UNL     1      42.170 -16.869   6.387  1.00  0.00     0.134 C 
HETATM    8  H   UNL     1      44.220 -15.018   4.597  1.00  0.00     0.131 HD
ENDROOT
BRANCH   3   9
HETATM    9  N   UNL     1      42.464 -14.905   2.801  1.00  0.00    -0.353 N 
HETATM   10  C   UNL     1      43.030 -13.595   2.458  1.00  0.00     0.153 C 
HETATM   11  C   UNL     1      41.901 -12.645   2.000  1.00  0.00     0.256 C 
HETATM   12  N   UNL     1      41.129 -13.271   0.835  1.00  0.00    -0.056 N 
HETATM   13  H   UNL     1      41.801 -13.476   0.094  1.00  0.00     0.281 HD
HETATM   14  C   UNL     1      40.582 -14.649   1.239  1.00  0.00     0.256 C 
HETATM   15  C   UNL     1      41.753 -15.551   1.679  1.00  0.00     0.153 C 
BRANCH  12  16
HETATM   16  C   UNL     1      40.077 -12.360   0.189  1.00  0.00     0.254 C 
BRANCH  16  17
HETATM   17  C   UNL     1      40.591 -10.932   0.005  1.00  0.00    -0.023 A 
HETATM   18  C   UNL     1      40.133  -9.865   0.803  1.00  0.00     0.009 A 
HETATM   19  C   UNL     1      40.589  -8.564   0.587  1.00  0.00     0.001 A 
HETATM   20  C   UNL     1      41.511  -8.306  -0.423  1.00  0.00     0.000 A 
HETATM   21  C   UNL     1      41.988  -9.349  -1.213  1.00  0.00     0.001 A 
HETATM   22  C   UNL     1      41.535 -10.652  -1.001  1.00  0.00     0.009 A 
ENDBRANCH  16  17
BRANCH  16  23
HETATM   23  C   UNL     1      39.367 -12.969  -1.035  1.00  0.00    -0.023 A 
HETATM   24  C   UNL     1      39.929 -14.000  -1.815  1.00  0.00     0.009 A 
HETATM   25  C   UNL     1      39.226 -14.568  -2.884  1.00  0.00     0.001 A 
HETATM   26  C   UNL     1      37.942 -14.133  -3.189  1.00  0.00     0.000 A 
HETATM   27  C   UNL     1      37.350 -13.142  -2.417  1.00  0.00     0.001 A 
HETATM   28  C   UNL     1      38.046 -12.579  -1.344  1.00  0.00     0.009 A 
ENDBRANCH  16  23
ENDBRANCH  12  16
ENDBRANCH   3   9
BRANCH   1  29
HETATM   29  C   UNL     1      43.436 -14.627   6.941  1.00  0.00     0.240 C 
HETATM   30  N   UNL     1      43.772 -13.503   6.214  1.00  0.00    -0.326 N 
HETATM   31  H   UNL     1      44.162 -13.613   5.281  1.00  0.00     0.169 HD
HETATM   32  O   UNL     1      43.237 -14.651   8.161  1.00  0.00    -0.271 OA
BRANCH  30  33
HETATM   33  C   UNL     1      43.859 -12.179   6.697  1.00  0.00     0.034 A 
HETATM   34  C   UNL     1      42.791 -11.281   6.714  1.00  0.00     0.032 A 
HETATM   35  C   UNL     1      42.964  -9.977   7.205  1.00  0.00     0.039 A 
HETATM   36  C   UNL     1      44.204  -9.566   7.690  1.00  0.00     0.068 A 
HETATM   37  C   UNL     1      45.273 -10.461   7.665  1.00  0.00     0.039 A 
HETATM   38  C   UNL     1      45.107 -11.754   7.162  1.00  0.00     0.032 A 
BRANCH  36  39
HETATM   39  O   UNL     1      44.503  -8.340   8.214  1.00  0.00    -0.352 OA
BRANCH  39  40
HETATM   40  C   UNL     1      43.586  -7.789   9.156  1.00  0.00     0.171 C 
HETATM   41  C   UNL     1      43.748  -8.547  10.462  1.00  0.00     0.034 C 
ENDBRANCH  39  40
ENDBRANCH  36  39
ENDBRANCH  30  33
ENDBRANCH   1  29
TORSDOF 8
ENDMDL
MODEL 9
REMARK VINA RESULT:      -8.0      3.642      8.592
REMARK  8 active torsions:
REMARK  status: ('A' for Active; 'I' for Inactive)
REMARK    1  A    between atoms: C_2  and  O_3 
REMARK    2  A    between atoms: O_3  and  C_4 
REMARK    3  A    between atoms: C_7  and  N_8 
REMARK       I    between atoms: N_8  and  C_9 
REMARK    4  A    between atoms: C_9  and  C_10 
REMARK    5  A    between atoms: C_12  and  N_13 
REMARK    6  A    between atoms: N_16  and  C_18 
REMARK    7  A    between atoms: C_18  and  C_19 
REMARK    8  A    between atoms: C_18  and  C_25 
ROOT
HETATM    1  C   UNL     1      39.545 -12.958   4.013  1.00  0.00     0.164 C 
HETATM    2  N   UNL     1      39.476 -11.838   3.058  1.00  0.00    -0.249 NA
HETATM    3  C   UNL     1      40.311 -10.778   3.260  1.00  0.00     0.181 C 
HETATM    4  N   UNL     1      41.002 -10.598   4.341  1.00  0.00    -0.185 NA
HETATM    5  C   UNL     1      40.911 -11.525   5.342  1.00  0.00     0.247 C 
HETATM    6  O   UNL     1      41.827 -11.748   6.130  1.00  0.00    -0.271 OA
HETATM    7  C   UNL     1      39.675 -12.373   5.396  1.00  0.00     0.134 C 
HETATM    8  H   UNL     1      39.483 -12.217   2.114  1.00  0.00     0.131 HD
ENDROOT
BRANCH   3   9
HETATM    9  N   UNL     1      40.393  -9.875   2.225  1.00  0.00    -0.353 N 
HETATM   10  C   UNL     1      39.311  -9.001   1.757  1.00  0.00     0.153 C 
HETATM   11  C   UNL     1      38.776  -9.516   0.404  1.00  0.00     0.256 C 
HETATM   12  N   UNL     1      39.921  -9.621  -0.608  1.00  0.00    -0.056 N 
HETATM   13  H   UNL     1      40.356  -8.700  -0.678  1.00  0.00     0.281 HD
HETATM   14  C   UNL     1      41.036 -10.525  -0.058  1.00  0.00     0.256 C 
HETATM   15  C   UNL     1      41.531  -9.956   1.287  1.00  0.00     0.153 C 
BRANCH  12  16
HETATM   16  C   UNL     1      39.494  -9.978  -2.038  1.00  0.00     0.254 C 
BRANCH  16  17
HETATM   17  C   UNL     1      40.186  -9.099  -3.079  1.00  0.00    -0.023 A 
HETATM   18  C   UNL     1      39.698  -8.975  -4.394  1.00  0.00     0.009 A 
HETATM   19  C   UNL     1      40.373  -8.198  -5.337  1.00  0.00     0.001 A 
HETATM   20  C   UNL     1      41.541  -7.529  -4.983  1.00  0.00     0.000 A 
HETATM   21  C   UNL     1      42.032  -7.627  -3.683  1.00  0.00     0.001 A 
HETATM   22  C   UNL     1      41.361  -8.402  -2.737  1.00  0.00     0.009 A 
ENDBRANCH  16  17
BRANCH  16  23
HETATM   23  C   UNL     1      39.488 -11.488  -2.346  1.00  0.00    -0.023 A 
HETATM   24  C   UNL     1      40.618 -12.178  -2.827  1.00  0.00     0.009 A 
HETATM   25  C   UNL     1      40.589 -13.561  -3.039  1.00  0.00     0.001 A 
HETATM   26  C   UNL     1      39.439 -14.290  -2.760  1.00  0.00     0.000 A 
HETATM   27  C   UNL     1      38.320 -13.641  -2.253  1.00  0.00     0.001 A 
HETATM   28  C   UNL     1      38.349 -12.262  -2.033  1.00  0.00     0.009 A 
ENDBRANCH  16  23
ENDBRANCH  12  16
ENDBRANCH   3   9
BRANCH   1  29
HETATM   29  C   UNL     1      40.655 -13.930   3.511  1.00  0.00     0.240 C 
HETATM   30  N   UNL     1      40.892 -15.067   4.255  1.00  0.00    -0.326 N 
HETATM   31  H   UNL     1      40.501 -15.139   5.191  1.00  0.00     0.169 HD
HETATM   32  O   UNL     1      41.294 -13.590   2.508  1.00  0.00    -0.271 OA
BRANCH  30  33
HETATM   33  C   UNL     1      41.826 -16.086   3.966  1.00  0.00     0.034 A 
HETATM   34  C   UNL     1      42.876 -16.449   4.812  1.00  0.00     0.032 A 
HETATM   35  C   UNL     1      43.767 -17.469   4.445  1.00  0.00     0.039 A 
HETATM   36  C   UNL     1      43.609 -18.141   3.234  1.00  0.00     0.068 A 
HETATM   37  C   UNL     1      42.565 -17.773   2.386  1.00  0.00     0.039 A 
HETATM   38  C   UNL     1      41.687 -16.747   2.741  1.00  0.00     0.032 A 
BRANCH  36  39
HETATM   39  O   UNL     1      44.386 -19.163   2.768  1.00  0.00    -0.352 OA
BRANCH  39  40
HETATM   40  C   UNL     1      43.811 -20.467   2.749  1.00  0.00     0.171 C 
HETATM   41  C   UNL     1      43.849 -21.014   4.165  1.00  0.00     0.034 C 
ENDBRANCH  39  40
ENDBRANCH  36  39
ENDBRANCH  30  33
ENDBRANCH   1  29
TORSDOF 8
ENDMDL
MODEL 10
REMARK VINA RESULT:      -8.0      3.421      8.708
REMARK  8 active torsions:
REMARK  status: ('A' for Active; 'I' for Inactive)
REMARK    1  A    between atoms: C_2  and  O_3 
REMARK    2  A    between atoms: O_3  and  C_4 
REMARK    3  A    between atoms: C_7  and  N_8 
REMARK       I    between atoms: N_8  and  C_9 
REMARK    4  A    between atoms: C_9  and  C_10 
REMARK    5  A    between atoms: C_12  and  N_13 
REMARK    6  A    between atoms: N_16  and  C_18 
REMARK    7  A    between atoms: C_18  and  C_19 
REMARK    8  A    between atoms: C_18  and  C_25 
ROOT
HETATM    1  C   UNL     1      41.579 -11.722   5.762  1.00  0.00     0.164 C 
HETATM    2  N   UNL     1      40.663 -11.131   4.771  1.00  0.00    -0.249 NA
HETATM    3  C   UNL     1      41.187 -10.747   3.570  1.00  0.00     0.181 C 
HETATM    4  N   UNL     1      42.457 -10.674   3.326  1.00  0.00    -0.185 NA
HETATM    5  C   UNL     1      43.338 -11.013   4.316  1.00  0.00     0.247 C 
HETATM    6  O   UNL     1      44.457 -11.465   4.087  1.00  0.00    -0.271 OA
HETATM    7  C   UNL     1      42.859 -10.926   5.735  1.00  0.00     0.134 C 
HETATM    8  H   UNL     1      39.832 -11.714   4.710  1.00  0.00     0.131 HD
ENDROOT
BRANCH   3   9
HETATM    9  N   UNL     1      40.273 -10.432   2.592  1.00  0.00    -0.353 N 
HETATM   10  C   UNL     1      39.246 -11.330   2.051  1.00  0.00     0.153 C 
HETATM   11  C   UNL     1      39.643 -11.772   0.625  1.00  0.00     0.256 C 
HETATM   12  N   UNL     1      39.871 -10.544  -0.261  1.00  0.00    -0.056 N 
HETATM   13  H   UNL     1      39.016  -9.986  -0.242  1.00  0.00     0.281 HD
HETATM   14  C   UNL     1      40.934  -9.627   0.364  1.00  0.00     0.256 C 
HETATM   15  C   UNL     1      40.479  -9.215   1.779  1.00  0.00     0.153 C 
BRANCH  12  16
HETATM   16  C   UNL     1      40.123 -10.851  -1.743  1.00  0.00     0.254 C 
BRANCH  16  17
HETATM   17  C   UNL     1      39.384 -12.108  -2.202  1.00  0.00    -0.023 A 
HETATM   18  C   UNL     1      37.987 -12.128  -2.381  1.00  0.00     0.009 A 
HETATM   19  C   UNL     1      37.332 -13.300  -2.761  1.00  0.00     0.001 A 
HETATM   20  C   UNL     1      38.058 -14.468  -2.973  1.00  0.00     0.000 A 
HETATM   21  C   UNL     1      39.442 -14.465  -2.816  1.00  0.00     0.001 A 
HETATM   22  C   UNL     1      40.102 -13.296  -2.436  1.00  0.00     0.009 A 
ENDBRANCH  16  17
BRANCH  16  23
HETATM   23  C   UNL     1      39.999  -9.633  -2.678  1.00  0.00    -0.023 A 
HETATM   24  C   UNL     1      39.058  -8.603  -2.478  1.00  0.00     0.009 A 
HETATM   25  C   UNL     1      39.016  -7.483  -3.318  1.00  0.00     0.001 A 
HETATM   26  C   UNL     1      39.922  -7.356  -4.364  1.00  0.00     0.000 A 
HETATM   27  C   UNL     1      40.882  -8.340  -4.565  1.00  0.00     0.001 A 
HETATM   28  C   UNL     1      40.931  -9.455  -3.724  1.00  0.00     0.009 A 
ENDBRANCH  16  23
ENDBRANCH  12  16
ENDBRANCH   3   9
BRANCH   1  29
HETATM   29  C   UNL     1      41.651 -13.252   5.475  1.00  0.00     0.240 C 
HETATM   30  N   UNL     1      42.902 -13.821   5.353  1.00  0.00    -0.326 N 
HETATM   31  H   UNL     1      43.714 -13.217   5.246  1.00  0.00     0.169 HD
HETATM   32  O   UNL     1      40.580 -13.849   5.316  1.00  0.00    -0.271 OA
BRANCH  30  33
HETATM   33  C   UNL     1      43.192 -15.183   5.122  1.00  0.00     0.034 A 
HETATM   34  C   UNL     1      43.639 -16.066   6.105  1.00  0.00     0.032 A 
HETATM   35  C   UNL     1      43.912 -17.406   5.790  1.00  0.00     0.039 A 
HETATM   36  C   UNL     1      43.731 -17.875   4.490  1.00  0.00     0.068 A 
HETATM   37  C   UNL     1      43.293 -16.990   3.505  1.00  0.00     0.039 A 
HETATM   38  C   UNL     1      43.036 -15.653   3.813  1.00  0.00     0.032 A 
BRANCH  36  39
HETATM   39  O   UNL     1      43.937 -19.153   4.054  1.00  0.00    -0.352 OA
BRANCH  39  40
HETATM   40  C   UNL     1      44.196 -19.337   2.664  1.00  0.00     0.171 C 
HETATM   41  C   UNL     1      43.176 -20.326   2.127  1.00  0.00     0.034 C 
ENDBRANCH  39  40
ENDBRANCH  36  39
ENDBRANCH  30  33
ENDBRANCH   1  29
TORSDOF 8
ENDMDL
