MODEL 1
REMARK VINA RESULT:      -8.6      0.000      0.000
REMARK  7 active torsions:
REMARK  status: ('A' for Active; 'I' for Inactive)
REMARK    1  A    between atoms: C_4  and  C_5 
REMARK    2  A    between atoms: C_5  and  O_6 
REMARK    3  A    between atoms: C_5  and  C_7 
REMARK    4  A    between atoms: C_7  and  N_8 
REMARK       I    between atoms: N_8  and  C_9 
REMARK    5  A    between atoms: N_8  and  C_20 
REMARK    6  A    between atoms: C_9  and  C_10 
REMARK    7  A    between atoms: C_14  and  C_15 
ROOT
HETATM    1  N   UNL     1      41.312 -14.907   3.132  1.00  0.00    -0.339 N 
HETATM    2  C   UNL     1      41.108 -13.662   2.492  1.00  0.00     0.274 C 
HETATM    3  O   UNL     1      41.238 -12.604   3.116  1.00  0.00    -0.266 OA
ENDROOT
BRANCH   1   4
HETATM    4  C   UNL     1      41.333 -16.209   2.426  1.00  0.00     0.163 C 
BRANCH   4   5
HETATM    5  C   UNL     1      42.727 -16.641   1.908  1.00  0.00     0.169 C 
BRANCH   5   6
HETATM    6  C   UNL     1      43.236 -17.855   2.663  1.00  0.00    -0.028 A 
HETATM    7  C   UNL     1      43.794 -17.734   3.944  1.00  0.00     0.010 A 
HETATM    8  C   UNL     1      44.232 -18.862   4.639  1.00  0.00     0.001 A 
HETATM    9  C   UNL     1      44.112 -20.126   4.065  1.00  0.00     0.000 A 
HETATM   10  C   UNL     1      43.555 -20.262   2.796  1.00  0.00     0.001 A 
HETATM   11  C   UNL     1      43.117 -19.134   2.099  1.00  0.00     0.010 A 
ENDBRANCH   5   6
BRANCH   5  12
HETATM   12  O   UNL     1      43.701 -15.601   1.976  1.00  0.00    -0.389 OA
HETATM   13  H   UNL     1      44.458 -15.950   2.495  1.00  0.00     0.210 HD
ENDBRANCH   5  12
ENDBRANCH   4   5
ENDBRANCH   1   4
BRANCH   1  14
HETATM   14  C   UNL     1      41.474 -14.866   4.605  1.00  0.00     0.087 C 
HETATM   15  C   UNL     1      42.906 -14.598   5.101  1.00  0.00     0.025 C 
HETATM   16  C   UNL     1      42.956 -14.495   6.625  1.00  0.00     0.002 C 
HETATM   17  C   UNL     1      42.382 -15.745   7.286  1.00  0.00     0.000 C 
HETATM   18  C   UNL     1      40.967 -16.041   6.799  1.00  0.00     0.002 C 
HETATM   19  C   UNL     1      40.894 -16.126   5.274  1.00  0.00     0.025 C 
ENDBRANCH   1  14
BRANCH   2  20
HETATM   20  C   UNL     1      40.765 -13.598   1.054  1.00  0.00     0.146 A 
HETATM   21  N   UNL     1      41.364 -12.789   0.154  1.00  0.00    -0.169 NA
HETATM   22  N   UNL     1      40.771 -13.094  -1.016  1.00  0.00    -0.281 N 
HETATM   23  H   UNL     1      41.061 -12.599  -1.853  1.00  0.00     0.189 HD
HETATM   24  C   UNL     1      39.830 -14.072  -0.912  1.00  0.00     0.034 A 
HETATM   25  C   UNL     1      39.816 -14.444   0.408  1.00  0.00     0.066 A 
BRANCH  24  26
HETATM   26  C   UNL     1      38.965 -14.655  -2.006  1.00  0.00     0.037 A 
HETATM   27  C   UNL     1      37.816 -13.825  -2.540  1.00  0.00     0.011 A 
HETATM   28  C   UNL     1      39.022 -14.044  -3.389  1.00  0.00     0.011 A 
ENDBRANCH  24  26
ENDBRANCH   2  20
TORSDOF 7
ENDMDL
MODEL 2
REMARK VINA RESULT:      -8.1      3.472      7.060
REMARK  7 active torsions:
REMARK  status: ('A' for Active; 'I' for Inactive)
REMARK    1  A    between atoms: C_4  and  C_5 
REMARK    2  A    between atoms: C_5  and  O_6 
REMARK    3  A    between atoms: C_5  and  C_7 
REMARK    4  A    between atoms: C_7  and  N_8 
REMARK       I    between atoms: N_8  and  C_9 
REMARK    5  A    between atoms: N_8  and  C_20 
REMARK    6  A    between atoms: C_9  and  C_10 
REMARK    7  A    between atoms: C_14  and  C_15 
ROOT
HETATM    1  N   UNL     1      43.491 -16.744   4.399  1.00  0.00    -0.339 N 
HETATM    2  C   UNL     1      43.992 -16.155   5.585  1.00  0.00     0.274 C 
HETATM    3  O   UNL     1      44.903 -16.694   6.219  1.00  0.00    -0.266 OA
ENDROOT
BRANCH   1   4
HETATM    4  C   UNL     1      42.516 -16.089   3.497  1.00  0.00     0.163 C 
BRANCH   4   5
HETATM    5  C   UNL     1      43.120 -15.008   2.567  1.00  0.00     0.169 C 
BRANCH   5   6
HETATM    6  C   UNL     1      42.610 -13.628   2.933  1.00  0.00    -0.028 A 
HETATM    7  C   UNL     1      41.267 -13.416   3.281  1.00  0.00     0.010 A 
HETATM    8  C   UNL     1      40.818 -12.145   3.644  1.00  0.00     0.001 A 
HETATM    9  C   UNL     1      41.706 -11.072   3.671  1.00  0.00     0.000 A 
HETATM   10  C   UNL     1      43.043 -11.268   3.333  1.00  0.00     0.001 A 
HETATM   11  C   UNL     1      43.494 -12.538   2.969  1.00  0.00     0.010 A 
ENDBRANCH   5   6
BRANCH   5  12
HETATM   12  O   UNL     1      42.871 -15.251   1.183  1.00  0.00    -0.389 OA
HETATM   13  H   UNL     1      42.550 -16.176   1.108  1.00  0.00     0.210 HD
ENDBRANCH   5  12
ENDBRANCH   4   5
ENDBRANCH   1   4
BRANCH   1  14
HETATM   14  C   UNL     1      43.968 -18.115   4.098  1.00  0.00     0.087 C 
HETATM   15  C   UNL     1      43.457 -18.712   2.775  1.00  0.00     0.025 C 
HETATM   16  C   UNL     1      44.066 -20.089   2.516  1.00  0.00     0.002 C 
HETATM   17  C   UNL     1      43.798 -21.043   3.676  1.00  0.00     0.000 C 
HETATM   18  C   UNL     1      44.282 -20.467   5.003  1.00  0.00     0.002 C 
HETATM   19  C   UNL     1      43.700 -19.078   5.269  1.00  0.00     0.025 C 
ENDBRANCH   1  14
BRANCH   2  20
HETATM   20  C   UNL     1      43.456 -14.865   6.072  1.00  0.00     0.146 A 
HETATM   21  N   UNL     1      42.187 -14.666   6.487  1.00  0.00    -0.169 NA
HETATM   22  N   UNL     1      42.161 -13.375   6.874  1.00  0.00    -0.281 N 
HETATM   23  H   UNL     1      41.291 -12.990   7.227  1.00  0.00     0.189 HD
HETATM   24  C   UNL     1      43.358 -12.742   6.740  1.00  0.00     0.034 A 
HETATM   25  C   UNL     1      44.229 -13.680   6.250  1.00  0.00     0.066 A 
BRANCH  24  26
HETATM   26  C   UNL     1      43.693 -11.303   7.063  1.00  0.00     0.037 A 
HETATM   27  C   UNL     1      44.147 -10.963   8.466  1.00  0.00     0.011 A 
HETATM   28  C   UNL     1      45.132 -10.933   7.348  1.00  0.00     0.011 A 
ENDBRANCH  24  26
ENDBRANCH   2  20
TORSDOF 7
ENDMDL
MODEL 3
REMARK VINA RESULT:      -8.1      1.796      6.055
REMARK  7 active torsions:
REMARK  status: ('A' for Active; 'I' for Inactive)
REMARK    1  A    between atoms: C_4  and  C_5 
REMARK    2  A    between atoms: C_5  and  O_6 
REMARK    3  A    between atoms: C_5  and  C_7 
REMARK    4  A    between atoms: C_7  and  N_8 
REMARK       I    between atoms: N_8  and  C_9 
REMARK    5  A    between atoms: N_8  and  C_20 
REMARK    6  A    between atoms: C_9  and  C_10 
REMARK    7  A    between atoms: C_14  and  C_15 
ROOT
HETATM    1  N   UNL     1      40.605 -13.922   2.030  1.00  0.00    -0.339 N 
HETATM    2  C   UNL     1      40.663 -12.798   2.888  1.00  0.00     0.274 C 
HETATM    3  O   UNL     1      40.167 -11.720   2.548  1.00  0.00    -0.266 OA
ENDROOT
BRANCH   1   4
HETATM    4  C   UNL     1      41.029 -15.286   2.422  1.00  0.00     0.163 C 
BRANCH   4   5
HETATM    5  C   UNL     1      42.398 -15.727   1.847  1.00  0.00     0.169 C 
BRANCH   5   6
HETATM    6  C   UNL     1      43.084 -16.716   2.769  1.00  0.00    -0.028 A 
HETATM    7  C   UNL     1      43.450 -16.360   4.076  1.00  0.00     0.010 A 
HETATM    8  C   UNL     1      44.055 -17.289   4.924  1.00  0.00     0.001 A 
HETATM    9  C   UNL     1      44.295 -18.588   4.480  1.00  0.00     0.000 A 
HETATM   10  C   UNL     1      43.931 -18.958   3.187  1.00  0.00     0.001 A 
HETATM   11  C   UNL     1      43.328 -18.029   2.337  1.00  0.00     0.010 A 
ENDBRANCH   5   6
BRANCH   5  12
HETATM   12  O   UNL     1      43.279 -14.634   1.589  1.00  0.00    -0.389 OA
HETATM   13  H   UNL     1      43.165 -13.994   2.324  1.00  0.00     0.210 HD
ENDBRANCH   5  12
ENDBRANCH   4   5
ENDBRANCH   1   4
BRANCH   1  14
HETATM   14  C   UNL     1      40.118 -13.670   0.654  1.00  0.00     0.087 C 
HETATM   15  C   UNL     1      39.774 -14.928  -0.164  1.00  0.00     0.025 C 
HETATM   16  C   UNL     1      39.207 -14.562  -1.534  1.00  0.00     0.002 C 
HETATM   17  C   UNL     1      40.163 -13.661  -2.310  1.00  0.00     0.000 C 
HETATM   18  C   UNL     1      40.531 -12.413  -1.514  1.00  0.00     0.002 C 
HETATM   19  C   UNL     1      41.081 -12.758  -0.130  1.00  0.00     0.025 C 
ENDBRANCH   1  14
BRANCH   2  20
HETATM   20  C   UNL     1      41.291 -12.899   4.224  1.00  0.00     0.146 A 
HETATM   21  N   UNL     1      40.643 -13.253   5.355  1.00  0.00    -0.169 NA
HETATM   22  N   UNL     1      41.601 -13.252   6.303  1.00  0.00    -0.281 N 
HETATM   23  H   UNL     1      41.343 -13.487   7.255  1.00  0.00     0.189 HD
HETATM   24  C   UNL     1      42.834 -12.928   5.830  1.00  0.00     0.034 A 
HETATM   25  C   UNL     1      42.681 -12.720   4.483  1.00  0.00     0.066 A 
BRANCH  24  26
HETATM   26  C   UNL     1      44.130 -12.819   6.602  1.00  0.00     0.037 A 
HETATM   27  C   UNL     1      45.031 -11.631   6.339  1.00  0.00     0.011 A 
HETATM   28  C   UNL     1      44.282 -11.714   7.625  1.00  0.00     0.011 A 
ENDBRANCH  24  26
ENDBRANCH   2  20
TORSDOF 7
ENDMDL
MODEL 4
REMARK VINA RESULT:      -8.0      2.905      4.287
REMARK  7 active torsions:
REMARK  status: ('A' for Active; 'I' for Inactive)
REMARK    1  A    between atoms: C_4  and  C_5 
REMARK    2  A    between atoms: C_5  and  O_6 
REMARK    3  A    between atoms: C_5  and  C_7 
REMARK    4  A    between atoms: C_7  and  N_8 
REMARK       I    between atoms: N_8  and  C_9 
REMARK    5  A    between atoms: N_8  and  C_20 
REMARK    6  A    between atoms: C_9  and  C_10 
REMARK    7  A    between atoms: C_14  and  C_15 
ROOT
HETATM    1  N   UNL     1      43.389 -12.051   5.230  1.00  0.00    -0.339 N 
HETATM    2  C   UNL     1      43.796 -11.959   3.878  1.00  0.00     0.274 C 
HETATM    3  O   UNL     1      44.775 -11.278   3.561  1.00  0.00    -0.266 OA
ENDROOT
BRANCH   1   4
HETATM    4  C   UNL     1      42.330 -12.966   5.717  1.00  0.00     0.163 C 
BRANCH   4   5
HETATM    5  C   UNL     1      42.833 -14.367   6.146  1.00  0.00     0.169 C 
BRANCH   5   6
HETATM    6  C   UNL     1      42.553 -15.399   5.072  1.00  0.00    -0.028 A 
HETATM    7  C   UNL     1      41.286 -15.507   4.477  1.00  0.00     0.010 A 
HETATM    8  C   UNL     1      41.050 -16.442   3.469  1.00  0.00     0.001 A 
HETATM    9  C   UNL     1      42.078 -17.278   3.037  1.00  0.00     0.000 A 
HETATM   10  C   UNL     1      43.343 -17.180   3.614  1.00  0.00     0.001 A 
HETATM   11  C   UNL     1      43.580 -16.245   4.624  1.00  0.00     0.010 A 
ENDBRANCH   5   6
BRANCH   5  12
HETATM   12  O   UNL     1      42.276 -14.810   7.383  1.00  0.00    -0.389 OA
HETATM   13  H   UNL     1      41.504 -14.234   7.573  1.00  0.00     0.210 HD
ENDBRANCH   5  12
ENDBRANCH   4   5
ENDBRANCH   1   4
BRANCH   1  14
HETATM   14  C   UNL     1      44.063 -11.134   6.180  1.00  0.00     0.087 C 
HETATM   15  C   UNL     1      45.320 -11.702   6.862  1.00  0.00     0.025 C 
HETATM   16  C   UNL     1      45.986 -10.658   7.757  1.00  0.00     0.002 C 
HETATM   17  C   UNL     1      45.011 -10.112   8.796  1.00  0.00     0.000 C 
HETATM   18  C   UNL     1      43.747  -9.557   8.145  1.00  0.00     0.002 C 
HETATM   19  C   UNL     1      43.079 -10.580   7.228  1.00  0.00     0.025 C 
ENDBRANCH   1  14
BRANCH   2  20
HETATM   20  C   UNL     1      43.076 -12.701   2.820  1.00  0.00     0.146 A 
HETATM   21  N   UNL     1      43.561 -13.780   2.169  1.00  0.00    -0.169 NA
HETATM   22  N   UNL     1      42.565 -14.144   1.338  1.00  0.00    -0.281 N 
HETATM   23  H   UNL     1      42.706 -14.946   0.732  1.00  0.00     0.189 HD
HETATM   24  C   UNL     1      41.459 -13.359   1.436  1.00  0.00     0.034 A 
HETATM   25  C   UNL     1      41.739 -12.430   2.405  1.00  0.00     0.066 A 
BRANCH  24  26
HETATM   26  C   UNL     1      40.167 -13.465   0.657  1.00  0.00     0.037 A 
HETATM   27  C   UNL     1      40.230 -13.445  -0.855  1.00  0.00     0.011 A 
HETATM   28  C   UNL     1      39.900 -14.716  -0.151  1.00  0.00     0.011 A 
ENDBRANCH  24  26
ENDBRANCH   2  20
TORSDOF 7
ENDMDL
MODEL 5
REMARK VINA RESULT:      -7.9      1.787      2.231
REMARK  7 active torsions:
REMARK  status: ('A' for Active; 'I' for Inactive)
REMARK    1  A    between atoms: C_4  and  C_5 
REMARK    2  A    between atoms: C_5  and  O_6 
REMARK    3  A    between atoms: C_5  and  C_7 
REMARK    4  A    between atoms: C_7  and  N_8 
REMARK       I    between atoms: N_8  and  C_9 
REMARK    5  A    between atoms: N_8  and  C_20 
REMARK    6  A    between atoms: C_9  and  C_10 
REMARK    7  A    between atoms: C_14  and  C_15 
ROOT
HETATM    1  N   UNL     1      42.406 -13.594   3.390  1.00  0.00    -0.339 N 
HETATM    2  C   UNL     1      41.472 -12.900   2.585  1.00  0.00     0.274 C 
HETATM    3  O   UNL     1      41.195 -11.720   2.818  1.00  0.00    -0.266 OA
ENDROOT
BRANCH   1   4
HETATM    4  C   UNL     1      42.913 -14.952   3.087  1.00  0.00     0.163 C 
BRANCH   4   5
HETATM    5  C   UNL     1      42.272 -16.084   3.928  1.00  0.00     0.169 C 
BRANCH   5   6
HETATM    6  C   UNL     1      42.910 -17.424   3.616  1.00  0.00    -0.028 A 
HETATM    7  C   UNL     1      43.716 -18.084   4.556  1.00  0.00     0.010 A 
HETATM    8  C   UNL     1      44.274 -19.329   4.266  1.00  0.00     0.001 A 
HETATM    9  C   UNL     1      44.028 -19.935   3.036  1.00  0.00     0.000 A 
HETATM   10  C   UNL     1      43.226 -19.295   2.094  1.00  0.00     0.001 A 
HETATM   11  C   UNL     1      42.668 -18.048   2.382  1.00  0.00     0.010 A 
ENDBRANCH   5   6
BRANCH   5  12
HETATM   12  O   UNL     1      40.859 -16.183   3.755  1.00  0.00    -0.389 OA
HETATM   13  H   UNL     1      40.528 -15.276   3.577  1.00  0.00     0.210 HD
ENDBRANCH   5  12
ENDBRANCH   4   5
ENDBRANCH   1   4
BRANCH   1  14
HETATM   14  C   UNL     1      42.851 -12.900   4.621  1.00  0.00     0.087 C 
HETATM   15  C   UNL     1      43.969 -11.861   4.423  1.00  0.00     0.025 C 
HETATM   16  C   UNL     1      44.300 -11.145   5.731  1.00  0.00     0.002 C 
HETATM   17  C   UNL     1      44.677 -12.136   6.828  1.00  0.00     0.000 C 
HETATM   18  C   UNL     1      43.590 -13.187   7.034  1.00  0.00     0.002 C 
HETATM   19  C   UNL     1      43.229 -13.899   5.731  1.00  0.00     0.025 C 
ENDBRANCH   1  14
BRANCH   2  20
HETATM   20  C   UNL     1      40.832 -13.563   1.428  1.00  0.00     0.146 A 
HETATM   21  N   UNL     1      39.948 -14.581   1.515  1.00  0.00    -0.169 NA
HETATM   22  N   UNL     1      39.603 -14.834   0.237  1.00  0.00    -0.281 N 
HETATM   23  H   UNL     1      38.940 -15.578   0.051  1.00  0.00     0.189 HD
HETATM   24  C   UNL     1      40.213 -14.017  -0.664  1.00  0.00     0.034 A 
HETATM   25  C   UNL     1      40.995 -13.162   0.069  1.00  0.00     0.066 A 
BRANCH  24  26
HETATM   26  C   UNL     1      40.074 -14.020  -2.170  1.00  0.00     0.037 A 
HETATM   27  C   UNL     1      39.186 -12.978  -2.817  1.00  0.00     0.011 A 
HETATM   28  C   UNL     1      40.666 -12.876  -2.962  1.00  0.00     0.011 A 
ENDBRANCH  24  26
ENDBRANCH   2  20
TORSDOF 7
ENDMDL
MODEL 6
REMARK VINA RESULT:      -7.9      2.561      6.387
REMARK  7 active torsions:
REMARK  status: ('A' for Active; 'I' for Inactive)
REMARK    1  A    between atoms: C_4  and  C_5 
REMARK    2  A    between atoms: C_5  and  O_6 
REMARK    3  A    between atoms: C_5  and  C_7 
REMARK    4  A    between atoms: C_7  and  N_8 
REMARK       I    between atoms: N_8  and  C_9 
REMARK    5  A    between atoms: N_8  and  C_20 
REMARK    6  A    between atoms: C_9  and  C_10 
REMARK    7  A    between atoms: C_14  and  C_15 
ROOT
HETATM    1  N   UNL     1      41.930 -13.898   3.345  1.00  0.00    -0.339 N 
HETATM    2  C   UNL     1      41.680 -12.893   4.310  1.00  0.00     0.274 C 
HETATM    3  O   UNL     1      40.668 -12.190   4.238  1.00  0.00    -0.266 OA
ENDROOT
BRANCH   1   4
HETATM    4  C   UNL     1      43.029 -14.886   3.444  1.00  0.00     0.163 C 
BRANCH   4   5
HETATM    5  C   UNL     1      42.818 -15.983   4.517  1.00  0.00     0.169 C 
BRANCH   5   6
HETATM    6  C   UNL     1      43.207 -17.349   3.985  1.00  0.00    -0.028 A 
HETATM    7  C   UNL     1      43.873 -18.283   4.793  1.00  0.00     0.010 A 
HETATM    8  C   UNL     1      44.199 -19.546   4.299  1.00  0.00     0.001 A 
HETATM    9  C   UNL     1      43.859 -19.896   2.994  1.00  0.00     0.000 A 
HETATM   10  C   UNL     1      43.193 -18.981   2.181  1.00  0.00     0.001 A 
HETATM   11  C   UNL     1      42.867 -17.716   2.673  1.00  0.00     0.010 A 
ENDBRANCH   5   6
BRANCH   5  12
HETATM   12  O   UNL     1      41.481 -16.034   5.015  1.00  0.00    -0.389 OA
HETATM   13  H   UNL     1      41.374 -16.904   5.458  1.00  0.00     0.210 HD
ENDBRANCH   5  12
ENDBRANCH   4   5
ENDBRANCH   1   4
BRANCH   1  14
HETATM   14  C   UNL     1      41.037 -13.906   2.162  1.00  0.00     0.087 C 
HETATM   15  C   UNL     1      40.814 -15.285   1.515  1.00  0.00     0.025 C 
HETATM   16  C   UNL     1      39.820 -15.202   0.358  1.00  0.00     0.002 C 
HETATM   17  C   UNL     1      40.267 -14.183  -0.687  1.00  0.00     0.000 C 
HETATM   18  C   UNL     1      40.509 -12.810  -0.067  1.00  0.00     0.002 C 
HETATM   19  C   UNL     1      41.485 -12.877   1.107  1.00  0.00     0.025 C 
ENDBRANCH   1  14
BRANCH   2  20
HETATM   20  C   UNL     1      42.609 -12.684   5.441  1.00  0.00     0.146 A 
HETATM   21  N   UNL     1      42.563 -13.358   6.611  1.00  0.00    -0.169 NA
HETATM   22  N   UNL     1      43.606 -12.878   7.315  1.00  0.00    -0.281 N 
HETATM   23  H   UNL     1      43.773 -13.240   8.247  1.00  0.00     0.189 HD
HETATM   24  C   UNL     1      44.328 -11.937   6.646  1.00  0.00     0.034 A 
HETATM   25  C   UNL     1      43.731 -11.804   5.419  1.00  0.00     0.066 A 
BRANCH  24  26
HETATM   26  C   UNL     1      45.546 -11.181   7.126  1.00  0.00     0.037 A 
HETATM   27  C   UNL     1      45.384  -9.731   7.531  1.00  0.00     0.011 A 
HETATM   28  C   UNL     1      45.624 -10.763   8.578  1.00  0.00     0.011 A 
ENDBRANCH  24  26
ENDBRANCH   2  20
TORSDOF 7
ENDMDL
MODEL 7
REMARK VINA RESULT:      -7.7      2.713      6.901
REMARK  7 active torsions:
REMARK  status: ('A' for Active; 'I' for Inactive)
REMARK    1  A    between atoms: C_4  and  C_5 
REMARK    2  A    between atoms: C_5  and  O_6 
REMARK    3  A    between atoms: C_5  and  C_7 
REMARK    4  A    between atoms: C_7  and  N_8 
REMARK       I    between atoms: N_8  and  C_9 
REMARK    5  A    between atoms: N_8  and  C_20 
REMARK    6  A    between atoms: C_9  and  C_10 
REMARK    7  A    between atoms: C_14  and  C_15 
ROOT
HETATM    1  N   UNL     1      43.759 -16.643   4.529  1.00  0.00    -0.339 N 
HETATM    2  C   UNL     1      43.966 -16.145   5.838  1.00  0.00     0.274 C 
HETATM    3  O   UNL     1      44.579 -16.813   6.676  1.00  0.00    -0.266 OA
ENDROOT
BRANCH   1   4
HETATM    4  C   UNL     1      43.178 -15.848   3.423  1.00  0.00     0.163 C 
BRANCH   4   5
HETATM    5  C   UNL     1      41.684 -16.137   3.135  1.00  0.00     0.169 C 
BRANCH   5   6
HETATM    6  C   UNL     1      41.173 -15.279   1.994  1.00  0.00    -0.028 A 
HETATM    7  C   UNL     1      41.682 -13.991   1.767  1.00  0.00     0.010 A 
HETATM    8  C   UNL     1      41.223 -13.223   0.696  1.00  0.00     0.001 A 
HETATM    9  C   UNL     1      40.255 -13.734  -0.165  1.00  0.00     0.000 A 
HETATM   10  C   UNL     1      39.744 -15.013   0.044  1.00  0.00     0.001 A 
HETATM   11  C   UNL     1      40.201 -15.782   1.116  1.00  0.00     0.010 A 
ENDBRANCH   5   6
BRANCH   5  12
HETATM   12  O   UNL     1      40.845 -15.956   4.275  1.00  0.00    -0.389 OA
HETATM   13  H   UNL     1      40.515 -15.031   4.243  1.00  0.00     0.210 HD
ENDBRANCH   5  12
ENDBRANCH   4   5
ENDBRANCH   1   4
BRANCH   1  14
HETATM   14  C   UNL     1      44.126 -18.061   4.304  1.00  0.00     0.087 C 
HETATM   15  C   UNL     1      43.744 -18.628   2.925  1.00  0.00     0.025 C 
HETATM   16  C   UNL     1      44.234 -20.065   2.759  1.00  0.00     0.002 C 
HETATM   17  C   UNL     1      43.708 -20.964   3.874  1.00  0.00     0.000 C 
HETATM   18  C   UNL     1      44.061 -20.416   5.253  1.00  0.00     0.002 C 
HETATM   19  C   UNL     1      43.598 -18.970   5.430  1.00  0.00     0.025 C 
ENDBRANCH   1  14
BRANCH   2  20
HETATM   20  C   UNL     1      43.479 -14.802   6.221  1.00  0.00     0.146 A 
HETATM   21  N   UNL     1      42.198 -14.505   6.526  1.00  0.00    -0.169 NA
HETATM   22  N   UNL     1      42.226 -13.197   6.849  1.00  0.00    -0.281 N 
HETATM   23  H   UNL     1      41.359 -12.742   7.114  1.00  0.00     0.189 HD
HETATM   24  C   UNL     1      43.468 -12.645   6.779  1.00  0.00     0.034 A 
HETATM   25  C   UNL     1      44.311 -13.659   6.403  1.00  0.00     0.066 A 
BRANCH  24  26
HETATM   26  C   UNL     1      43.870 -11.214   7.058  1.00  0.00     0.037 A 
HETATM   27  C   UNL     1      44.285 -10.841   8.465  1.00  0.00     0.011 A 
HETATM   28  C   UNL     1      45.315 -10.911   7.390  1.00  0.00     0.011 A 
ENDBRANCH  24  26
ENDBRANCH   2  20
TORSDOF 7
ENDMDL
MODEL 8
REMARK VINA RESULT:      -7.7      2.100      4.514
REMARK  7 active torsions:
REMARK  status: ('A' for Active; 'I' for Inactive)
REMARK    1  A    between atoms: C_4  and  C_5 
REMARK    2  A    between atoms: C_5  and  O_6 
REMARK    3  A    between atoms: C_5  and  C_7 
REMARK    4  A    between atoms: C_7  and  N_8 
REMARK       I    between atoms: N_8  and  C_9 
REMARK    5  A    between atoms: N_8  and  C_20 
REMARK    6  A    between atoms: C_9  and  C_10 
REMARK    7  A    between atoms: C_14  and  C_15 
ROOT
HETATM    1  N   UNL     1      41.856 -15.217   2.541  1.00  0.00    -0.339 N 
HETATM    2  C   UNL     1      40.685 -15.289   1.750  1.00  0.00     0.274 C 
HETATM    3  O   UNL     1      40.013 -16.323   1.714  1.00  0.00    -0.266 OA
ENDROOT
BRANCH   1   4
HETATM    4  C   UNL     1      42.629 -13.973   2.766  1.00  0.00     0.163 C 
BRANCH   4   5
HETATM    5  C   UNL     1      41.992 -12.990   3.778  1.00  0.00     0.169 C 
BRANCH   5   6
HETATM    6  C   UNL     1      42.977 -12.615   4.869  1.00  0.00    -0.028 A 
HETATM    7  C   UNL     1      42.912 -13.202   6.142  1.00  0.00     0.010 A 
HETATM    8  C   UNL     1      43.842 -12.869   7.127  1.00  0.00     0.001 A 
HETATM    9  C   UNL     1      44.854 -11.952   6.851  1.00  0.00     0.000 A 
HETATM   10  C   UNL     1      44.935 -11.365   5.590  1.00  0.00     0.001 A 
HETATM   11  C   UNL     1      44.003 -11.696   4.604  1.00  0.00     0.010 A 
ENDBRANCH   5   6
BRANCH   5  12
HETATM   12  O   UNL     1      40.796 -13.492   4.375  1.00  0.00    -0.389 OA
HETATM   13  H   UNL     1      40.153 -13.638   3.648  1.00  0.00     0.210 HD
ENDBRANCH   5  12
ENDBRANCH   4   5
ENDBRANCH   1   4
BRANCH   1  14
HETATM   14  C   UNL     1      42.325 -16.492   3.133  1.00  0.00     0.087 C 
HETATM   15  C   UNL     1      43.078 -16.359   4.469  1.00  0.00     0.025 C 
HETATM   16  C   UNL     1      43.448 -17.728   5.036  1.00  0.00     0.002 C 
HETATM   17  C   UNL     1      44.265 -18.542   4.038  1.00  0.00     0.000 C 
HETATM   18  C   UNL     1      43.546 -18.676   2.699  1.00  0.00     0.002 C 
HETATM   19  C   UNL     1      43.148 -17.316   2.125  1.00  0.00     0.025 C 
ENDBRANCH   1  14
BRANCH   2  20
HETATM   20  C   UNL     1      40.224 -14.117   0.974  1.00  0.00     0.146 A 
HETATM   21  N   UNL     1      39.523 -13.082   1.485  1.00  0.00    -0.169 NA
HETATM   22  N   UNL     1      39.361 -12.242   0.444  1.00  0.00    -0.281 N 
HETATM   23  H   UNL     1      38.849 -11.378   0.590  1.00  0.00     0.189 HD
HETATM   24  C   UNL     1      39.938 -12.683  -0.707  1.00  0.00     0.034 A 
HETATM   25  C   UNL     1      40.530 -13.880  -0.399  1.00  0.00     0.066 A 
BRANCH  24  26
HETATM   26  C   UNL     1      39.947 -12.012  -2.062  1.00  0.00     0.037 A 
HETATM   27  C   UNL     1      41.070 -11.049  -2.386  1.00  0.00     0.011 A 
HETATM   28  C   UNL     1      41.029 -12.381  -3.054  1.00  0.00     0.011 A 
ENDBRANCH  24  26
ENDBRANCH   2  20
TORSDOF 7
ENDMDL
MODEL 9
REMARK VINA RESULT:      -7.6      2.343      6.419
REMARK  7 active torsions:
REMARK  status: ('A' for Active; 'I' for Inactive)
REMARK    1  A    between atoms: C_4  and  C_5 
REMARK    2  A    between atoms: C_5  and  O_6 
REMARK    3  A    between atoms: C_5  and  C_7 
REMARK    4  A    between atoms: C_7  and  N_8 
REMARK       I    between atoms: N_8  and  C_9 
REMARK    5  A    between atoms: N_8  and  C_20 
REMARK    6  A    between atoms: C_9  and  C_10 
REMARK    7  A    between atoms: C_14  and  C_15 
ROOT
HETATM    1  N   UNL     1      40.602 -13.482   1.892  1.00  0.00    -0.339 N 
HETATM    2  C   UNL     1      40.036 -12.541   2.785  1.00  0.00     0.274 C 
HETATM    3  O   UNL     1      39.041 -11.886   2.461  1.00  0.00    -0.266 OA
ENDROOT
BRANCH   1   4
HETATM    4  C   UNL     1      41.690 -14.419   2.256  1.00  0.00     0.163 C 
BRANCH   4   5
HETATM    5  C   UNL     1      41.223 -15.700   2.990  1.00  0.00     0.169 C 
BRANCH   5   6
HETATM    6  C   UNL     1      41.712 -15.715   4.426  1.00  0.00    -0.028 A 
HETATM    7  C   UNL     1      40.874 -16.119   5.476  1.00  0.00     0.010 A 
HETATM    8  C   UNL     1      41.346 -16.155   6.789  1.00  0.00     0.001 A 
HETATM    9  C   UNL     1      42.663 -15.795   7.068  1.00  0.00     0.000 A 
HETATM   10  C   UNL     1      43.509 -15.398   6.035  1.00  0.00     0.001 A 
HETATM   11  C   UNL     1      43.037 -15.359   4.721  1.00  0.00     0.010 A 
ENDBRANCH   5   6
BRANCH   5  12
HETATM   12  O   UNL     1      41.631 -16.903   2.340  1.00  0.00    -0.389 OA
HETATM   13  H   UNL     1      40.837 -17.477   2.276  1.00  0.00     0.210 HD
ENDBRANCH   5  12
ENDBRANCH   4   5
ENDBRANCH   1   4
BRANCH   1  14
HETATM   14  C   UNL     1      40.071 -13.473   0.509  1.00  0.00     0.087 C 
HETATM   15  C   UNL     1      39.876 -14.860  -0.130  1.00  0.00     0.025 C 
HETATM   16  C   UNL     1      39.251 -14.748  -1.519  1.00  0.00     0.002 C 
HETATM   17  C   UNL     1      40.079 -13.848  -2.431  1.00  0.00     0.000 C 
HETATM   18  C   UNL     1      40.300 -12.471  -1.814  1.00  0.00     0.002 C 
HETATM   19  C   UNL     1      40.904 -12.563  -0.413  1.00  0.00     0.025 C 
ENDBRANCH   1  14
BRANCH   2  20
HETATM   20  C   UNL     1      40.604 -12.345   4.136  1.00  0.00     0.146 A 
HETATM   21  N   UNL     1      40.036 -12.781   5.282  1.00  0.00    -0.169 NA
HETATM   22  N   UNL     1      40.908 -12.422   6.244  1.00  0.00    -0.281 N 
HETATM   23  H   UNL     1      40.687 -12.645   7.209  1.00  0.00     0.189 HD
HETATM   24  C   UNL     1      42.015 -11.790   5.769  1.00  0.00     0.034 A 
HETATM   25  C   UNL     1      41.869 -11.746   4.406  1.00  0.00     0.066 A 
BRANCH  24  26
HETATM   26  C   UNL     1      43.186 -11.243   6.553  1.00  0.00     0.037 A 
HETATM   27  C   UNL     1      44.062 -12.213   7.317  1.00  0.00     0.011 A 
HETATM   28  C   UNL     1      44.591 -11.558   6.087  1.00  0.00     0.011 A 
ENDBRANCH  24  26
ENDBRANCH   2  20
TORSDOF 7
ENDMDL
MODEL 10
REMARK VINA RESULT:      -7.4      2.436      7.324
REMARK  7 active torsions:
REMARK  status: ('A' for Active; 'I' for Inactive)
REMARK    1  A    between atoms: C_4  and  C_5 
REMARK    2  A    between atoms: C_5  and  O_6 
REMARK    3  A    between atoms: C_5  and  C_7 
REMARK    4  A    between atoms: C_7  and  N_8 
REMARK       I    between atoms: N_8  and  C_9 
REMARK    5  A    between atoms: N_8  and  C_20 
REMARK    6  A    between atoms: C_9  and  C_10 
REMARK    7  A    between atoms: C_14  and  C_15 
ROOT
HETATM    1  N   UNL     1      41.135 -13.444   1.147  1.00  0.00    -0.339 N 
HETATM    2  C   UNL     1      41.555 -14.632   1.791  1.00  0.00     0.274 C 
HETATM    3  O   UNL     1      41.852 -15.634   1.134  1.00  0.00    -0.266 OA
ENDROOT
BRANCH   1   4
HETATM    4  C   UNL     1      40.914 -12.157   1.845  1.00  0.00     0.163 C 
BRANCH   4   5
HETATM    5  C   UNL     1      42.196 -11.321   2.082  1.00  0.00     0.169 C 
BRANCH   5   6
HETATM    6  C   UNL     1      42.575 -11.309   3.550  1.00  0.00    -0.028 A 
HETATM    7  C   UNL     1      41.608 -11.125   4.551  1.00  0.00     0.010 A 
HETATM    8  C   UNL     1      41.966 -11.145   5.899  1.00  0.00     0.001 A 
HETATM    9  C   UNL     1      43.294 -11.355   6.266  1.00  0.00     0.000 A 
HETATM   10  C   UNL     1      44.264 -11.545   5.285  1.00  0.00     0.001 A 
HETATM   11  C   UNL     1      43.908 -11.524   3.935  1.00  0.00     0.010 A 
ENDBRANCH   5   6
BRANCH   5  12
HETATM   12  O   UNL     1      42.088  -9.978   1.612  1.00  0.00    -0.389 OA
HETATM   13  H   UNL     1      42.908  -9.512   1.886  1.00  0.00     0.210 HD
ENDBRANCH   5  12
ENDBRANCH   4   5
ENDBRANCH   1   4
BRANCH   1  14
HETATM   14  C   UNL     1      40.875 -13.546  -0.309  1.00  0.00     0.087 C 
HETATM   15  C   UNL     1      40.972 -12.223  -1.088  1.00  0.00     0.025 C 
HETATM   16  C   UNL     1      40.770 -12.444  -2.586  1.00  0.00     0.002 C 
HETATM   17  C   UNL     1      39.442 -13.140  -2.871  1.00  0.00     0.000 C 
HETATM   18  C   UNL     1      39.315 -14.449  -2.097  1.00  0.00     0.002 C 
HETATM   19  C   UNL     1      39.537 -14.251  -0.598  1.00  0.00     0.025 C 
ENDBRANCH   1  14
BRANCH   2  20
HETATM   20  C   UNL     1      41.677 -14.690   3.265  1.00  0.00     0.146 A 
HETATM   21  N   UNL     1      40.643 -14.598   4.128  1.00  0.00    -0.169 NA
HETATM   22  N   UNL     1      41.208 -14.741   5.342  1.00  0.00    -0.281 N 
HETATM   23  H   UNL     1      40.613 -14.701   6.164  1.00  0.00     0.189 HD
HETATM   24  C   UNL     1      42.554 -14.936   5.298  1.00  0.00     0.034 A 
HETATM   25  C   UNL     1      42.892 -14.937   3.969  1.00  0.00     0.066 A 
BRANCH  24  26
HETATM   26  C   UNL     1      43.508 -15.122   6.456  1.00  0.00     0.037 A 
HETATM   27  C   UNL     1      43.353 -16.347   7.332  1.00  0.00     0.011 A 
HETATM   28  C   UNL     1      44.513 -16.252   6.402  1.00  0.00     0.011 A 
ENDBRANCH  24  26
ENDBRANCH   2  20
TORSDOF 7
ENDMDL
