MODEL 1
REMARK VINA RESULT:      -8.7      0.000      0.000
REMARK  2 active torsions:
REMARK  status: ('A' for Active; 'I' for Inactive)
REMARK    1  A    between atoms: C_2  and  N_3 
REMARK    2  A    between atoms: N_3  and  C_4 
ROOT
HETATM    1  N   UNL     1      42.614 -14.251   2.039  1.00  0.00    -0.340 N 
HETATM    2  H   UNL     1      43.418 -14.468   1.470  1.00  0.00     0.167 HD
ENDROOT
BRANCH   1   3
HETATM    3  C   UNL     1      41.510 -13.762   1.320  1.00  0.00     0.036 A 
HETATM    4  C   UNL     1      41.050 -12.444   1.415  1.00  0.00     0.032 A 
HETATM    5  C   UNL     1      39.960 -12.001   0.657  1.00  0.00     0.042 A 
HETATM    6  C   UNL     1      39.343 -12.859  -0.247  1.00  0.00     0.102 A 
HETATM    7  C   UNL     1      39.793 -14.172  -0.367  1.00  0.00     0.104 A 
HETATM    8  O   UNL     1      38.246 -12.378  -0.907  1.00  0.00    -0.348 OA
HETATM    9  C   UNL     1      40.856 -14.622   0.423  1.00  0.00     0.069 A 
HETATM   10  O   UNL     1      39.189 -15.101  -1.171  1.00  0.00    -0.348 OA
HETATM   11  C   UNL     1      39.253 -14.737  -2.551  1.00  0.00     0.178 C 
HETATM   12  C   UNL     1      38.165 -13.745  -2.933  1.00  0.00     0.053 C 
HETATM   13  C   UNL     1      38.430 -12.377  -2.322  1.00  0.00     0.178 C 
ENDBRANCH   1   3
BRANCH   1  14
HETATM   14  C   UNL     1      42.822 -14.454   3.411  1.00  0.00     0.143 A 
HETATM   15  N   UNL     1      42.732 -13.425   4.288  1.00  0.00    -0.223 NA
HETATM   16  C   UNL     1      42.988 -13.637   5.587  1.00  0.00     0.236 A 
HETATM   17  N   UNL     1      43.340 -14.782   6.173  1.00  0.00    -0.234 NA
HETATM   18  C   UNL     1      43.420 -15.794   5.294  1.00  0.00     0.114 A 
HETATM   19  C   UNL     1      43.178 -15.723   3.921  1.00  0.00     0.053 A 
HETATM   20  S   UNL     1      43.865 -17.369   5.829  1.00  0.00    -0.073 SA
HETATM   21  C   UNL     1      43.356 -17.018   3.348  1.00  0.00    -0.028 A 
HETATM   22  C   UNL     1      43.726 -17.956   4.274  1.00  0.00    -0.008 A 
HETATM   23  C   UNL     1      43.240 -17.630   2.000  1.00  0.00     0.041 C 
HETATM   24  C   UNL     1      43.923 -19.316   3.720  1.00  0.00     0.047 C 
HETATM   25  C   UNL     1      43.259 -19.158   2.320  1.00  0.00     0.010 C 
ENDBRANCH   1  14
TORSDOF 2
ENDMDL
MODEL 2
REMARK VINA RESULT:      -8.7      1.478      2.137
REMARK  2 active torsions:
REMARK  status: ('A' for Active; 'I' for Inactive)
REMARK    1  A    between atoms: C_2  and  N_3 
REMARK    2  A    between atoms: N_3  and  C_4 
ROOT
HETATM    1  N   UNL     1      43.205 -15.500   3.487  1.00  0.00    -0.340 N 
HETATM    2  H   UNL     1      44.061 -15.493   2.954  1.00  0.00     0.167 HD
ENDROOT
BRANCH   1   3
HETATM    3  C   UNL     1      42.168 -14.734   2.930  1.00  0.00     0.036 A 
HETATM    4  C   UNL     1      41.827 -13.453   3.379  1.00  0.00     0.032 A 
HETATM    5  C   UNL     1      40.800 -12.721   2.771  1.00  0.00     0.042 A 
HETATM    6  C   UNL     1      40.130 -13.241   1.668  1.00  0.00     0.102 A 
HETATM    7  C   UNL     1      40.464 -14.509   1.196  1.00  0.00     0.104 A 
HETATM    8  O   UNL     1      39.098 -12.499   1.165  1.00  0.00    -0.348 OA
HETATM    9  C   UNL     1      41.461 -15.253   1.833  1.00  0.00     0.069 A 
HETATM   10  O   UNL     1      39.798 -15.125   0.170  1.00  0.00    -0.348 OA
HETATM   11  C   UNL     1      39.929 -14.408  -1.059  1.00  0.00     0.178 C 
HETATM   12  C   UNL     1      38.945 -13.253  -1.156  1.00  0.00     0.053 C 
HETATM   13  C   UNL     1      39.317 -12.132  -0.197  1.00  0.00     0.178 C 
ENDBRANCH   1   3
BRANCH   1  14
HETATM   14  C   UNL     1      43.286 -16.241   4.675  1.00  0.00     0.143 A 
HETATM   15  N   UNL     1      43.226 -15.629   5.883  1.00  0.00    -0.223 NA
HETATM   16  C   UNL     1      43.360 -16.356   7.002  1.00  0.00     0.236 A 
HETATM   17  N   UNL     1      43.556 -17.671   7.101  1.00  0.00    -0.234 NA
HETATM   18  C   UNL     1      43.607 -18.266   5.899  1.00  0.00     0.114 A 
HETATM   19  C   UNL     1      43.481 -17.641   4.657  1.00  0.00     0.053 A 
HETATM   20  S   UNL     1      43.858 -19.965   5.786  1.00  0.00    -0.073 SA
HETATM   21  C   UNL     1      43.578 -18.624   3.628  1.00  0.00    -0.028 A 
HETATM   22  C   UNL     1      43.785 -19.884   4.121  1.00  0.00    -0.008 A 
HETATM   23  C   UNL     1      43.510 -18.648   2.144  1.00  0.00     0.041 C 
HETATM   24  C   UNL     1      43.896 -20.936   3.084  1.00  0.00     0.047 C 
HETATM   25  C   UNL     1      43.360 -20.171   1.837  1.00  0.00     0.010 C 
ENDBRANCH   1  14
TORSDOF 2
ENDMDL
MODEL 3
REMARK VINA RESULT:      -8.6      3.228      6.912
REMARK  2 active torsions:
REMARK  status: ('A' for Active; 'I' for Inactive)
REMARK    1  A    between atoms: C_2  and  N_3 
REMARK    2  A    between atoms: N_3  and  C_4 
ROOT
HETATM    1  N   UNL     1      41.479 -14.705   3.127  1.00  0.00    -0.340 N 
HETATM    2  H   UNL     1      40.494 -14.890   3.247  1.00  0.00     0.167 HD
ENDROOT
BRANCH   1   3
HETATM    3  C   UNL     1      42.317 -15.778   3.472  1.00  0.00     0.036 A 
HETATM    4  C   UNL     1      42.950 -15.895   4.715  1.00  0.00     0.032 A 
HETATM    5  C   UNL     1      43.756 -16.999   5.017  1.00  0.00     0.042 A 
HETATM    6  C   UNL     1      43.900 -18.031   4.096  1.00  0.00     0.102 A 
HETATM    7  C   UNL     1      43.267 -17.942   2.858  1.00  0.00     0.104 A 
HETATM    8  O   UNL     1      44.752 -19.047   4.432  1.00  0.00    -0.348 OA
HETATM    9  C   UNL     1      42.498 -16.817   2.545  1.00  0.00     0.069 A 
HETATM   10  O   UNL     1      43.425 -18.873   1.867  1.00  0.00    -0.348 OA
HETATM   11  C   UNL     1      42.933 -20.157   2.255  1.00  0.00     0.178 C 
HETATM   12  C   UNL     1      43.940 -20.926   3.096  1.00  0.00     0.053 C 
HETATM   13  C   UNL     1      44.087 -20.309   4.478  1.00  0.00     0.178 C 
ENDBRANCH   1   3
BRANCH   1  14
HETATM   14  C   UNL     1      41.759 -13.403   2.688  1.00  0.00     0.143 A 
HETATM   15  N   UNL     1      42.497 -12.556   3.446  1.00  0.00    -0.223 NA
HETATM   16  C   UNL     1      42.704 -11.299   3.025  1.00  0.00     0.236 A 
HETATM   17  N   UNL     1      42.261 -10.731   1.903  1.00  0.00    -0.234 NA
HETATM   18  C   UNL     1      41.537 -11.582   1.159  1.00  0.00     0.114 A 
HETATM   19  C   UNL     1      41.244 -12.913   1.466  1.00  0.00     0.053 A 
HETATM   20  S   UNL     1      40.858 -11.061  -0.334  1.00  0.00    -0.073 SA
HETATM   21  C   UNL     1      40.463 -13.474   0.413  1.00  0.00    -0.028 A 
HETATM   22  C   UNL     1      40.199 -12.573  -0.584  1.00  0.00    -0.008 A 
HETATM   23  C   UNL     1      39.854 -14.792   0.100  1.00  0.00     0.041 C 
HETATM   24  C   UNL     1      39.387 -13.115  -1.698  1.00  0.00     0.047 C 
HETATM   25  C   UNL     1      39.478 -14.642  -1.407  1.00  0.00     0.010 C 
ENDBRANCH   1  14
TORSDOF 2
ENDMDL
MODEL 4
REMARK VINA RESULT:      -8.5      1.767      2.495
REMARK  2 active torsions:
REMARK  status: ('A' for Active; 'I' for Inactive)
REMARK    1  A    between atoms: C_2  and  N_3 
REMARK    2  A    between atoms: N_3  and  C_4 
ROOT
HETATM    1  N   UNL     1      40.112 -15.348   3.191  1.00  0.00    -0.340 N 
HETATM    2  H   UNL     1      39.305 -15.952   3.224  1.00  0.00     0.167 HD
ENDROOT
BRANCH   1   3
HETATM    3  C   UNL     1      40.283 -14.675   1.970  1.00  0.00     0.036 A 
HETATM    4  C   UNL     1      39.911 -15.215   0.733  1.00  0.00     0.032 A 
HETATM    5  C   UNL     1      40.080 -14.492  -0.454  1.00  0.00     0.042 A 
HETATM    6  C   UNL     1      40.580 -13.194  -0.416  1.00  0.00     0.102 A 
HETATM    7  C   UNL     1      40.944 -12.633   0.806  1.00  0.00     0.104 A 
HETATM    8  O   UNL     1      40.777 -12.571  -1.617  1.00  0.00    -0.348 OA
HETATM    9  C   UNL     1      40.812 -13.375   1.984  1.00  0.00     0.069 A 
HETATM   10  O   UNL     1      41.518 -11.396   0.921  1.00  0.00    -0.348 OA
HETATM   11  C   UNL     1      40.647 -10.357   0.471  1.00  0.00     0.178 C 
HETATM   12  C   UNL     1      40.679 -10.197  -1.041  1.00  0.00     0.053 C 
HETATM   13  C   UNL     1      40.008 -11.375  -1.732  1.00  0.00     0.178 C 
ENDBRANCH   1   3
BRANCH   1  14
HETATM   14  C   UNL     1      40.883 -15.369   4.363  1.00  0.00     0.143 A 
HETATM   15  N   UNL     1      40.589 -14.553   5.404  1.00  0.00    -0.223 NA
HETATM   16  C   UNL     1      41.374 -14.555   6.492  1.00  0.00     0.236 A 
HETATM   17  N   UNL     1      42.467 -15.289   6.706  1.00  0.00    -0.234 NA
HETATM   18  C   UNL     1      42.743 -16.096   5.670  1.00  0.00     0.114 A 
HETATM   19  C   UNL     1      42.017 -16.203   4.482  1.00  0.00     0.053 A 
HETATM   20  S   UNL     1      44.117 -17.133   5.726  1.00  0.00    -0.073 SA
HETATM   21  C   UNL     1      42.631 -17.183   3.646  1.00  0.00    -0.028 A 
HETATM   22  C   UNL     1      43.753 -17.728   4.211  1.00  0.00    -0.008 A 
HETATM   23  C   UNL     1      42.374 -17.781   2.311  1.00  0.00     0.041 C 
HETATM   24  C   UNL     1      44.423 -18.749   3.373  1.00  0.00     0.047 C 
HETATM   25  C   UNL     1      43.319 -19.023   2.309  1.00  0.00     0.010 C 
ENDBRANCH   1  14
TORSDOF 2
ENDMDL
MODEL 5
REMARK VINA RESULT:      -8.5      3.842      7.740
REMARK  2 active torsions:
REMARK  status: ('A' for Active; 'I' for Inactive)
REMARK    1  A    between atoms: C_2  and  N_3 
REMARK    2  A    between atoms: N_3  and  C_4 
ROOT
HETATM    1  N   UNL     1      39.688 -14.342   0.781  1.00  0.00    -0.340 N 
HETATM    2  H   UNL     1      38.953 -13.883   1.297  1.00  0.00     0.167 HD
ENDROOT
BRANCH   1   3
HETATM    3  C   UNL     1      40.582 -15.078   1.576  1.00  0.00     0.036 A 
HETATM    4  C   UNL     1      41.883 -15.404   1.175  1.00  0.00     0.032 A 
HETATM    5  C   UNL     1      42.743 -16.119   2.017  1.00  0.00     0.042 A 
HETATM    6  C   UNL     1      42.330 -16.478   3.296  1.00  0.00     0.102 A 
HETATM    7  C   UNL     1      41.044 -16.152   3.720  1.00  0.00     0.104 A 
HETATM    8  O   UNL     1      43.198 -17.229   4.039  1.00  0.00    -0.348 OA
HETATM    9  C   UNL     1      40.174 -15.474   2.860  1.00  0.00     0.069 A 
HETATM   10  O   UNL     1      40.533 -16.539   4.930  1.00  0.00    -0.348 OA
HETATM   11  C   UNL     1      41.257 -15.973   6.023  1.00  0.00     0.178 C 
HETATM   12  C   UNL     1      42.521 -16.757   6.340  1.00  0.00     0.053 C 
HETATM   13  C   UNL     1      43.568 -16.575   5.252  1.00  0.00     0.178 C 
ENDBRANCH   1   3
BRANCH   1  14
HETATM   14  C   UNL     1      39.653 -14.088  -0.598  1.00  0.00     0.143 A 
HETATM   15  N   UNL     1      39.118 -14.988  -1.458  1.00  0.00    -0.223 NA
HETATM   16  C   UNL     1      39.146 -14.743  -2.776  1.00  0.00     0.236 A 
HETATM   17  N   UNL     1      39.656 -13.679  -3.397  1.00  0.00    -0.234 NA
HETATM   18  C   UNL     1      40.179 -12.794  -2.534  1.00  0.00     0.114 A 
HETATM   19  C   UNL     1      40.217 -12.912  -1.143  1.00  0.00     0.053 A 
HETATM   20  S   UNL     1      40.900 -11.343  -3.116  1.00  0.00    -0.073 SA
HETATM   21  C   UNL     1      40.841 -11.753  -0.593  1.00  0.00    -0.028 A 
HETATM   22  C   UNL     1      41.244 -10.866  -1.555  1.00  0.00    -0.008 A 
HETATM   23  C   UNL     1      41.172 -11.242   0.762  1.00  0.00     0.041 C 
HETATM   24  C   UNL     1      41.901  -9.648  -1.025  1.00  0.00     0.047 C 
HETATM   25  C   UNL     1      41.524  -9.747   0.483  1.00  0.00     0.010 C 
ENDBRANCH   1  14
TORSDOF 2
ENDMDL
MODEL 6
REMARK VINA RESULT:      -8.3      3.560      7.371
REMARK  2 active torsions:
REMARK  status: ('A' for Active; 'I' for Inactive)
REMARK    1  A    between atoms: C_2  and  N_3 
REMARK    2  A    between atoms: N_3  and  C_4 
ROOT
HETATM    1  N   UNL     1      41.474 -14.551   0.531  1.00  0.00    -0.340 N 
HETATM    2  H   UNL     1      41.518 -14.943  -0.398  1.00  0.00     0.167 HD
ENDROOT
BRANCH   1   3
HETATM    3  C   UNL     1      41.953 -15.400   1.542  1.00  0.00     0.036 A 
HETATM    4  C   UNL     1      43.147 -16.124   1.440  1.00  0.00     0.032 A 
HETATM    5  C   UNL     1      43.593 -16.937   2.488  1.00  0.00     0.042 A 
HETATM    6  C   UNL     1      42.874 -17.001   3.678  1.00  0.00     0.102 A 
HETATM    7  C   UNL     1      41.690 -16.278   3.805  1.00  0.00     0.104 A 
HETATM    8  O   UNL     1      43.334 -17.863   4.634  1.00  0.00    -0.348 OA
HETATM    9  C   UNL     1      41.227 -15.499   2.740  1.00  0.00     0.069 A 
HETATM   10  O   UNL     1      40.883 -16.350   4.908  1.00  0.00    -0.348 OA
HETATM   11  C   UNL     1      41.540 -15.874   6.084  1.00  0.00     0.178 C 
HETATM   12  C   UNL     1      42.436 -16.932   6.709  1.00  0.00     0.053 C 
HETATM   13  C   UNL     1      43.664 -17.190   5.848  1.00  0.00     0.178 C 
ENDBRANCH   1   3
BRANCH   1  14
HETATM   14  C   UNL     1      40.903 -13.271   0.577  1.00  0.00     0.143 A 
HETATM   15  N   UNL     1      41.351 -12.340   1.455  1.00  0.00    -0.223 NA
HETATM   16  C   UNL     1      40.751 -11.142   1.514  1.00  0.00     0.236 A 
HETATM   17  N   UNL     1      39.716 -10.712   0.793  1.00  0.00    -0.234 NA
HETATM   18  C   UNL     1      39.285 -11.641  -0.075  1.00  0.00     0.114 A 
HETATM   19  C   UNL     1      39.812 -12.922  -0.251  1.00  0.00     0.053 A 
HETATM   20  S   UNL     1      37.951 -11.304  -1.109  1.00  0.00    -0.073 SA
HETATM   21  C   UNL     1      39.083 -13.589  -1.279  1.00  0.00    -0.028 A 
HETATM   22  C   UNL     1      38.073 -12.821  -1.792  1.00  0.00    -0.008 A 
HETATM   23  C   UNL     1      39.129 -14.912  -1.955  1.00  0.00     0.041 C 
HETATM   24  C   UNL     1      37.289 -13.478  -2.863  1.00  0.00     0.047 C 
HETATM   25  C   UNL     1      38.210 -14.688  -3.197  1.00  0.00     0.010 C 
ENDBRANCH   1  14
TORSDOF 2
ENDMDL
MODEL 7
REMARK VINA RESULT:      -8.1      1.586      2.258
REMARK  2 active torsions:
REMARK  status: ('A' for Active; 'I' for Inactive)
REMARK    1  A    between atoms: C_2  and  N_3 
REMARK    2  A    between atoms: N_3  and  C_4 
ROOT
HETATM    1  N   UNL     1      41.429 -13.310   2.147  1.00  0.00    -0.340 N 
HETATM    2  H   UNL     1      42.302 -12.814   2.057  1.00  0.00     0.167 HD
ENDROOT
BRANCH   1   3
HETATM    3  C   UNL     1      40.710 -13.441   0.947  1.00  0.00     0.036 A 
HETATM    4  C   UNL     1      40.374 -14.677   0.380  1.00  0.00     0.032 A 
HETATM    5  C   UNL     1      39.634 -14.752  -0.805  1.00  0.00     0.042 A 
HETATM    6  C   UNL     1      39.174 -13.590  -1.417  1.00  0.00     0.102 A 
HETATM    7  C   UNL     1      39.486 -12.351  -0.862  1.00  0.00     0.104 A 
HETATM    8  O   UNL     1      38.513 -13.736  -2.605  1.00  0.00    -0.348 OA
HETATM    9  C   UNL     1      40.261 -12.279   0.300  1.00  0.00     0.069 A 
HETATM   10  O   UNL     1      39.143 -11.161  -1.445  1.00  0.00    -0.348 OA
HETATM   11  C   UNL     1      37.726 -10.995  -1.532  1.00  0.00     0.178 C 
HETATM   12  C   UNL     1      37.137 -11.719  -2.733  1.00  0.00     0.053 C 
HETATM   13  C   UNL     1      37.180 -13.227  -2.541  1.00  0.00     0.178 C 
ENDBRANCH   1   3
BRANCH   1  14
HETATM   14  C   UNL     1      41.136 -13.704   3.461  1.00  0.00     0.143 A 
HETATM   15  N   UNL     1      40.367 -12.929   4.265  1.00  0.00    -0.223 NA
HETATM   16  C   UNL     1      40.148 -13.304   5.534  1.00  0.00     0.236 A 
HETATM   17  N   UNL     1      40.605 -14.392   6.153  1.00  0.00    -0.234 NA
HETATM   18  C   UNL     1      41.359 -15.153   5.345  1.00  0.00     0.114 A 
HETATM   19  C   UNL     1      41.668 -14.893   4.008  1.00  0.00     0.053 A 
HETATM   20  S   UNL     1      42.061 -16.610   5.936  1.00  0.00    -0.073 SA
HETATM   21  C   UNL     1      42.481 -15.951   3.502  1.00  0.00    -0.028 A 
HETATM   22  C   UNL     1      42.751 -16.904   4.446  1.00  0.00    -0.008 A 
HETATM   23  C   UNL     1      43.118 -16.302   2.207  1.00  0.00     0.041 C 
HETATM   24  C   UNL     1      43.595 -18.021   3.962  1.00  0.00     0.047 C 
HETATM   25  C   UNL     1      43.525 -17.793   2.423  1.00  0.00     0.010 C 
ENDBRANCH   1  14
TORSDOF 2
ENDMDL
MODEL 8
REMARK VINA RESULT:      -8.1      4.151      6.896
REMARK  2 active torsions:
REMARK  status: ('A' for Active; 'I' for Inactive)
REMARK    1  A    between atoms: C_2  and  N_3 
REMARK    2  A    between atoms: N_3  and  C_4 
ROOT
HETATM    1  N   UNL     1      42.820 -12.729   3.552  1.00  0.00    -0.340 N 
HETATM    2  H   UNL     1      43.507 -12.151   3.091  1.00  0.00     0.167 HD
ENDROOT
BRANCH   1   3
HETATM    3  C   UNL     1      42.919 -14.098   3.253  1.00  0.00     0.036 A 
HETATM    4  C   UNL     1      43.166 -14.591   1.967  1.00  0.00     0.032 A 
HETATM    5  C   UNL     1      43.282 -15.965   1.728  1.00  0.00     0.042 A 
HETATM    6  C   UNL     1      43.200 -16.867   2.784  1.00  0.00     0.102 A 
HETATM    7  C   UNL     1      42.968 -16.396   4.075  1.00  0.00     0.104 A 
HETATM    8  O   UNL     1      43.258 -18.197   2.470  1.00  0.00    -0.348 OA
HETATM    9  C   UNL     1      42.812 -15.025   4.302  1.00  0.00     0.069 A 
HETATM   10  O   UNL     1      42.793 -17.221   5.153  1.00  0.00    -0.348 OA
HETATM   11  C   UNL     1      43.959 -17.999   5.427  1.00  0.00     0.178 C 
HETATM   12  C   UNL     1      44.048 -19.231   4.539  1.00  0.00     0.053 C 
HETATM   13  C   UNL     1      44.360 -18.849   3.100  1.00  0.00     0.178 C 
ENDBRANCH   1   3
BRANCH   1  14
HETATM   14  C   UNL     1      41.912 -12.006   4.340  1.00  0.00     0.143 A 
HETATM   15  N   UNL     1      40.596 -11.956   4.018  1.00  0.00    -0.223 NA
HETATM   16  C   UNL     1      39.760 -11.214   4.759  1.00  0.00     0.236 A 
HETATM   17  N   UNL     1      40.056 -10.475   5.829  1.00  0.00    -0.234 NA
HETATM   18  C   UNL     1      41.360 -10.538   6.140  1.00  0.00     0.114 A 
HETATM   19  C   UNL     1      42.342 -11.268   5.466  1.00  0.00     0.053 A 
HETATM   20  S   UNL     1      41.970  -9.655   7.486  1.00  0.00    -0.073 SA
HETATM   21  C   UNL     1      43.595 -11.080   6.121  1.00  0.00    -0.028 A 
HETATM   22  C   UNL     1      43.506 -10.238   7.197  1.00  0.00    -0.008 A 
HETATM   23  C   UNL     1      44.989 -11.563   5.949  1.00  0.00     0.041 C 
HETATM   24  C   UNL     1      44.788 -10.014   7.904  1.00  0.00     0.047 C 
HETATM   25  C   UNL     1      45.658 -11.155   7.299  1.00  0.00     0.010 C 
ENDBRANCH   1  14
TORSDOF 2
ENDMDL
MODEL 9
REMARK VINA RESULT:      -8.0      3.867      7.696
REMARK  2 active torsions:
REMARK  status: ('A' for Active; 'I' for Inactive)
REMARK    1  A    between atoms: C_2  and  N_3 
REMARK    2  A    between atoms: N_3  and  C_4 
ROOT
HETATM    1  N   UNL     1      39.804 -15.597   2.506  1.00  0.00    -0.340 N 
HETATM    2  H   UNL     1      38.891 -15.900   2.811  1.00  0.00     0.167 HD
ENDROOT
BRANCH   1   3
HETATM    3  C   UNL     1      40.869 -16.117   3.261  1.00  0.00     0.036 A 
HETATM    4  C   UNL     1      42.043 -16.625   2.692  1.00  0.00     0.032 A 
HETATM    5  C   UNL     1      43.085 -17.108   3.491  1.00  0.00     0.042 A 
HETATM    6  C   UNL     1      42.990 -17.043   4.877  1.00  0.00     0.102 A 
HETATM    7  C   UNL     1      41.836 -16.528   5.465  1.00  0.00     0.104 A 
HETATM    8  O   UNL     1      44.017 -17.590   5.595  1.00  0.00    -0.348 OA
HETATM    9  C   UNL     1      40.780 -16.086   4.662  1.00  0.00     0.069 A 
HETATM   10  O   UNL     1      41.630 -16.506   6.818  1.00  0.00    -0.348 OA
HETATM   11  C   UNL     1      42.585 -15.684   7.492  1.00  0.00     0.178 C 
HETATM   12  C   UNL     1      43.898 -16.414   7.735  1.00  0.00     0.053 C 
HETATM   13  C   UNL     1      44.656 -16.628   6.434  1.00  0.00     0.178 C 
ENDBRANCH   1   3
BRANCH   1  14
HETATM   14  C   UNL     1      39.771 -14.698   1.431  1.00  0.00     0.143 A 
HETATM   15  N   UNL     1      39.809 -15.141   0.150  1.00  0.00    -0.223 NA
HETATM   16  C   UNL     1      39.830 -14.257  -0.858  1.00  0.00     0.236 A 
HETATM   17  N   UNL     1      39.820 -12.926  -0.775  1.00  0.00    -0.234 NA
HETATM   18  C   UNL     1      39.777 -12.500   0.498  1.00  0.00     0.114 A 
HETATM   19  C   UNL     1      39.746 -13.300   1.641  1.00  0.00     0.053 A 
HETATM   20  S   UNL     1      39.761 -10.814   0.844  1.00  0.00    -0.073 SA
HETATM   21  C   UNL     1      39.689 -12.463   2.795  1.00  0.00    -0.028 A 
HETATM   22  C   UNL     1      39.699 -11.131   2.480  1.00  0.00    -0.008 A 
HETATM   23  C   UNL     1      39.615 -12.652   4.267  1.00  0.00     0.041 C 
HETATM   24  C   UNL     1      39.643 -10.226   3.651  1.00  0.00     0.047 C 
HETATM   25  C   UNL     1      39.231 -11.226   4.772  1.00  0.00     0.010 C 
ENDBRANCH   1  14
TORSDOF 2
ENDMDL
MODEL 10
REMARK VINA RESULT:      -8.0      1.260      2.956
REMARK  2 active torsions:
REMARK  status: ('A' for Active; 'I' for Inactive)
REMARK    1  A    between atoms: C_2  and  N_3 
REMARK    2  A    between atoms: N_3  and  C_4 
ROOT
HETATM    1  N   UNL     1      42.918 -14.477   1.761  1.00  0.00    -0.340 N 
HETATM    2  H   UNL     1      43.739 -13.896   1.684  1.00  0.00     0.167 HD
ENDROOT
BRANCH   1   3
HETATM    3  C   UNL     1      41.751 -13.906   1.226  1.00  0.00     0.036 A 
HETATM    4  C   UNL     1      41.312 -12.613   1.536  1.00  0.00     0.032 A 
HETATM    5  C   UNL     1      40.155 -12.082   0.955  1.00  0.00     0.042 A 
HETATM    6  C   UNL     1      39.444 -12.820   0.014  1.00  0.00     0.102 A 
HETATM    7  C   UNL     1      39.871 -14.104  -0.319  1.00  0.00     0.104 A 
HETATM    8  O   UNL     1      38.289 -12.265  -0.464  1.00  0.00    -0.348 OA
HETATM    9  C   UNL     1      41.004 -14.646   0.295  1.00  0.00     0.069 A 
HETATM   10  O   UNL     1      39.183 -14.924  -1.172  1.00  0.00    -0.348 OA
HETATM   11  C   UNL     1      39.110 -14.385  -2.492  1.00  0.00     0.178 C 
HETATM   12  C   UNL     1      37.997 -13.358  -2.631  1.00  0.00     0.053 C 
HETATM   13  C   UNL     1      38.331 -12.079  -1.879  1.00  0.00     0.178 C 
ENDBRANCH   1   3
BRANCH   1  14
HETATM   14  C   UNL     1      43.146 -15.691   2.424  1.00  0.00     0.143 A 
HETATM   15  N   UNL     1      43.276 -16.849   1.731  1.00  0.00    -0.223 NA
HETATM   16  C   UNL     1      43.440 -18.004   2.393  1.00  0.00     0.236 A 
HETATM   17  N   UNL     1      43.495 -18.186   3.713  1.00  0.00    -0.234 NA
HETATM   18  C   UNL     1      43.370 -17.031   4.387  1.00  0.00     0.114 A 
HETATM   19  C   UNL     1      43.199 -15.760   3.834  1.00  0.00     0.053 A 
HETATM   20  S   UNL     1      43.407 -17.028   6.108  1.00  0.00    -0.073 SA
HETATM   21  C   UNL     1      43.123 -14.800   4.887  1.00  0.00    -0.028 A 
HETATM   22  C   UNL     1      43.216 -15.371   6.127  1.00  0.00    -0.008 A 
HETATM   23  C   UNL     1      42.974 -13.326   4.999  1.00  0.00     0.041 C 
HETATM   24  C   UNL     1      43.140 -14.407   7.250  1.00  0.00     0.047 C 
HETATM   25  C   UNL     1      43.341 -13.062   6.492  1.00  0.00     0.010 C 
ENDBRANCH   1  14
TORSDOF 2
ENDMDL
