MODEL 1
REMARK VINA RESULT:      -9.2      0.000      0.000
REMARK  3 active torsions:
REMARK  status: ('A' for Active; 'I' for Inactive)
REMARK    1  A    between atoms: C_9  and  C_10 
REMARK       I    between atoms: C_10  and  N_11 
REMARK    2  A    between atoms: N_11  and  C_12 
REMARK    3  A    between atoms: C_20  and  N_21 
ROOT
HETATM    1  C   UNL     1      41.015 -15.044   2.037  1.00  0.00     0.258 C 
HETATM    2  N   UNL     1      42.326 -14.971   2.467  1.00  0.00    -0.305 N 
HETATM    3  O   UNL     1      40.096 -15.669   2.550  1.00  0.00    -0.267 OA
HETATM    4  H   UNL     1      43.017 -14.519   1.892  1.00  0.00     0.170 HD
ENDROOT
BRANCH   2   5
HETATM    5  C   UNL     1      42.808 -15.540   3.634  1.00  0.00     0.163 A 
HETATM    6  N   UNL     1      42.994 -14.889   4.781  1.00  0.00    -0.155 NA
HETATM    7  N   UNL     1      43.470 -15.810   5.626  1.00  0.00    -0.275 N 
HETATM    8  H   UNL     1      43.676 -15.522   6.577  1.00  0.00     0.189 HD
HETATM    9  C   UNL     1      43.626 -17.050   5.071  1.00  0.00     0.064 A 
HETATM   10  C   UNL     1      43.195 -16.910   3.755  1.00  0.00     0.042 A 
HETATM   11  C   UNL     1      44.101 -18.252   5.607  1.00  0.00     0.034 A 
HETATM   12  C   UNL     1      43.235 -18.032   2.903  1.00  0.00     0.053 A 
HETATM   13  C   UNL     1      43.716 -19.250   3.424  1.00  0.00     0.103 A 
HETATM   14  C   UNL     1      44.141 -19.360   4.755  1.00  0.00     0.038 A 
BRANCH  13  15
HETATM   15  N   UNL     1      43.774 -20.426   2.545  1.00  0.00    -0.116 N 
HETATM   16  O   UNL     1      43.536 -20.261   1.341  1.00  0.00    -0.532 OA
HETATM   17  O   UNL     1      44.056 -21.516   3.065  1.00  0.00    -0.532 OA
ENDBRANCH  13  15
ENDBRANCH   2   5
BRANCH   1  18
HETATM   18  C   UNL     1      40.711 -14.294   0.789  1.00  0.00     0.051 A 
HETATM   19  C   UNL     1      41.225 -13.002   0.655  1.00  0.00     0.136 A 
HETATM   20  N   UNL     1      41.050 -12.180  -0.411  1.00  0.00    -0.233 NA
HETATM   21  C   UNL     1      40.321 -12.745  -1.393  1.00  0.00     0.206 A 
HETATM   22  O   UNL     1      40.011 -12.129  -2.567  1.00  0.00    -0.192 OA
HETATM   23  C   UNL     1      39.768 -14.019  -1.396  1.00  0.00     0.047 A 
HETATM   24  N   UNL     1      39.255 -12.981  -3.360  1.00  0.00    -0.130 NA
HETATM   25  C   UNL     1      39.120 -14.110  -2.652  1.00  0.00     0.073 A 
HETATM   26  C   UNL     1      38.355 -15.250  -3.208  1.00  0.00     0.074 C 
HETATM   27  C   UNL     1      39.970 -14.836  -0.270  1.00  0.00     0.036 A 
ENDBRANCH   1  18
TORSDOF 3
ENDMDL
MODEL 2
REMARK VINA RESULT:      -8.9      1.927      7.685
REMARK  3 active torsions:
REMARK  status: ('A' for Active; 'I' for Inactive)
REMARK    1  A    between atoms: C_9  and  C_10 
REMARK       I    between atoms: C_10  and  N_11 
REMARK    2  A    between atoms: N_11  and  C_12 
REMARK    3  A    between atoms: C_20  and  N_21 
ROOT
HETATM    1  C   UNL     1      42.362 -14.967   2.997  1.00  0.00     0.258 C 
HETATM    2  N   UNL     1      40.988 -14.942   2.852  1.00  0.00    -0.305 N 
HETATM    3  O   UNL     1      43.155 -14.070   2.739  1.00  0.00    -0.267 OA
HETATM    4  H   UNL     1      40.455 -15.784   2.986  1.00  0.00     0.170 HD
ENDROOT
BRANCH   2   5
HETATM    5  C   UNL     1      40.254 -13.834   2.463  1.00  0.00     0.163 A 
HETATM    6  N   UNL     1      39.768 -12.909   3.290  1.00  0.00    -0.155 NA
HETATM    7  N   UNL     1      39.133 -12.039   2.499  1.00  0.00    -0.275 N 
HETATM    8  H   UNL     1      38.688 -11.237   2.934  1.00  0.00     0.189 HD
HETATM    9  C   UNL     1      39.163 -12.365   1.171  1.00  0.00     0.064 A 
HETATM   10  C   UNL     1      39.899 -13.545   1.109  1.00  0.00     0.042 A 
HETATM   11  C   UNL     1      38.615 -11.734   0.049  1.00  0.00     0.034 A 
HETATM   12  C   UNL     1      40.111 -14.149  -0.147  1.00  0.00     0.053 A 
HETATM   13  C   UNL     1      39.561 -13.531  -1.287  1.00  0.00     0.103 A 
HETATM   14  C   UNL     1      38.826 -12.342  -1.193  1.00  0.00     0.038 A 
BRANCH  13  15
HETATM   15  N   UNL     1      39.764 -14.155  -2.602  1.00  0.00    -0.116 N 
HETATM   16  O   UNL     1      38.960 -15.028  -2.958  1.00  0.00    -0.532 OA
HETATM   17  O   UNL     1      40.731 -13.771  -3.276  1.00  0.00    -0.532 OA
ENDBRANCH  13  15
ENDBRANCH   2   5
BRANCH   1  18
HETATM   18  C   UNL     1      42.926 -16.249   3.497  1.00  0.00     0.051 A 
HETATM   19  C   UNL     1      43.388 -16.296   4.814  1.00  0.00     0.136 A 
HETATM   20  N   UNL     1      43.928 -17.378   5.432  1.00  0.00    -0.233 NA
HETATM   21  C   UNL     1      43.966 -18.467   4.641  1.00  0.00     0.206 A 
HETATM   22  O   UNL     1      44.454 -19.678   5.030  1.00  0.00    -0.192 OA
HETATM   23  C   UNL     1      43.527 -18.562   3.328  1.00  0.00     0.047 A 
HETATM   24  N   UNL     1      44.345 -20.586   3.986  1.00  0.00    -0.130 NA
HETATM   25  C   UNL     1      43.785 -19.909   2.974  1.00  0.00     0.073 A 
HETATM   26  C   UNL     1      43.521 -20.584   1.682  1.00  0.00     0.074 C 
HETATM   27  C   UNL     1      42.978 -17.417   2.723  1.00  0.00     0.036 A 
ENDBRANCH   1  18
TORSDOF 3
ENDMDL
MODEL 3
REMARK VINA RESULT:      -8.8      0.995      1.812
REMARK  3 active torsions:
REMARK  status: ('A' for Active; 'I' for Inactive)
REMARK    1  A    between atoms: C_9  and  C_10 
REMARK       I    between atoms: C_10  and  N_11 
REMARK    2  A    between atoms: N_11  and  C_12 
REMARK    3  A    between atoms: C_20  and  N_21 
ROOT
HETATM    1  C   UNL     1      40.891 -14.850   1.844  1.00  0.00     0.258 C 
HETATM    2  N   UNL     1      42.236 -14.971   2.137  1.00  0.00    -0.305 N 
HETATM    3  O   UNL     1      39.943 -15.218   2.526  1.00  0.00    -0.267 OA
HETATM    4  H   UNL     1      42.923 -14.737   1.440  1.00  0.00     0.170 HD
ENDROOT
BRANCH   2   5
HETATM    5  C   UNL     1      42.745 -15.462   3.327  1.00  0.00     0.163 A 
HETATM    6  N   UNL     1      42.940 -14.742   4.430  1.00  0.00    -0.155 NA
HETATM    7  N   UNL     1      43.442 -15.605   5.320  1.00  0.00    -0.275 N 
HETATM    8  H   UNL     1      43.660 -15.258   6.248  1.00  0.00     0.189 HD
HETATM    9  C   UNL     1      43.605 -16.874   4.838  1.00  0.00     0.064 A 
HETATM   10  C   UNL     1      43.152 -16.818   3.523  1.00  0.00     0.042 A 
HETATM   11  C   UNL     1      44.105 -18.035   5.437  1.00  0.00     0.034 A 
HETATM   12  C   UNL     1      43.193 -17.989   2.739  1.00  0.00     0.053 A 
HETATM   13  C   UNL     1      43.698 -19.167   3.324  1.00  0.00     0.103 A 
HETATM   14  C   UNL     1      44.146 -19.192   4.651  1.00  0.00     0.038 A 
BRANCH  13  15
HETATM   15  N   UNL     1      43.758 -20.393   2.516  1.00  0.00    -0.116 N 
HETATM   16  O   UNL     1      43.519 -20.300   1.304  1.00  0.00    -0.532 OA
HETATM   17  O   UNL     1      44.041 -21.450   3.099  1.00  0.00    -0.532 OA
ENDBRANCH  13  15
ENDBRANCH   2   5
BRANCH   1  18
HETATM   18  C   UNL     1      40.579 -14.226   0.530  1.00  0.00     0.051 A 
HETATM   19  C   UNL     1      39.771 -14.934  -0.362  1.00  0.00     0.136 A 
HETATM   20  N   UNL     1      39.386 -14.517  -1.594  1.00  0.00    -0.233 NA
HETATM   21  C   UNL     1      39.851 -13.290  -1.900  1.00  0.00     0.206 A 
HETATM   22  O   UNL     1      39.599 -12.648  -3.075  1.00  0.00    -0.192 OA
HETATM   23  C   UNL     1      40.644 -12.476  -1.104  1.00  0.00     0.047 A 
HETATM   24  N   UNL     1      40.218 -11.405  -3.072  1.00  0.00    -0.130 NA
HETATM   25  C   UNL     1      40.836 -11.310  -1.887  1.00  0.00     0.073 A 
HETATM   26  C   UNL     1      41.608 -10.094  -1.546  1.00  0.00     0.074 C 
HETATM   27  C   UNL     1      41.024 -12.948   0.164  1.00  0.00     0.036 A 
ENDBRANCH   1  18
TORSDOF 3
ENDMDL
MODEL 4
REMARK VINA RESULT:      -8.4      1.396      1.586
REMARK  3 active torsions:
REMARK  status: ('A' for Active; 'I' for Inactive)
REMARK    1  A    between atoms: C_9  and  C_10 
REMARK       I    between atoms: C_10  and  N_11 
REMARK    2  A    between atoms: N_11  and  C_12 
REMARK    3  A    between atoms: C_20  and  N_21 
ROOT
HETATM    1  C   UNL     1      40.585 -14.673   2.436  1.00  0.00     0.258 C 
HETATM    2  N   UNL     1      41.524 -14.131   3.292  1.00  0.00    -0.305 N 
HETATM    3  O   UNL     1      39.842 -15.622   2.649  1.00  0.00    -0.267 OA
HETATM    4  H   UNL     1      42.159 -13.426   2.958  1.00  0.00     0.170 HD
ENDROOT
BRANCH   2   5
HETATM    5  C   UNL     1      41.722 -14.530   4.604  1.00  0.00     0.163 A 
HETATM    6  N   UNL     1      41.363 -13.830   5.678  1.00  0.00    -0.155 NA
HETATM    7  N   UNL     1      41.743 -14.577   6.719  1.00  0.00    -0.275 N 
HETATM    8  H   UNL     1      41.554 -14.225   7.652  1.00  0.00     0.189 HD
HETATM    9  C   UNL     1      42.363 -15.746   6.372  1.00  0.00     0.064 A 
HETATM   10  C   UNL     1      42.363 -15.751   4.980  1.00  0.00     0.042 A 
HETATM   11  C   UNL     1      42.909 -16.772   7.151  1.00  0.00     0.034 A 
HETATM   12  C   UNL     1      42.945 -16.842   4.304  1.00  0.00     0.053 A 
HETATM   13  C   UNL     1      43.505 -17.882   5.072  1.00  0.00     0.103 A 
HETATM   14  C   UNL     1      43.488 -17.850   6.472  1.00  0.00     0.038 A 
BRANCH  13  15
HETATM   15  N   UNL     1      44.126 -19.021   4.381  1.00  0.00    -0.116 N 
HETATM   16  O   UNL     1      44.167 -18.995   3.143  1.00  0.00    -0.532 OA
HETATM   17  O   UNL     1      44.568 -19.944   5.081  1.00  0.00    -0.532 OA
ENDBRANCH  13  15
ENDBRANCH   2   5
BRANCH   1  18
HETATM   18  C   UNL     1      40.503 -14.035   1.095  1.00  0.00     0.051 A 
HETATM   19  C   UNL     1      41.139 -12.805   0.910  1.00  0.00     0.136 A 
HETATM   20  N   UNL     1      41.168 -12.087  -0.241  1.00  0.00    -0.233 NA
HETATM   21  C   UNL     1      40.519 -12.694  -1.254  1.00  0.00     0.206 A 
HETATM   22  O   UNL     1      40.411 -12.181  -2.510  1.00  0.00    -0.192 OA
HETATM   23  C   UNL     1      39.864 -13.917  -1.211  1.00  0.00     0.047 A 
HETATM   24  N   UNL     1      39.688 -13.052  -3.313  1.00  0.00    -0.130 NA
HETATM   25  C   UNL     1      39.370 -14.090  -2.528  1.00  0.00     0.073 A 
HETATM   26  C   UNL     1      38.584 -15.222  -3.071  1.00  0.00     0.074 C 
HETATM   27  C   UNL     1      39.854 -14.628   0.003  1.00  0.00     0.036 A 
ENDBRANCH   1  18
TORSDOF 3
ENDMDL
MODEL 5
REMARK VINA RESULT:      -8.4      2.049      3.342
REMARK  3 active torsions:
REMARK  status: ('A' for Active; 'I' for Inactive)
REMARK    1  A    between atoms: C_9  and  C_10 
REMARK       I    between atoms: C_10  and  N_11 
REMARK    2  A    between atoms: N_11  and  C_12 
REMARK    3  A    between atoms: C_20  and  N_21 
ROOT
HETATM    1  C   UNL     1      40.952 -15.609   1.638  1.00  0.00     0.258 C 
HETATM    2  N   UNL     1      42.255 -16.067   1.591  1.00  0.00    -0.305 N 
HETATM    3  O   UNL     1      40.058 -15.979   2.388  1.00  0.00    -0.267 OA
HETATM    4  H   UNL     1      42.865 -15.768   0.849  1.00  0.00     0.170 HD
ENDROOT
BRANCH   2   5
HETATM    5  C   UNL     1      42.802 -16.984   2.471  1.00  0.00     0.163 A 
HETATM    6  N   UNL     1      43.040 -18.265   2.192  1.00  0.00    -0.155 NA
HETATM    7  N   UNL     1      43.560 -18.772   3.314  1.00  0.00    -0.275 N 
HETATM    8  H   UNL     1      43.824 -19.752   3.316  1.00  0.00     0.189 HD
HETATM    9  C   UNL     1      43.658 -17.873   4.340  1.00  0.00     0.064 A 
HETATM   10  C   UNL     1      43.169 -16.679   3.819  1.00  0.00     0.042 A 
HETATM   11  C   UNL     1      44.124 -18.013   5.653  1.00  0.00     0.034 A 
HETATM   12  C   UNL     1      43.134 -15.539   4.646  1.00  0.00     0.053 A 
HETATM   13  C   UNL     1      43.594 -15.662   5.972  1.00  0.00     0.103 A 
HETATM   14  C   UNL     1      44.082 -16.877   6.469  1.00  0.00     0.038 A 
BRANCH  13  15
HETATM   15  N   UNL     1      43.553 -14.485   6.851  1.00  0.00    -0.116 N 
HETATM   16  O   UNL     1      43.853 -13.387   6.362  1.00  0.00    -0.532 OA
HETATM   17  O   UNL     1      43.224 -14.663   8.033  1.00  0.00    -0.532 OA
ENDBRANCH  13  15
ENDBRANCH   2   5
BRANCH   1  18
HETATM   18  C   UNL     1      40.607 -14.567   0.634  1.00  0.00     0.051 A 
HETATM   19  C   UNL     1      41.096 -13.274   0.830  1.00  0.00     0.136 A 
HETATM   20  N   UNL     1      40.882 -12.208   0.018  1.00  0.00    -0.233 NA
HETATM   21  C   UNL     1      40.140 -12.514  -1.064  1.00  0.00     0.206 A 
HETATM   22  O   UNL     1      39.793 -11.621  -2.032  1.00  0.00    -0.192 OA
HETATM   23  C   UNL     1      39.609 -13.756  -1.387  1.00  0.00     0.047 A 
HETATM   24  N   UNL     1      39.033 -12.255  -3.005  1.00  0.00    -0.130 NA
HETATM   25  C   UNL     1      38.933 -13.532  -2.613  1.00  0.00     0.073 A 
HETATM   26  C   UNL     1      38.175 -14.506  -3.431  1.00  0.00     0.074 C 
HETATM   27  C   UNL     1      39.850 -14.833  -0.517  1.00  0.00     0.036 A 
ENDBRANCH   1  18
TORSDOF 3
ENDMDL
MODEL 6
REMARK VINA RESULT:      -8.1      5.178      7.737
REMARK  3 active torsions:
REMARK  status: ('A' for Active; 'I' for Inactive)
REMARK    1  A    between atoms: C_9  and  C_10 
REMARK       I    between atoms: C_10  and  N_11 
REMARK    2  A    between atoms: N_11  and  C_12 
REMARK    3  A    between atoms: C_20  and  N_21 
ROOT
HETATM    1  C   UNL     1      43.477 -11.713   4.857  1.00  0.00     0.258 C 
HETATM    2  N   UNL     1      42.696 -12.831   4.641  1.00  0.00    -0.305 N 
HETATM    3  O   UNL     1      44.406 -11.307   4.170  1.00  0.00    -0.267 OA
HETATM    4  H   UNL     1      42.038 -13.127   5.343  1.00  0.00     0.170 HD
ENDROOT
BRANCH   2   5
HETATM    5  C   UNL     1      42.782 -13.653   3.529  1.00  0.00     0.163 A 
HETATM    6  N   UNL     1      42.616 -13.254   2.269  1.00  0.00    -0.155 NA
HETATM    7  N   UNL     1      42.778 -14.359   1.534  1.00  0.00    -0.275 N 
HETATM    8  H   UNL     1      42.699 -14.275   0.526  1.00  0.00     0.189 HD
HETATM    9  C   UNL     1      43.029 -15.486   2.267  1.00  0.00     0.064 A 
HETATM   10  C   UNL     1      43.041 -15.057   3.591  1.00  0.00     0.042 A 
HETATM   11  C   UNL     1      43.238 -16.814   1.881  1.00  0.00     0.034 A 
HETATM   12  C   UNL     1      43.275 -16.002   4.610  1.00  0.00     0.053 A 
HETATM   13  C   UNL     1      43.482 -17.345   4.240  1.00  0.00     0.103 A 
HETATM   14  C   UNL     1      43.465 -17.747   2.898  1.00  0.00     0.038 A 
BRANCH  13  15
HETATM   15  N   UNL     1      43.716 -18.345   5.292  1.00  0.00    -0.116 N 
HETATM   16  O   UNL     1      44.363 -19.358   4.994  1.00  0.00    -0.532 OA
HETATM   17  O   UNL     1      43.246 -18.114   6.416  1.00  0.00    -0.532 OA
ENDBRANCH  13  15
ENDBRANCH   2   5
BRANCH   1  18
HETATM   18  C   UNL     1      43.157 -10.941   6.087  1.00  0.00     0.051 A 
HETATM   19  C   UNL     1      41.904 -10.330   6.176  1.00  0.00     0.136 A 
HETATM   20  N   UNL     1      41.446  -9.594   7.220  1.00  0.00    -0.233 NA
HETATM   21  C   UNL     1      42.334  -9.511   8.230  1.00  0.00     0.206 A 
HETATM   22  O   UNL     1      42.110  -8.835   9.391  1.00  0.00    -0.192 OA
HETATM   23  C   UNL     1      43.599 -10.080   8.279  1.00  0.00     0.047 A 
HETATM   24  N   UNL     1      43.217  -8.948  10.221  1.00  0.00    -0.130 NA
HETATM   25  C   UNL     1      44.100  -9.699   9.548  1.00  0.00     0.073 A 
HETATM   26  C   UNL     1      45.414 -10.020  10.150  1.00  0.00     0.074 C 
HETATM   27  C   UNL     1      44.036 -10.832   7.174  1.00  0.00     0.036 A 
ENDBRANCH   1  18
TORSDOF 3
ENDMDL
MODEL 7
REMARK VINA RESULT:      -8.1      2.109      7.647
REMARK  3 active torsions:
REMARK  status: ('A' for Active; 'I' for Inactive)
REMARK    1  A    between atoms: C_9  and  C_10 
REMARK       I    between atoms: C_10  and  N_11 
REMARK    2  A    between atoms: N_11  and  C_12 
REMARK    3  A    between atoms: C_20  and  N_21 
ROOT
HETATM    1  C   UNL     1      42.580 -15.000   4.443  1.00  0.00     0.258 C 
HETATM    2  N   UNL     1      43.206 -14.310   3.422  1.00  0.00    -0.305 N 
HETATM    3  O   UNL     1      41.721 -14.581   5.208  1.00  0.00    -0.267 OA
HETATM    4  H   UNL     1      43.983 -14.727   2.938  1.00  0.00     0.170 HD
ENDROOT
BRANCH   2   5
HETATM    5  C   UNL     1      42.890 -13.020   3.029  1.00  0.00     0.163 A 
HETATM    6  N   UNL     1      43.296 -11.912   3.645  1.00  0.00    -0.155 NA
HETATM    7  N   UNL     1      42.761 -10.910   2.941  1.00  0.00    -0.275 N 
HETATM    8  H   UNL     1      42.955  -9.960   3.241  1.00  0.00     0.189 HD
HETATM    9  C   UNL     1      41.993 -11.317   1.885  1.00  0.00     0.064 A 
HETATM   10  C   UNL     1      42.058 -12.707   1.910  1.00  0.00     0.042 A 
HETATM   11  C   UNL     1      41.264 -10.592   0.936  1.00  0.00     0.034 A 
HETATM   12  C   UNL     1      41.354 -13.439   0.933  1.00  0.00     0.053 A 
HETATM   13  C   UNL     1      40.610 -12.726  -0.028  1.00  0.00     0.103 A 
HETATM   14  C   UNL     1      40.565 -11.326  -0.029  1.00  0.00     0.038 A 
BRANCH  13  15
HETATM   15  N   UNL     1      39.862 -13.475  -1.047  1.00  0.00    -0.116 N 
HETATM   16  O   UNL     1      39.659 -12.924  -2.138  1.00  0.00    -0.532 OA
HETATM   17  O   UNL     1      39.475 -14.616  -0.751  1.00  0.00    -0.532 OA
ENDBRANCH  13  15
ENDBRANCH   2   5
BRANCH   1  18
HETATM   18  C   UNL     1      43.038 -16.401   4.638  1.00  0.00     0.051 A 
HETATM   19  C   UNL     1      43.380 -16.810   5.929  1.00  0.00     0.136 A 
HETATM   20  N   UNL     1      43.812 -18.045   6.287  1.00  0.00    -0.233 NA
HETATM   21  C   UNL     1      43.869 -18.901   5.249  1.00  0.00     0.206 A 
HETATM   22  O   UNL     1      44.265 -20.201   5.349  1.00  0.00    -0.192 OA
HETATM   23  C   UNL     1      43.543 -18.632   3.926  1.00  0.00     0.047 A 
HETATM   24  N   UNL     1      44.205 -20.807   4.102  1.00  0.00    -0.130 NA
HETATM   25  C   UNL     1      43.768 -19.862   3.259  1.00  0.00     0.073 A 
HETATM   26  C   UNL     1      43.588 -20.171   1.822  1.00  0.00     0.074 C 
HETATM   27  C   UNL     1      43.103 -17.338   3.597  1.00  0.00     0.036 A 
ENDBRANCH   1  18
TORSDOF 3
ENDMDL
MODEL 8
REMARK VINA RESULT:      -8.0      3.358      8.205
REMARK  3 active torsions:
REMARK  status: ('A' for Active; 'I' for Inactive)
REMARK    1  A    between atoms: C_9  and  C_10 
REMARK       I    between atoms: C_10  and  N_11 
REMARK    2  A    between atoms: N_11  and  C_12 
REMARK    3  A    between atoms: C_20  and  N_21 
ROOT
HETATM    1  C   UNL     1      42.395 -14.761   2.587  1.00  0.00     0.258 C 
HETATM    2  N   UNL     1      41.033 -14.554   2.698  1.00  0.00    -0.305 N 
HETATM    3  O   UNL     1      43.212 -14.055   2.010  1.00  0.00    -0.267 OA
HETATM    4  H   UNL     1      40.449 -15.269   3.097  1.00  0.00     0.170 HD
ENDROOT
BRANCH   2   5
HETATM    5  C   UNL     1      40.363 -13.434   2.235  1.00  0.00     0.163 A 
HETATM    6  N   UNL     1      40.178 -13.130   0.951  1.00  0.00    -0.155 NA
HETATM    7  N   UNL     1      39.497 -11.980   0.965  1.00  0.00    -0.275 N 
HETATM    8  H   UNL     1      39.241 -11.568   0.073  1.00  0.00     0.189 HD
HETATM    9  C   UNL     1      39.239 -11.498   2.218  1.00  0.00     0.064 A 
HETATM   10  C   UNL     1      39.794 -12.435   3.084  1.00  0.00     0.042 A 
HETATM   11  C   UNL     1      38.580 -10.341   2.648  1.00  0.00     0.034 A 
HETATM   12  C   UNL     1      39.697 -12.220   4.473  1.00  0.00     0.053 A 
HETATM   13  C   UNL     1      39.042 -11.057   4.925  1.00  0.00     0.103 A 
HETATM   14  C   UNL     1      38.491 -10.132   4.029  1.00  0.00     0.038 A 
BRANCH  13  15
HETATM   15  N   UNL     1      38.942 -10.813   6.370  1.00  0.00    -0.116 N 
HETATM   16  O   UNL     1      39.080 -11.780   7.132  1.00  0.00    -0.532 OA
HETATM   17  O   UNL     1      38.721  -9.651   6.741  1.00  0.00    -0.532 OA
ENDBRANCH  13  15
ENDBRANCH   2   5
BRANCH   1  18
HETATM   18  C   UNL     1      42.904 -16.005   3.224  1.00  0.00     0.051 A 
HETATM   19  C   UNL     1      43.258 -15.957   4.574  1.00  0.00     0.136 A 
HETATM   20  N   UNL     1      43.735 -16.992   5.311  1.00  0.00    -0.233 NA
HETATM   21  C   UNL     1      43.825 -18.138   4.608  1.00  0.00     0.206 A 
HETATM   22  O   UNL     1      44.269 -19.318   5.123  1.00  0.00    -0.192 OA
HETATM   23  C   UNL     1      43.492 -18.327   3.274  1.00  0.00     0.047 A 
HETATM   24  N   UNL     1      44.234 -20.300   4.142  1.00  0.00    -0.130 NA
HETATM   25  C   UNL     1      43.764 -19.698   3.042  1.00  0.00     0.073 A 
HETATM   26  C   UNL     1      43.598 -20.465   1.786  1.00  0.00     0.074 C 
HETATM   27  C   UNL     1      43.005 -17.228   2.545  1.00  0.00     0.036 A 
ENDBRANCH   1  18
TORSDOF 3
ENDMDL
MODEL 9
REMARK VINA RESULT:      -8.0      2.043      8.058
REMARK  3 active torsions:
REMARK  status: ('A' for Active; 'I' for Inactive)
REMARK    1  A    between atoms: C_9  and  C_10 
REMARK       I    between atoms: C_10  and  N_11 
REMARK    2  A    between atoms: N_11  and  C_12 
REMARK    3  A    between atoms: C_20  and  N_21 
ROOT
HETATM    1  C   UNL     1      41.964 -14.752   2.378  1.00  0.00     0.258 C 
HETATM    2  N   UNL     1      40.585 -14.672   2.411  1.00  0.00    -0.305 N 
HETATM    3  O   UNL     1      42.750 -13.909   1.966  1.00  0.00    -0.267 OA
HETATM    4  H   UNL     1      40.042 -15.480   2.664  1.00  0.00     0.170 HD
ENDROOT
BRANCH   2   5
HETATM    5  C   UNL     1      39.849 -13.555   2.053  1.00  0.00     0.163 A 
HETATM    6  N   UNL     1      39.273 -12.712   2.908  1.00  0.00    -0.155 NA
HETATM    7  N   UNL     1      38.674 -11.797   2.140  1.00  0.00    -0.275 N 
HETATM    8  H   UNL     1      38.173 -11.044   2.599  1.00  0.00     0.189 HD
HETATM    9  C   UNL     1      38.817 -12.015   0.797  1.00  0.00     0.064 A 
HETATM   10  C   UNL     1      39.591 -13.167   0.701  1.00  0.00     0.042 A 
HETATM   11  C   UNL     1      38.337 -11.309  -0.312  1.00  0.00     0.034 A 
HETATM   12  C   UNL     1      39.917 -13.663  -0.577  1.00  0.00     0.053 A 
HETATM   13  C   UNL     1      39.438 -12.969  -1.705  1.00  0.00     0.103 A 
HETATM   14  C   UNL     1      38.662 -11.810  -1.577  1.00  0.00     0.038 A 
BRANCH  13  15
HETATM   15  N   UNL     1      39.760 -13.481  -3.045  1.00  0.00    -0.116 N 
HETATM   16  O   UNL     1      38.843 -13.986  -3.707  1.00  0.00    -0.532 OA
HETATM   17  O   UNL     1      40.934 -13.379  -3.430  1.00  0.00    -0.532 OA
ENDBRANCH  13  15
ENDBRANCH   2   5
BRANCH   1  18
HETATM   18  C   UNL     1      42.539 -16.029   2.880  1.00  0.00     0.051 A 
HETATM   19  C   UNL     1      42.975 -16.968   1.943  1.00  0.00     0.136 A 
HETATM   20  N   UNL     1      43.525 -18.178   2.222  1.00  0.00    -0.233 NA
HETATM   21  C   UNL     1      43.645 -18.406   3.544  1.00  0.00     0.206 A 
HETATM   22  O   UNL     1      44.171 -19.542   4.080  1.00  0.00    -0.192 OA
HETATM   23  C   UNL     1      43.270 -17.555   4.575  1.00  0.00     0.047 A 
HETATM   24  N   UNL     1      44.154 -19.460   5.465  1.00  0.00    -0.130 NA
HETATM   25  C   UNL     1      43.617 -18.266   5.751  1.00  0.00     0.073 A 
HETATM   26  C   UNL     1      43.445 -17.845   7.160  1.00  0.00     0.074 C 
HETATM   27  C   UNL     1      42.700 -16.314   4.243  1.00  0.00     0.036 A 
ENDBRANCH   1  18
TORSDOF 3
ENDMDL
MODEL 10
REMARK VINA RESULT:      -7.8      5.941      8.056
REMARK  3 active torsions:
REMARK  status: ('A' for Active; 'I' for Inactive)
REMARK    1  A    between atoms: C_9  and  C_10 
REMARK       I    between atoms: C_10  and  N_11 
REMARK    2  A    between atoms: N_11  and  C_12 
REMARK    3  A    between atoms: C_20  and  N_21 
ROOT
HETATM    1  C   UNL     1      43.224 -11.754   4.880  1.00  0.00     0.258 C 
HETATM    2  N   UNL     1      43.936 -12.235   5.962  1.00  0.00    -0.305 N 
HETATM    3  O   UNL     1      43.224 -10.614   4.435  1.00  0.00    -0.267 OA
HETATM    4  H   UNL     1      43.761 -13.165   6.305  1.00  0.00     0.170 HD
ENDROOT
BRANCH   2   5
HETATM    5  C   UNL     1      44.864 -11.505   6.686  1.00  0.00     0.163 A 
HETATM    6  N   UNL     1      46.133 -11.315   6.330  1.00  0.00    -0.155 NA
HETATM    7  N   UNL     1      46.656 -10.566   7.307  1.00  0.00    -0.275 N 
HETATM    8  H   UNL     1      47.631 -10.295   7.229  1.00  0.00     0.189 HD
HETATM    9  C   UNL     1      45.779 -10.268   8.313  1.00  0.00     0.064 A 
HETATM   10  C   UNL     1      44.582 -10.869   7.934  1.00  0.00     0.042 A 
HETATM   11  C   UNL     1      45.939  -9.537   9.495  1.00  0.00     0.034 A 
HETATM   12  C   UNL     1      43.462 -10.745   8.780  1.00  0.00     0.053 A 
HETATM   13  C   UNL     1      43.605 -10.017   9.978  1.00  0.00     0.103 A 
HETATM   14  C   UNL     1      44.823  -9.422  10.331  1.00  0.00     0.038 A 
BRANCH  13  15
HETATM   15  N   UNL     1      42.449  -9.889  10.875  1.00  0.00    -0.116 N 
HETATM   16  O   UNL     1      42.587 -10.251  12.052  1.00  0.00    -0.532 OA
HETATM   17  O   UNL     1      41.402  -9.428  10.398  1.00  0.00    -0.532 OA
ENDBRANCH  13  15
ENDBRANCH   2   5
BRANCH   1  18
HETATM   18  C   UNL     1      42.337 -12.743   4.211  1.00  0.00     0.051 A 
HETATM   19  C   UNL     1      40.967 -12.475   4.164  1.00  0.00     0.136 A 
HETATM   20  N   UNL     1      40.019 -13.261   3.594  1.00  0.00    -0.233 NA
HETATM   21  C   UNL     1      40.531 -14.372   3.028  1.00  0.00     0.206 A 
HETATM   22  O   UNL     1      39.787 -15.316   2.388  1.00  0.00    -0.192 OA
HETATM   23  C   UNL     1      41.866 -14.749   2.989  1.00  0.00     0.047 A 
HETATM   24  N   UNL     1      40.615 -16.326   1.917  1.00  0.00    -0.130 NA
HETATM   25  C   UNL     1      41.857 -15.975   2.278  1.00  0.00     0.073 A 
HETATM   26  C   UNL     1      43.006 -16.842   1.932  1.00  0.00     0.074 C 
HETATM   27  C   UNL     1      42.816 -13.908   3.595  1.00  0.00     0.036 A 
ENDBRANCH   1  18
TORSDOF 3
ENDMDL
