MODEL 1
REMARK VINA RESULT:     -10.5      0.000      0.000
REMARK  7 active torsions:
REMARK  status: ('A' for Active; 'I' for Inactive)
REMARK    1  A    between atoms: C_3  and  C_4 
REMARK    2  A    between atoms: N_5  and  C_6 
REMARK    3  A    between atoms: C_9  and  N_10 
REMARK       I    between atoms: N_10  and  C_11 
REMARK       I    between atoms: C_11  and  N_12 
REMARK    4  A    between atoms: N_12  and  C_13 
REMARK    5  A    between atoms: C_15  and  C_16 
REMARK    6  A    between atoms: C_32  and  C_33 
REMARK    7  A    between atoms: C_33  and  N_34 
ROOT
HETATM    1  C   UNL     1      41.429  -9.809   6.608  1.00  0.00     0.169 C 
HETATM    2  C   UNL     1      42.647 -10.590   6.139  1.00  0.00     0.179 C 
HETATM    3  C   UNL     1      42.105 -11.606   5.145  1.00  0.00     0.177 C 
HETATM    4  C   UNL     1      42.552 -12.965   5.668  1.00  0.00     0.141 C 
HETATM    5  C   UNL     1      43.593 -12.612   6.730  1.00  0.00     0.196 C 
HETATM    6  O   UNL     1      43.240 -11.311   7.233  1.00  0.00    -0.379 OA
HETATM    7  O   UNL     1      40.670 -11.497   5.161  1.00  0.00    -0.379 OA
HETATM    8  C   UNL     1      40.390 -10.140   5.541  1.00  0.00     0.198 C 
ENDROOT
BRANCH   1   9
HETATM    9  N   UNL     1      41.695  -8.409   6.807  1.00  0.00    -0.221 N 
HETATM   10  C   UNL     1      42.556  -7.772   7.679  1.00  0.00     0.182 A 
HETATM   11  N   UNL     1      42.553  -6.490   7.352  1.00  0.00    -0.108 NA
HETATM   12  N   UNL     1      41.680  -6.339   6.314  1.00  0.00    -0.023 NA
HETATM   13  N   UNL     1      41.163  -7.503   5.966  1.00  0.00    -0.043 NA
BRANCH  10  14
HETATM   14  C   UNL     1      43.416  -8.340   8.719  1.00  0.00     0.014 A 
HETATM   15  C   UNL     1      44.779  -8.597   8.548  1.00  0.00     0.015 A 
HETATM   16  C   UNL     1      45.531  -9.168   9.579  1.00  0.00     0.002 A 
HETATM   17  C   UNL     1      44.928  -9.521  10.785  1.00  0.00     0.009 A 
HETATM   18  C   UNL     1      43.554  -9.321  10.969  1.00  0.00    -0.032 A 
HETATM   19  C   UNL     1      42.817  -8.722   9.934  1.00  0.00     0.024 A 
BRANCH  18  20
HETATM   20  C   UNL     1      42.878  -9.741  12.245  1.00  0.00     0.273 C 
BRANCH  20  21
HETATM   21  N   UNL     1      42.101  -8.631  12.897  1.00  0.00    -0.067 N 
HETATM   22  H   UNL     1      41.368  -8.358  12.230  1.00  0.00     0.280 HD
HETATM   23  C   UNL     1      42.934  -7.398  13.192  1.00  0.00     0.235 C 
HETATM   24  C   UNL     1      42.886  -7.253  14.700  1.00  0.00     0.029 C 
HETATM   25  C   UNL     1      41.516  -7.790  15.057  1.00  0.00     0.029 C 
HETATM   26  C   UNL     1      41.405  -9.026  14.186  1.00  0.00     0.235 C 
ENDBRANCH  20  21
ENDBRANCH  18  20
ENDBRANCH  10  14
ENDBRANCH   1   9
BRANCH   4  27
HETATM   27  N   UNL     1      42.991 -13.891   4.629  1.00  0.00    -0.334 N 
HETATM   28  C   UNL     1      42.839 -15.257   4.766  1.00  0.00     0.321 C 
HETATM   29  N   UNL     1      43.420 -15.935   3.720  1.00  0.00    -0.309 N 
HETATM   30  O   UNL     1      42.242 -15.743   5.718  1.00  0.00    -0.247 OA
HETATM   31  H   UNL     1      43.885 -15.372   3.024  1.00  0.00     0.170 HD
HETATM   32  H   UNL     1      43.790 -13.587   4.089  1.00  0.00     0.164 HD
BRANCH  29  33
HETATM   33  C   UNL     1      43.438 -17.328   3.502  1.00  0.00     0.037 A 
HETATM   34  C   UNL     1      43.778 -18.267   4.480  1.00  0.00     0.045 A 
HETATM   35  C   UNL     1      43.754 -19.646   4.201  1.00  0.00     0.050 A 
HETATM   36  C   UNL     1      43.406 -20.075   2.913  1.00  0.00     0.016 A 
HETATM   37  C   UNL     1      43.070 -19.146   1.930  1.00  0.00     0.003 A 
HETATM   38  C   UNL     1      43.081 -17.782   2.226  1.00  0.00     0.029 A 
BRANCH  35  39
HETATM   39  C   UNL     1      44.118 -20.654   5.263  1.00  0.00     0.417 C 
HETATM   40  F   UNL     1      45.439 -20.989   5.267  1.00  0.00    -0.166 F 
HETATM   41  F   UNL     1      43.849 -20.207   6.522  1.00  0.00    -0.166 F 
HETATM   42  F   UNL     1      43.436 -21.824   5.126  1.00  0.00    -0.166 F 
ENDBRANCH  35  39
ENDBRANCH  29  33
ENDBRANCH   4  27
TORSDOF 7
ENDMDL
MODEL 2
REMARK VINA RESULT:     -10.0      4.451     10.649
REMARK  7 active torsions:
REMARK  status: ('A' for Active; 'I' for Inactive)
REMARK    1  A    between atoms: C_3  and  C_4 
REMARK    2  A    between atoms: N_5  and  C_6 
REMARK    3  A    between atoms: C_9  and  N_10 
REMARK       I    between atoms: N_10  and  C_11 
REMARK       I    between atoms: C_11  and  N_12 
REMARK    4  A    between atoms: N_12  and  C_13 
REMARK    5  A    between atoms: C_15  and  C_16 
REMARK    6  A    between atoms: C_32  and  C_33 
REMARK    7  A    between atoms: C_33  and  N_34 
ROOT
HETATM    1  C   UNL     1      41.458 -12.348   3.227  1.00  0.00     0.169 C 
HETATM    2  C   UNL     1      42.599 -12.615   4.196  1.00  0.00     0.179 C 
HETATM    3  C   UNL     1      42.081 -12.153   5.551  1.00  0.00     0.177 C 
HETATM    4  C   UNL     1      43.094 -11.129   6.045  1.00  0.00     0.141 C 
HETATM    5  C   UNL     1      44.282 -11.321   5.105  1.00  0.00     0.196 C 
HETATM    6  O   UNL     1      43.748 -11.816   3.863  1.00  0.00    -0.379 OA
HETATM    7  O   UNL     1      40.797 -11.541   5.331  1.00  0.00    -0.379 OA
HETATM    8  C   UNL     1      40.263 -12.174   4.157  1.00  0.00     0.198 C 
ENDROOT
BRANCH   1   9
HETATM    9  N   UNL     1      41.322 -13.364   2.217  1.00  0.00    -0.221 N 
HETATM   10  C   UNL     1      41.344 -14.741   2.318  1.00  0.00     0.182 A 
HETATM   11  N   UNL     1      41.007 -15.217   1.130  1.00  0.00    -0.108 NA
HETATM   12  N   UNL     1      40.811 -14.147   0.306  1.00  0.00    -0.023 NA
HETATM   13  N   UNL     1      40.987 -13.014   0.961  1.00  0.00    -0.043 NA
BRANCH  10  14
HETATM   14  C   UNL     1      41.582 -15.585   3.490  1.00  0.00     0.014 A 
HETATM   15  C   UNL     1      40.631 -15.820   4.487  1.00  0.00     0.015 A 
HETATM   16  C   UNL     1      40.941 -16.616   5.593  1.00  0.00     0.002 A 
HETATM   17  C   UNL     1      42.215 -17.163   5.739  1.00  0.00     0.009 A 
HETATM   18  C   UNL     1      43.204 -16.906   4.782  1.00  0.00    -0.032 A 
HETATM   19  C   UNL     1      42.869 -16.127   3.662  1.00  0.00     0.024 A 
BRANCH  18  20
HETATM   20  C   UNL     1      44.596 -17.448   4.948  1.00  0.00     0.273 C 
BRANCH  20  21
HETATM   21  N   UNL     1      44.818 -18.745   4.220  1.00  0.00    -0.067 N 
HETATM   22  H   UNL     1      45.835 -18.888   4.184  1.00  0.00     0.280 HD
HETATM   23  C   UNL     1      44.307 -18.735   2.792  1.00  0.00     0.235 C 
HETATM   24  C   UNL     1      43.239 -19.809   2.758  1.00  0.00     0.029 C 
HETATM   25  C   UNL     1      43.739 -20.828   3.761  1.00  0.00     0.029 C 
HETATM   26  C   UNL     1      44.222 -19.960   4.906  1.00  0.00     0.235 C 
ENDBRANCH  20  21
ENDBRANCH  18  20
ENDBRANCH  10  14
ENDBRANCH   1   9
BRANCH   4  27
HETATM   27  N   UNL     1      43.390 -11.221   7.472  1.00  0.00    -0.334 N 
HETATM   28  C   UNL     1      42.866 -10.319   8.378  1.00  0.00     0.321 C 
HETATM   29  N   UNL     1      43.365 -10.531   9.642  1.00  0.00    -0.309 N 
HETATM   30  O   UNL     1      42.057  -9.465   8.039  1.00  0.00    -0.247 OA
HETATM   31  H   UNL     1      44.038 -11.275   9.740  1.00  0.00     0.170 HD
HETATM   32  H   UNL     1      44.297 -11.603   7.702  1.00  0.00     0.164 HD
BRANCH  29  33
HETATM   33  C   UNL     1      43.039  -9.833  10.824  1.00  0.00     0.037 A 
HETATM   34  C   UNL     1      41.842 -10.003  11.526  1.00  0.00     0.045 A 
HETATM   35  C   UNL     1      41.589  -9.290  12.712  1.00  0.00     0.050 A 
HETATM   36  C   UNL     1      42.549  -8.379  13.177  1.00  0.00     0.016 A 
HETATM   37  C   UNL     1      43.743  -8.201  12.482  1.00  0.00     0.003 A 
HETATM   38  C   UNL     1      43.987  -8.928  11.316  1.00  0.00     0.029 A 
BRANCH  35  39
HETATM   39  C   UNL     1      40.297  -9.479  13.467  1.00  0.00     0.417 C 
HETATM   40  F   UNL     1      39.891 -10.779  13.536  1.00  0.00    -0.166 F 
HETATM   41  F   UNL     1      40.379  -9.052  14.759  1.00  0.00    -0.166 F 
HETATM   42  F   UNL     1      39.263  -8.793  12.909  1.00  0.00    -0.166 F 
ENDBRANCH  35  39
ENDBRANCH  29  33
ENDBRANCH   4  27
TORSDOF 7
ENDMDL
MODEL 3
REMARK VINA RESULT:      -9.9      5.184     10.746
REMARK  7 active torsions:
REMARK  status: ('A' for Active; 'I' for Inactive)
REMARK    1  A    between atoms: C_3  and  C_4 
REMARK    2  A    between atoms: N_5  and  C_6 
REMARK    3  A    between atoms: C_9  and  N_10 
REMARK       I    between atoms: N_10  and  C_11 
REMARK       I    between atoms: C_11  and  N_12 
REMARK    4  A    between atoms: N_12  and  C_13 
REMARK    5  A    between atoms: C_15  and  C_16 
REMARK    6  A    between atoms: C_32  and  C_33 
REMARK    7  A    between atoms: C_33  and  N_34 
ROOT
HETATM    1  C   UNL     1      42.516 -10.632   4.050  1.00  0.00     0.169 C 
HETATM    2  C   UNL     1      43.137 -11.448   5.173  1.00  0.00     0.179 C 
HETATM    3  C   UNL     1      42.522 -10.892   6.450  1.00  0.00     0.177 C 
HETATM    4  C   UNL     1      43.700 -10.469   7.318  1.00  0.00     0.141 C 
HETATM    5  C   UNL     1      44.900 -11.114   6.627  1.00  0.00     0.196 C 
HETATM    6  O   UNL     1      44.558 -11.232   5.234  1.00  0.00    -0.379 OA
HETATM    7  O   UNL     1      41.722  -9.755   6.079  1.00  0.00    -0.379 OA
HETATM    8  C   UNL     1      41.305 -10.001   4.727  1.00  0.00     0.198 C 
ENDROOT
BRANCH   1   9
HETATM    9  N   UNL     1      42.239 -11.409   2.871  1.00  0.00    -0.221 N 
HETATM   10  C   UNL     1      41.900 -12.740   2.730  1.00  0.00     0.182 A 
HETATM   11  N   UNL     1      41.587 -12.922   1.457  1.00  0.00    -0.108 NA
HETATM   12  N   UNL     1      41.761 -11.727   0.823  1.00  0.00    -0.023 NA
HETATM   13  N   UNL     1      42.145 -10.796   1.676  1.00  0.00    -0.043 NA
BRANCH  10  14
HETATM   14  C   UNL     1      41.785 -13.785   3.749  1.00  0.00     0.014 A 
HETATM   15  C   UNL     1      40.806 -13.796   4.746  1.00  0.00     0.015 A 
HETATM   16  C   UNL     1      40.777 -14.813   5.705  1.00  0.00     0.002 A 
HETATM   17  C   UNL     1      41.743 -15.818   5.701  1.00  0.00     0.009 A 
HETATM   18  C   UNL     1      42.765 -15.808   4.746  1.00  0.00    -0.032 A 
HETATM   19  C   UNL     1      42.765 -14.794   3.773  1.00  0.00     0.024 A 
BRANCH  18  20
HETATM   20  C   UNL     1      43.842 -16.856   4.757  1.00  0.00     0.273 C 
BRANCH  20  21
HETATM   21  N   UNL     1      43.319 -18.247   4.530  1.00  0.00    -0.067 N 
HETATM   22  H   UNL     1      42.299 -18.162   4.430  1.00  0.00     0.280 HD
HETATM   23  C   UNL     1      43.588 -19.194   5.684  1.00  0.00     0.235 C 
HETATM   24  C   UNL     1      44.468 -20.278   5.097  1.00  0.00     0.029 C 
HETATM   25  C   UNL     1      43.994 -20.369   3.661  1.00  0.00     0.029 C 
HETATM   26  C   UNL     1      43.835 -18.914   3.269  1.00  0.00     0.235 C 
ENDBRANCH  20  21
ENDBRANCH  18  20
ENDBRANCH  10  14
ENDBRANCH   1   9
BRANCH   4  27
HETATM   27  N   UNL     1      43.539 -10.778   8.736  1.00  0.00    -0.334 N 
HETATM   28  C   UNL     1      42.858  -9.930   9.587  1.00  0.00     0.321 C 
HETATM   29  N   UNL     1      42.927 -10.366  10.890  1.00  0.00    -0.309 N 
HETATM   30  O   UNL     1      42.278  -8.936   9.173  1.00  0.00    -0.247 OA
HETATM   31  H   UNL     1      43.463 -11.204  11.055  1.00  0.00     0.170 HD
HETATM   32  H   UNL     1      44.293 -11.310   9.150  1.00  0.00     0.164 HD
BRANCH  29  33
HETATM   33  C   UNL     1      42.330  -9.781  12.026  1.00  0.00     0.037 A 
HETATM   34  C   UNL     1      42.889  -8.719  12.742  1.00  0.00     0.045 A 
HETATM   35  C   UNL     1      42.228  -8.166  13.855  1.00  0.00     0.050 A 
HETATM   36  C   UNL     1      41.001  -8.711  14.258  1.00  0.00     0.016 A 
HETATM   37  C   UNL     1      40.438  -9.772  13.553  1.00  0.00     0.003 A 
HETATM   38  C   UNL     1      41.097 -10.299  12.440  1.00  0.00     0.029 A 
BRANCH  35  39
HETATM   39  C   UNL     1      42.836  -7.018  14.622  1.00  0.00     0.417 C 
HETATM   40  F   UNL     1      44.149  -6.801  14.330  1.00  0.00    -0.166 F 
HETATM   41  F   UNL     1      42.205  -5.835  14.376  1.00  0.00    -0.166 F 
HETATM   42  F   UNL     1      42.777  -7.202  15.969  1.00  0.00    -0.166 F 
ENDBRANCH  35  39
ENDBRANCH  29  33
ENDBRANCH   4  27
TORSDOF 7
ENDMDL
MODEL 4
REMARK VINA RESULT:      -9.7      1.842      3.228
REMARK  7 active torsions:
REMARK  status: ('A' for Active; 'I' for Inactive)
REMARK    1  A    between atoms: C_3  and  C_4 
REMARK    2  A    between atoms: N_5  and  C_6 
REMARK    3  A    between atoms: C_9  and  N_10 
REMARK       I    between atoms: N_10  and  C_11 
REMARK       I    between atoms: C_11  and  N_12 
REMARK    4  A    between atoms: N_12  and  C_13 
REMARK    5  A    between atoms: C_15  and  C_16 
REMARK    6  A    between atoms: C_32  and  C_33 
REMARK    7  A    between atoms: C_33  and  N_34 
ROOT
HETATM    1  C   UNL     1      39.682 -10.373   6.514  1.00  0.00     0.169 C 
HETATM    2  C   UNL     1      41.061 -10.569   5.903  1.00  0.00     0.179 C 
HETATM    3  C   UNL     1      41.054 -11.992   5.363  1.00  0.00     0.177 C 
HETATM    4  C   UNL     1      42.237 -12.684   6.027  1.00  0.00     0.141 C 
HETATM    5  C   UNL     1      43.029 -11.529   6.636  1.00  0.00     0.196 C 
HETATM    6  O   UNL     1      42.082 -10.482   6.913  1.00  0.00    -0.379 OA
HETATM    7  O   UNL     1      39.812 -12.596   5.766  1.00  0.00    -0.379 OA
HETATM    8  C   UNL     1      38.879 -11.511   5.895  1.00  0.00     0.198 C 
ENDROOT
BRANCH   1   9
HETATM    9  N   UNL     1      39.154  -9.050   6.308  1.00  0.00    -0.221 N 
HETATM   10  C   UNL     1      39.100  -7.961   7.154  1.00  0.00     0.182 A 
HETATM   11  N   UNL     1      38.672  -6.937   6.434  1.00  0.00    -0.108 NA
HETATM   12  N   UNL     1      38.440  -7.399   5.171  1.00  0.00    -0.023 NA
HETATM   13  N   UNL     1      38.743  -8.681   5.080  1.00  0.00    -0.043 NA
BRANCH  10  14
HETATM   14  C   UNL     1      39.510  -7.849   8.555  1.00  0.00     0.014 A 
HETATM   15  C   UNL     1      38.634  -7.549   9.601  1.00  0.00     0.015 A 
HETATM   16  C   UNL     1      39.103  -7.429  10.913  1.00  0.00     0.002 A 
HETATM   17  C   UNL     1      40.460  -7.576  11.196  1.00  0.00     0.009 A 
HETATM   18  C   UNL     1      41.370  -7.828  10.163  1.00  0.00    -0.032 A 
HETATM   19  C   UNL     1      40.880  -7.972   8.854  1.00  0.00     0.024 A 
BRANCH  18  20
HETATM   20  C   UNL     1      42.843  -7.940  10.443  1.00  0.00     0.273 C 
BRANCH  20  21
HETATM   21  N   UNL     1      43.546  -8.917   9.541  1.00  0.00    -0.067 N 
HETATM   22  H   UNL     1      42.841  -9.255   8.873  1.00  0.00     0.280 HD
HETATM   23  C   UNL     1      44.102 -10.125  10.270  1.00  0.00     0.235 C 
HETATM   24  C   UNL     1      45.600 -10.053  10.048  1.00  0.00     0.029 C 
HETATM   25  C   UNL     1      45.717  -9.420   8.677  1.00  0.00     0.029 C 
HETATM   26  C   UNL     1      44.678  -8.318   8.728  1.00  0.00     0.235 C 
ENDBRANCH  20  21
ENDBRANCH  18  20
ENDBRANCH  10  14
ENDBRANCH   1   9
BRANCH   4  27
HETATM   27  N   UNL     1      42.984 -13.573   5.141  1.00  0.00    -0.334 N 
HETATM   28  C   UNL     1      42.669 -14.913   5.029  1.00  0.00     0.321 C 
HETATM   29  N   UNL     1      43.569 -15.574   4.226  1.00  0.00    -0.309 N 
HETATM   30  O   UNL     1      41.691 -15.392   5.589  1.00  0.00    -0.247 OA
HETATM   31  H   UNL     1      44.328 -15.024   3.855  1.00  0.00     0.170 HD
HETATM   32  H   UNL     1      43.958 -13.335   5.012  1.00  0.00     0.164 HD
BRANCH  29  33
HETATM   33  C   UNL     1      43.554 -16.935   3.856  1.00  0.00     0.037 A 
HETATM   34  C   UNL     1      43.798 -17.988   4.742  1.00  0.00     0.045 A 
HETATM   35  C   UNL     1      43.745 -19.326   4.311  1.00  0.00     0.050 A 
HETATM   36  C   UNL     1      43.465 -19.598   2.965  1.00  0.00     0.016 A 
HETATM   37  C   UNL     1      43.224 -18.555   2.073  1.00  0.00     0.003 A 
HETATM   38  C   UNL     1      43.262 -17.233   2.519  1.00  0.00     0.029 A 
BRANCH  35  39
HETATM   39  C   UNL     1      44.007 -20.458   5.273  1.00  0.00     0.417 C 
HETATM   40  F   UNL     1      43.263 -21.572   5.022  1.00  0.00    -0.166 F 
HETATM   41  F   UNL     1      45.305 -20.873   5.251  1.00  0.00    -0.166 F 
HETATM   42  F   UNL     1      43.744 -20.116   6.564  1.00  0.00    -0.166 F 
ENDBRANCH  35  39
ENDBRANCH  29  33
ENDBRANCH   4  27
TORSDOF 7
ENDMDL
MODEL 5
REMARK VINA RESULT:      -9.7      2.277      4.217
REMARK  7 active torsions:
REMARK  status: ('A' for Active; 'I' for Inactive)
REMARK    1  A    between atoms: C_3  and  C_4 
REMARK    2  A    between atoms: N_5  and  C_6 
REMARK    3  A    between atoms: C_9  and  N_10 
REMARK       I    between atoms: N_10  and  C_11 
REMARK       I    between atoms: C_11  and  N_12 
REMARK    4  A    between atoms: N_12  and  C_13 
REMARK    5  A    between atoms: C_15  and  C_16 
REMARK    6  A    between atoms: C_32  and  C_33 
REMARK    7  A    between atoms: C_33  and  N_34 
ROOT
HETATM    1  C   UNL     1      40.821  -7.593   7.111  1.00  0.00     0.169 C 
HETATM    2  C   UNL     1      40.543  -8.910   7.818  1.00  0.00     0.179 C 
HETATM    3  C   UNL     1      41.135  -9.978   6.910  1.00  0.00     0.177 C 
HETATM    4  C   UNL     1      39.988 -10.933   6.605  1.00  0.00     0.141 C 
HETATM    5  C   UNL     1      38.916 -10.537   7.620  1.00  0.00     0.196 C 
HETATM    6  O   UNL     1      39.127  -9.145   7.918  1.00  0.00    -0.379 OA
HETATM    7  O   UNL     1      41.586  -9.319   5.713  1.00  0.00    -0.379 OA
HETATM    8  C   UNL     1      41.905  -7.975   6.109  1.00  0.00     0.198 C 
ENDROOT
BRANCH   1   9
HETATM    9  N   UNL     1      41.153  -6.523   8.014  1.00  0.00    -0.221 N 
HETATM   10  C   UNL     1      42.083  -6.462   9.033  1.00  0.00     0.182 A 
HETATM   11  N   UNL     1      42.114  -5.206   9.448  1.00  0.00    -0.108 NA
HETATM   12  N   UNL     1      41.196  -4.514   8.712  1.00  0.00    -0.023 NA
HETATM   13  N   UNL     1      40.615  -5.303   7.828  1.00  0.00    -0.043 NA
BRANCH  10  14
HETATM   14  C   UNL     1      42.971  -7.506   9.548  1.00  0.00     0.014 A 
HETATM   15  C   UNL     1      42.945  -7.970  10.865  1.00  0.00     0.015 A 
HETATM   16  C   UNL     1      43.845  -8.951  11.293  1.00  0.00     0.002 A 
HETATM   17  C   UNL     1      44.806  -9.460  10.421  1.00  0.00     0.009 A 
HETATM   18  C   UNL     1      44.889  -8.980   9.109  1.00  0.00    -0.032 A 
HETATM   19  C   UNL     1      43.960  -8.014   8.686  1.00  0.00     0.024 A 
BRANCH  18  20
HETATM   20  C   UNL     1      45.950  -9.482   8.169  1.00  0.00     0.273 C 
BRANCH  20  21
HETATM   21  N   UNL     1      45.724 -10.900   7.723  1.00  0.00    -0.067 N 
HETATM   22  H   UNL     1      46.406 -11.478   8.231  1.00  0.00     0.280 HD
HETATM   23  C   UNL     1      45.955 -11.115   6.240  1.00  0.00     0.235 C 
HETATM   24  C   UNL     1      44.611 -11.564   5.701  1.00  0.00     0.029 C 
HETATM   25  C   UNL     1      44.009 -12.328   6.863  1.00  0.00     0.029 C 
HETATM   26  C   UNL     1      44.347 -11.449   8.051  1.00  0.00     0.235 C 
ENDBRANCH  20  21
ENDBRANCH  18  20
ENDBRANCH  10  14
ENDBRANCH   1   9
BRANCH   4  27
HETATM   27  N   UNL     1      40.369 -12.342   6.598  1.00  0.00    -0.334 N 
HETATM   28  C   UNL     1      40.768 -12.977   5.439  1.00  0.00     0.321 C 
HETATM   29  N   UNL     1      40.973 -14.321   5.647  1.00  0.00    -0.309 N 
HETATM   30  O   UNL     1      40.913 -12.364   4.389  1.00  0.00    -0.247 OA
HETATM   31  H   UNL     1      40.791 -14.664   6.578  1.00  0.00     0.170 HD
HETATM   32  H   UNL     1      39.897 -12.921   7.280  1.00  0.00     0.164 HD
BRANCH  29  33
HETATM   33  C   UNL     1      41.413 -15.280   4.711  1.00  0.00     0.037 A 
HETATM   34  C   UNL     1      42.479 -16.156   4.933  1.00  0.00     0.045 A 
HETATM   35  C   UNL     1      42.853 -17.105   3.964  1.00  0.00     0.050 A 
HETATM   36  C   UNL     1      42.155 -17.149   2.749  1.00  0.00     0.016 A 
HETATM   37  C   UNL     1      41.094 -16.277   2.516  1.00  0.00     0.003 A 
HETATM   38  C   UNL     1      40.723 -15.353   3.495  1.00  0.00     0.029 A 
BRANCH  35  39
HETATM   39  C   UNL     1      44.003 -18.050   4.211  1.00  0.00     0.417 C 
HETATM   40  F   UNL     1      44.575 -18.525   3.069  1.00  0.00    -0.166 F 
HETATM   41  F   UNL     1      45.015 -17.467   4.914  1.00  0.00    -0.166 F 
HETATM   42  F   UNL     1      43.631 -19.145   4.928  1.00  0.00    -0.166 F 
ENDBRANCH  35  39
ENDBRANCH  29  33
ENDBRANCH   4  27
TORSDOF 7
ENDMDL
MODEL 6
REMARK VINA RESULT:      -9.5      7.036     12.193
REMARK  7 active torsions:
REMARK  status: ('A' for Active; 'I' for Inactive)
REMARK    1  A    between atoms: C_3  and  C_4 
REMARK    2  A    between atoms: N_5  and  C_6 
REMARK    3  A    between atoms: C_9  and  N_10 
REMARK       I    between atoms: N_10  and  C_11 
REMARK       I    between atoms: C_11  and  N_12 
REMARK    4  A    between atoms: N_12  and  C_13 
REMARK    5  A    between atoms: C_15  and  C_16 
REMARK    6  A    between atoms: C_32  and  C_33 
REMARK    7  A    between atoms: C_33  and  N_34 
ROOT
HETATM    1  C   UNL     1      40.049 -12.349   4.115  1.00  0.00     0.169 C 
HETATM    2  C   UNL     1      39.535 -11.108   4.827  1.00  0.00     0.179 C 
HETATM    3  C   UNL     1      38.618 -10.427   3.821  1.00  0.00     0.177 C 
HETATM    4  C   UNL     1      39.165  -9.015   3.663  1.00  0.00     0.141 C 
HETATM    5  C   UNL     1      40.144  -8.880   4.829  1.00  0.00     0.196 C 
HETATM    6  O   UNL     1      40.617 -10.206   5.123  1.00  0.00    -0.379 OA
HETATM    7  O   UNL     1      38.722 -11.159   2.586  1.00  0.00    -0.379 OA
HETATM    8  C   UNL     1      39.065 -12.503   2.961  1.00  0.00     0.198 C 
ENDROOT
BRANCH   1   9
HETATM    9  N   UNL     1      40.176 -13.489   4.984  1.00  0.00    -0.221 N 
HETATM   10  C   UNL     1      40.955 -14.623   4.872  1.00  0.00     0.182 A 
HETATM   11  N   UNL     1      40.835 -15.285   6.011  1.00  0.00    -0.108 NA
HETATM   12  N   UNL     1      39.973 -14.579   6.799  1.00  0.00    -0.023 NA
HETATM   13  N   UNL     1      39.576 -13.478   6.189  1.00  0.00    -0.043 NA
BRANCH  10  14
HETATM   14  C   UNL     1      41.845 -15.039   3.785  1.00  0.00     0.014 A 
HETATM   15  C   UNL     1      42.552 -14.148   2.974  1.00  0.00     0.015 A 
HETATM   16  C   UNL     1      43.361 -14.618   1.936  1.00  0.00     0.002 A 
HETATM   17  C   UNL     1      43.452 -15.983   1.670  1.00  0.00     0.009 A 
HETATM   18  C   UNL     1      42.717 -16.898   2.433  1.00  0.00    -0.032 A 
HETATM   19  C   UNL     1      41.929 -16.412   3.491  1.00  0.00     0.024 A 
BRANCH  18  20
HETATM   20  C   UNL     1      42.765 -18.369   2.129  1.00  0.00     0.273 C 
BRANCH  20  21
HETATM   21  N   UNL     1      43.913 -19.075   2.796  1.00  0.00    -0.067 N 
HETATM   22  H   UNL     1      44.767 -18.755   2.321  1.00  0.00     0.280 HD
HETATM   23  C   UNL     1      43.856 -20.585   2.667  1.00  0.00     0.235 C 
HETATM   24  C   UNL     1      43.747 -21.090   4.092  1.00  0.00     0.029 C 
HETATM   25  C   UNL     1      44.529 -20.063   4.884  1.00  0.00     0.029 C 
HETATM   26  C   UNL     1      44.077 -18.753   4.270  1.00  0.00     0.235 C 
ENDBRANCH  20  21
ENDBRANCH  18  20
ENDBRANCH  10  14
ENDBRANCH   1   9
BRANCH   4  27
HETATM   27  N   UNL     1      38.137  -7.982   3.572  1.00  0.00    -0.334 N 
HETATM   28  C   UNL     1      37.257  -7.745   4.609  1.00  0.00     0.321 C 
HETATM   29  N   UNL     1      36.311  -6.808   4.261  1.00  0.00    -0.309 N 
HETATM   30  O   UNL     1      37.363  -8.320   5.685  1.00  0.00    -0.247 OA
HETATM   31  H   UNL     1      36.365  -6.444   3.322  1.00  0.00     0.170 HD
HETATM   32  H   UNL     1      37.782  -7.807   2.641  1.00  0.00     0.164 HD
BRANCH  29  33
HETATM   33  C   UNL     1      35.276  -6.291   5.067  1.00  0.00     0.037 A 
HETATM   34  C   UNL     1      34.104  -6.988   5.375  1.00  0.00     0.045 A 
HETATM   35  C   UNL     1      33.119  -6.420   6.204  1.00  0.00     0.050 A 
HETATM   36  C   UNL     1      33.314  -5.126   6.706  1.00  0.00     0.016 A 
HETATM   37  C   UNL     1      34.477  -4.422   6.402  1.00  0.00     0.003 A 
HETATM   38  C   UNL     1      35.453  -5.005   5.592  1.00  0.00     0.029 A 
BRANCH  35  39
HETATM   39  C   UNL     1      31.858  -7.179   6.536  1.00  0.00     0.417 C 
HETATM   40  F   UNL     1      30.945  -7.188   5.524  1.00  0.00    -0.166 F 
HETATM   41  F   UNL     1      32.098  -8.489   6.825  1.00  0.00    -0.166 F 
HETATM   42  F   UNL     1      31.212  -6.668   7.619  1.00  0.00    -0.166 F 
ENDBRANCH  35  39
ENDBRANCH  29  33
ENDBRANCH   4  27
TORSDOF 7
ENDMDL
MODEL 7
REMARK VINA RESULT:      -9.4      1.631      2.174
REMARK  7 active torsions:
REMARK  status: ('A' for Active; 'I' for Inactive)
REMARK    1  A    between atoms: C_3  and  C_4 
REMARK    2  A    between atoms: N_5  and  C_6 
REMARK    3  A    between atoms: C_9  and  N_10 
REMARK       I    between atoms: N_10  and  C_11 
REMARK       I    between atoms: C_11  and  N_12 
REMARK    4  A    between atoms: N_12  and  C_13 
REMARK    5  A    between atoms: C_15  and  C_16 
REMARK    6  A    between atoms: C_32  and  C_33 
REMARK    7  A    between atoms: C_33  and  N_34 
ROOT
HETATM    1  C   UNL     1      41.644  -9.839   7.551  1.00  0.00     0.169 C 
HETATM    2  C   UNL     1      42.813 -10.489   6.828  1.00  0.00     0.179 C 
HETATM    3  C   UNL     1      42.180 -11.514   5.897  1.00  0.00     0.177 C 
HETATM    4  C   UNL     1      42.827 -12.844   6.258  1.00  0.00     0.141 C 
HETATM    5  C   UNL     1      44.015 -12.437   7.129  1.00  0.00     0.196 C 
HETATM    6  O   UNL     1      43.658 -11.192   7.755  1.00  0.00    -0.379 OA
HETATM    7  O   UNL     1      40.769 -11.536   6.182  1.00  0.00    -0.379 OA
HETATM    8  C   UNL     1      40.455 -10.224   6.677  1.00  0.00     0.198 C 
ENDROOT
BRANCH   1   9
HETATM    9  N   UNL     1      41.827  -8.429   7.772  1.00  0.00    -0.221 N 
HETATM   10  C   UNL     1      41.595  -7.656   8.892  1.00  0.00     0.182 A 
HETATM   11  N   UNL     1      42.082  -6.453   8.635  1.00  0.00    -0.108 NA
HETATM   12  N   UNL     1      42.579  -6.481   7.364  1.00  0.00    -0.023 NA
HETATM   13  N   UNL     1      42.441  -7.682   6.835  1.00  0.00    -0.043 NA
BRANCH  10  14
HETATM   14  C   UNL     1      41.023  -8.037  10.185  1.00  0.00     0.014 A 
HETATM   15  C   UNL     1      40.680  -9.347  10.528  1.00  0.00     0.015 A 
HETATM   16  C   UNL     1      40.110  -9.632  11.773  1.00  0.00     0.002 A 
HETATM   17  C   UNL     1      39.843  -8.608  12.680  1.00  0.00     0.009 A 
HETATM   18  C   UNL     1      40.129  -7.280  12.346  1.00  0.00    -0.032 A 
HETATM   19  C   UNL     1      40.727  -7.013  11.103  1.00  0.00     0.024 A 
BRANCH  18  20
HETATM   20  C   UNL     1      39.802  -6.159  13.293  1.00  0.00     0.273 C 
BRANCH  20  21
HETATM   21  N   UNL     1      40.919  -5.848  14.251  1.00  0.00    -0.067 N 
HETATM   22  H   UNL     1      40.813  -4.859  14.510  1.00  0.00     0.280 HD
HETATM   23  C   UNL     1      42.301  -6.018  13.650  1.00  0.00     0.235 C 
HETATM   24  C   UNL     1      42.951  -7.108  14.478  1.00  0.00     0.029 C 
HETATM   25  C   UNL     1      42.344  -6.906  15.852  1.00  0.00     0.029 C 
HETATM   26  C   UNL     1      40.884  -6.651  15.538  1.00  0.00     0.235 C 
ENDBRANCH  20  21
ENDBRANCH  18  20
ENDBRANCH  10  14
ENDBRANCH   1   9
BRANCH   4  27
HETATM   27  N   UNL     1      43.139 -13.689   5.109  1.00  0.00    -0.334 N 
HETATM   28  C   UNL     1      43.030 -15.064   5.172  1.00  0.00     0.321 C 
HETATM   29  N   UNL     1      43.478 -15.657   4.014  1.00  0.00    -0.309 N 
HETATM   30  O   UNL     1      42.575 -15.627   6.159  1.00  0.00    -0.247 OA
HETATM   31  H   UNL     1      43.835 -15.038   3.303  1.00  0.00     0.170 HD
HETATM   32  H   UNL     1      43.853 -13.330   4.490  1.00  0.00     0.164 HD
BRANCH  29  33
HETATM   33  C   UNL     1      43.490 -17.032   3.701  1.00  0.00     0.037 A 
HETATM   34  C   UNL     1      43.763 -18.041   4.628  1.00  0.00     0.045 A 
HETATM   35  C   UNL     1      43.737 -19.397   4.253  1.00  0.00     0.050 A 
HETATM   36  C   UNL     1      43.456 -19.731   2.921  1.00  0.00     0.016 A 
HETATM   37  C   UNL     1      43.187 -18.732   1.989  1.00  0.00     0.003 A 
HETATM   38  C   UNL     1      43.199 -17.391   2.379  1.00  0.00     0.029 A 
BRANCH  35  39
HETATM   39  C   UNL     1      44.029 -20.482   5.260  1.00  0.00     0.417 C 
HETATM   40  F   UNL     1      45.331 -20.883   5.269  1.00  0.00    -0.166 F 
HETATM   41  F   UNL     1      43.755 -20.096   6.539  1.00  0.00    -0.166 F 
HETATM   42  F   UNL     1      43.293 -21.606   5.043  1.00  0.00    -0.166 F 
ENDBRANCH  35  39
ENDBRANCH  29  33
ENDBRANCH   4  27
TORSDOF 7
ENDMDL
MODEL 8
REMARK VINA RESULT:      -9.3      1.455      1.965
REMARK  7 active torsions:
REMARK  status: ('A' for Active; 'I' for Inactive)
REMARK    1  A    between atoms: C_3  and  C_4 
REMARK    2  A    between atoms: N_5  and  C_6 
REMARK    3  A    between atoms: C_9  and  N_10 
REMARK       I    between atoms: N_10  and  C_11 
REMARK       I    between atoms: C_11  and  N_12 
REMARK    4  A    between atoms: N_12  and  C_13 
REMARK    5  A    between atoms: C_15  and  C_16 
REMARK    6  A    between atoms: C_32  and  C_33 
REMARK    7  A    between atoms: C_33  and  N_34 
ROOT
HETATM    1  C   UNL     1      40.193  -9.146   6.049  1.00  0.00     0.169 C 
HETATM    2  C   UNL     1      40.514 -10.519   6.618  1.00  0.00     0.179 C 
HETATM    3  C   UNL     1      41.687 -11.024   5.790  1.00  0.00     0.177 C 
HETATM    4  C   UNL     1      41.233 -12.359   5.215  1.00  0.00     0.141 C 
HETATM    5  C   UNL     1      39.974 -12.682   6.017  1.00  0.00     0.196 C 
HETATM    6  O   UNL     1      39.411 -11.422   6.424  1.00  0.00    -0.379 OA
HETATM    7  O   UNL     1      41.914 -10.065   4.742  1.00  0.00    -0.379 OA
HETATM    8  C   UNL     1      41.454  -8.807   5.263  1.00  0.00     0.198 C 
ENDROOT
BRANCH   1   9
HETATM    9  N   UNL     1      39.808  -8.191   7.055  1.00  0.00    -0.221 N 
HETATM   10  C   UNL     1      40.498  -7.710   8.149  1.00  0.00     0.182 A 
HETATM   11  N   UNL     1      39.772  -6.729   8.659  1.00  0.00    -0.108 NA
HETATM   12  N   UNL     1      38.639  -6.630   7.904  1.00  0.00    -0.023 NA
HETATM   13  N   UNL     1      38.657  -7.507   6.918  1.00  0.00    -0.043 NA
BRANCH  10  14
HETATM   14  C   UNL     1      41.820  -8.084   8.655  1.00  0.00     0.014 A 
HETATM   15  C   UNL     1      43.021  -7.698   8.055  1.00  0.00     0.015 A 
HETATM   16  C   UNL     1      44.248  -8.118   8.579  1.00  0.00     0.002 A 
HETATM   17  C   UNL     1      44.292  -8.958   9.691  1.00  0.00     0.009 A 
HETATM   18  C   UNL     1      43.105  -9.402  10.285  1.00  0.00    -0.032 A 
HETATM   19  C   UNL     1      41.882  -8.949   9.763  1.00  0.00     0.024 A 
BRANCH  18  20
HETATM   20  C   UNL     1      43.135 -10.346  11.454  1.00  0.00     0.273 C 
BRANCH  20  21
HETATM   21  N   UNL     1      42.919  -9.661  12.775  1.00  0.00    -0.067 N 
HETATM   22  H   UNL     1      43.476 -10.180  13.467  1.00  0.00     0.280 HD
HETATM   23  C   UNL     1      41.476  -9.680  13.242  1.00  0.00     0.235 C 
HETATM   24  C   UNL     1      41.075  -8.220  13.313  1.00  0.00     0.029 C 
HETATM   25  C   UNL     1      42.365  -7.524  13.693  1.00  0.00     0.029 C 
HETATM   26  C   UNL     1      43.389  -8.219  12.818  1.00  0.00     0.235 C 
ENDBRANCH  20  21
ENDBRANCH  18  20
ENDBRANCH  10  14
ENDBRANCH   1   9
BRANCH   4  27
HETATM   27  N   UNL     1      42.267 -13.391   5.210  1.00  0.00    -0.334 N 
HETATM   28  C   UNL     1      42.098 -14.579   4.528  1.00  0.00     0.321 C 
HETATM   29  N   UNL     1      43.148 -15.440   4.752  1.00  0.00    -0.309 N 
HETATM   30  O   UNL     1      41.120 -14.780   3.820  1.00  0.00    -0.247 OA
HETATM   31  H   UNL     1      43.868 -15.115   5.378  1.00  0.00     0.170 HD
HETATM   32  H   UNL     1      42.837 -13.436   6.044  1.00  0.00     0.164 HD
BRANCH  29  33
HETATM   33  C   UNL     1      43.339 -16.725   4.202  1.00  0.00     0.037 A 
HETATM   34  C   UNL     1      43.591 -17.869   4.964  1.00  0.00     0.045 A 
HETATM   35  C   UNL     1      43.751 -19.127   4.352  1.00  0.00     0.050 A 
HETATM   36  C   UNL     1      43.677 -19.220   2.956  1.00  0.00     0.016 A 
HETATM   37  C   UNL     1      43.430 -18.084   2.188  1.00  0.00     0.003 A 
HETATM   38  C   UNL     1      43.256 -16.846   2.810  1.00  0.00     0.029 A 
BRANCH  35  39
HETATM   39  C   UNL     1      44.020 -20.359   5.180  1.00  0.00     0.417 C 
HETATM   40  F   UNL     1      43.301 -21.448   4.787  1.00  0.00    -0.166 F 
HETATM   41  F   UNL     1      45.326 -20.745   5.133  1.00  0.00    -0.166 F 
HETATM   42  F   UNL     1      43.731 -20.176   6.497  1.00  0.00    -0.166 F 
ENDBRANCH  35  39
ENDBRANCH  29  33
ENDBRANCH   4  27
TORSDOF 7
ENDMDL
MODEL 9
REMARK VINA RESULT:      -9.2      7.809     10.928
REMARK  7 active torsions:
REMARK  status: ('A' for Active; 'I' for Inactive)
REMARK    1  A    between atoms: C_3  and  C_4 
REMARK    2  A    between atoms: N_5  and  C_6 
REMARK    3  A    between atoms: C_9  and  N_10 
REMARK       I    between atoms: N_10  and  C_11 
REMARK       I    between atoms: C_11  and  N_12 
REMARK    4  A    between atoms: N_12  and  C_13 
REMARK    5  A    between atoms: C_15  and  C_16 
REMARK    6  A    between atoms: C_32  and  C_33 
REMARK    7  A    between atoms: C_33  and  N_34 
ROOT
HETATM    1  C   UNL     1      37.963 -11.257  -2.339  1.00  0.00     0.169 C 
HETATM    2  C   UNL     1      39.414 -11.294  -1.886  1.00  0.00     0.179 C 
HETATM    3  C   UNL     1      39.707 -12.765  -1.623  1.00  0.00     0.177 C 
HETATM    4  C   UNL     1      40.192 -12.830  -0.181  1.00  0.00     0.141 C 
HETATM    5  C   UNL     1      40.462 -11.368   0.171  1.00  0.00     0.196 C 
HETATM    6  O   UNL     1      39.580 -10.580  -0.648  1.00  0.00    -0.379 OA
HETATM    7  O   UNL     1      38.469 -13.481  -1.781  1.00  0.00    -0.379 OA
HETATM    8  C   UNL     1      37.692 -12.710  -2.711  1.00  0.00     0.198 C 
ENDROOT
BRANCH   1   9
HETATM    9  N   UNL     1      37.718 -10.289  -3.376  1.00  0.00    -0.221 N 
HETATM   10  C   UNL     1      36.546  -9.681  -3.779  1.00  0.00     0.182 A 
HETATM   11  N   UNL     1      36.881  -8.749  -4.657  1.00  0.00    -0.108 NA
HETATM   12  N   UNL     1      38.236  -8.806  -4.810  1.00  0.00    -0.023 NA
HETATM   13  N   UNL     1      38.757  -9.731  -4.025  1.00  0.00    -0.043 NA
BRANCH  10  14
HETATM   14  C   UNL     1      35.176  -9.893  -3.309  1.00  0.00     0.014 A 
HETATM   15  C   UNL     1      34.335 -10.900  -3.789  1.00  0.00     0.015 A 
HETATM   16  C   UNL     1      33.026 -11.023  -3.312  1.00  0.00     0.002 A 
HETATM   17  C   UNL     1      32.527 -10.123  -2.372  1.00  0.00     0.009 A 
HETATM   18  C   UNL     1      33.328  -9.074  -1.908  1.00  0.00    -0.032 A 
HETATM   19  C   UNL     1      34.650  -8.979  -2.376  1.00  0.00     0.024 A 
BRANCH  18  20
HETATM   20  C   UNL     1      32.790  -8.066  -0.931  1.00  0.00     0.273 C 
BRANCH  20  21
HETATM   21  N   UNL     1      32.286  -8.686   0.343  1.00  0.00    -0.067 N 
HETATM   22  H   UNL     1      32.362  -9.703   0.221  1.00  0.00     0.280 HD
HETATM   23  C   UNL     1      30.834  -8.366   0.642  1.00  0.00     0.235 C 
HETATM   24  C   UNL     1      30.868  -7.605   1.952  1.00  0.00     0.029 C 
HETATM   25  C   UNL     1      32.053  -8.213   2.675  1.00  0.00     0.029 C 
HETATM   26  C   UNL     1      33.092  -8.325   1.577  1.00  0.00     0.235 C 
ENDBRANCH  20  21
ENDBRANCH  18  20
ENDBRANCH  10  14
ENDBRANCH   1   9
BRANCH   4  27
HETATM   27  N   UNL     1      41.304 -13.753   0.034  1.00  0.00    -0.334 N 
HETATM   28  C   UNL     1      41.325 -14.620   1.109  1.00  0.00     0.321 C 
HETATM   29  N   UNL     1      42.513 -15.312   1.172  1.00  0.00    -0.309 N 
HETATM   30  O   UNL     1      40.373 -14.722   1.871  1.00  0.00    -0.247 OA
HETATM   31  H   UNL     1      43.198 -15.091   0.466  1.00  0.00     0.170 HD
HETATM   32  H   UNL     1      42.204 -13.427  -0.290  1.00  0.00     0.164 HD
BRANCH  29  33
HETATM   33  C   UNL     1      42.884 -16.301   2.106  1.00  0.00     0.037 A 
HETATM   34  C   UNL     1      42.928 -17.668   1.819  1.00  0.00     0.045 A 
HETATM   35  C   UNL     1      43.329 -18.601   2.793  1.00  0.00     0.050 A 
HETATM   36  C   UNL     1      43.664 -18.146   4.076  1.00  0.00     0.016 A 
HETATM   37  C   UNL     1      43.619 -16.786   4.372  1.00  0.00     0.003 A 
HETATM   38  C   UNL     1      43.237 -15.870   3.390  1.00  0.00     0.029 A 
BRANCH  35  39
HETATM   39  C   UNL     1      43.378 -20.075   2.476  1.00  0.00     0.417 C 
HETATM   40  F   UNL     1      43.515 -20.866   3.577  1.00  0.00    -0.166 F 
HETATM   41  F   UNL     1      42.249 -20.512   1.848  1.00  0.00    -0.166 F 
HETATM   42  F   UNL     1      44.413 -20.397   1.653  1.00  0.00    -0.166 F 
ENDBRANCH  35  39
ENDBRANCH  29  33
ENDBRANCH   4  27
TORSDOF 7
ENDMDL
MODEL 10
REMARK VINA RESULT:      -9.1      2.054      2.910
REMARK  7 active torsions:
REMARK  status: ('A' for Active; 'I' for Inactive)
REMARK    1  A    between atoms: C_3  and  C_4 
REMARK    2  A    between atoms: N_5  and  C_6 
REMARK    3  A    between atoms: C_9  and  N_10 
REMARK       I    between atoms: N_10  and  C_11 
REMARK       I    between atoms: C_11  and  N_12 
REMARK    4  A    between atoms: N_12  and  C_13 
REMARK    5  A    between atoms: C_15  and  C_16 
REMARK    6  A    between atoms: C_32  and  C_33 
REMARK    7  A    between atoms: C_33  and  N_34 
ROOT
HETATM    1  C   UNL     1      40.925  -8.199   6.590  1.00  0.00     0.169 C 
HETATM    2  C   UNL     1      40.272  -9.379   7.292  1.00  0.00     0.179 C 
HETATM    3  C   UNL     1      41.033 -10.602   6.801  1.00  0.00     0.177 C 
HETATM    4  C   UNL     1      39.979 -11.526   6.206  1.00  0.00     0.141 C 
HETATM    5  C   UNL     1      38.662 -10.925   6.696  1.00  0.00     0.196 C 
HETATM    6  O   UNL     1      38.899  -9.518   6.886  1.00  0.00    -0.379 OA
HETATM    7  O   UNL     1      41.953 -10.153   5.789  1.00  0.00    -0.379 OA
HETATM    8  C   UNL     1      42.249  -8.786   6.115  1.00  0.00     0.198 C 
ENDROOT
BRANCH   1   9
HETATM    9  N   UNL     1      41.021  -7.028   7.420  1.00  0.00    -0.221 N 
HETATM   10  C   UNL     1      41.806  -6.771   8.526  1.00  0.00     0.182 A 
HETATM   11  N   UNL     1      41.645  -5.492   8.822  1.00  0.00    -0.108 NA
HETATM   12  N   UNL     1      40.751  -4.980   7.927  1.00  0.00    -0.023 NA
HETATM   13  N   UNL     1      40.376  -5.902   7.061  1.00  0.00    -0.043 NA
BRANCH  10  14
HETATM   14  C   UNL     1      42.738  -7.653   9.232  1.00  0.00     0.014 A 
HETATM   15  C   UNL     1      44.052  -7.886   8.822  1.00  0.00     0.015 A 
HETATM   16  C   UNL     1      44.876  -8.766   9.531  1.00  0.00     0.002 A 
HETATM   17  C   UNL     1      44.389  -9.451  10.643  1.00  0.00     0.009 A 
HETATM   18  C   UNL     1      43.061  -9.277  11.050  1.00  0.00    -0.032 A 
HETATM   19  C   UNL     1      42.254  -8.370  10.343  1.00  0.00     0.024 A 
BRANCH  18  20
HETATM   20  C   UNL     1      42.505 -10.045  12.217  1.00  0.00     0.273 C 
BRANCH  20  21
HETATM   21  N   UNL     1      42.454  -9.240  13.486  1.00  0.00    -0.067 N 
HETATM   22  H   UNL     1      42.911  -9.809  14.210  1.00  0.00     0.280 HD
HETATM   23  C   UNL     1      41.045  -8.941  13.960  1.00  0.00     0.235 C 
HETATM   24  C   UNL     1      40.940  -7.430  13.928  1.00  0.00     0.029 C 
HETATM   25  C   UNL     1      42.349  -6.977  14.250  1.00  0.00     0.029 C 
HETATM   26  C   UNL     1      43.200  -7.920  13.422  1.00  0.00     0.235 C 
ENDBRANCH  20  21
ENDBRANCH  18  20
ENDBRANCH  10  14
ENDBRANCH   1   9
BRANCH   4  27
HETATM   27  N   UNL     1      40.185 -12.940   6.506  1.00  0.00    -0.334 N 
HETATM   28  C   UNL     1      41.178 -13.673   5.887  1.00  0.00     0.321 C 
HETATM   29  N   UNL     1      41.115 -15.001   6.240  1.00  0.00    -0.309 N 
HETATM   30  O   UNL     1      41.988 -13.148   5.135  1.00  0.00    -0.247 OA
HETATM   31  H   UNL     1      40.369 -15.265   6.865  1.00  0.00     0.170 HD
HETATM   32  H   UNL     1      39.352 -13.452   6.765  1.00  0.00     0.164 HD
BRANCH  29  33
HETATM   33  C   UNL     1      41.979 -16.040   5.835  1.00  0.00     0.037 A 
HETATM   34  C   UNL     1      42.216 -16.382   4.501  1.00  0.00     0.045 A 
HETATM   35  C   UNL     1      43.108 -17.418   4.165  1.00  0.00     0.050 A 
HETATM   36  C   UNL     1      43.747 -18.127   5.192  1.00  0.00     0.016 A 
HETATM   37  C   UNL     1      43.514 -17.795   6.525  1.00  0.00     0.003 A 
HETATM   38  C   UNL     1      42.639 -16.754   6.843  1.00  0.00     0.029 A 
BRANCH  35  39
HETATM   39  C   UNL     1      43.363 -17.780   2.723  1.00  0.00     0.417 C 
HETATM   40  F   UNL     1      44.428 -18.612   2.549  1.00  0.00    -0.166 F 
HETATM   41  F   UNL     1      42.302 -18.417   2.150  1.00  0.00    -0.166 F 
HETATM   42  F   UNL     1      43.609 -16.690   1.948  1.00  0.00    -0.166 F 
ENDBRANCH  35  39
ENDBRANCH  29  33
ENDBRANCH   4  27
TORSDOF 7
ENDMDL
