MODEL 1
REMARK VINA RESULT:      -9.1      0.000      0.000
REMARK  5 active torsions:
REMARK  status: ('A' for Active; 'I' for Inactive)
REMARK    1  A    between atoms: C_3  and  N_4 
REMARK       I    between atoms: N_4  and  C_5 
REMARK    2  A    between atoms: C_9  and  N_10 
REMARK       I    between atoms: N_10  and  C_11 
REMARK    3  A    between atoms: C_11  and  C_12 
REMARK    4  A    between atoms: C_17  and  C_18 
REMARK    5  A    between atoms: C_24  and  C_25 
ROOT
HETATM    1  C   UNL     1      43.806 -12.628   7.178  1.00  0.00     0.148 A 
HETATM    2  N   UNL     1      43.318 -13.720   7.815  1.00  0.00    -0.165 NA
HETATM    3  N   UNL     1      43.194 -14.620   6.821  1.00  0.00    -0.240 N 
HETATM    4  C   UNL     1      43.448 -14.119   5.578  1.00  0.00     0.123 A 
HETATM    5  N   UNL     1      43.252 -14.870   4.476  1.00  0.00    -0.364 N 
HETATM    6  C   UNL     1      42.337 -16.017   4.467  1.00  0.00     0.143 C 
HETATM    7  C   UNL     1      41.806 -16.374   5.874  1.00  0.00     0.068 C 
HETATM    8  C   UNL     1      42.732 -15.977   7.034  1.00  0.00     0.221 C 
HETATM    9  C   UNL     1      43.918 -12.851   5.776  1.00  0.00     0.089 A 
HETATM   10  H   UNL     1      43.406 -14.464   3.553  1.00  0.00     0.162 HD
ENDROOT
BRANCH   1  11
HETATM   11  C   UNL     1      44.133 -11.376   7.882  1.00  0.00     0.276 C 
HETATM   12  N   UNL     1      43.015 -10.600   8.125  1.00  0.00    -0.322 N 
HETATM   13  H   UNL     1      42.150 -11.016   7.790  1.00  0.00     0.169 HD
HETATM   14  O   UNL     1      45.292 -11.095   8.167  1.00  0.00    -0.266 OA
BRANCH  12  15
HETATM   15  C   UNL     1      42.959  -9.320   8.708  1.00  0.00     0.037 A 
HETATM   16  C   UNL     1      43.008  -9.090  10.084  1.00  0.00     0.059 A 
HETATM   17  C   UNL     1      42.995  -7.790  10.630  1.00  0.00     0.042 A 
HETATM   18  C   UNL     1      42.857  -6.692   9.766  1.00  0.00    -0.035 A 
HETATM   19  C   UNL     1      42.699  -5.263  10.208  1.00  0.00     0.050 C 
HETATM   20  C   UNL     1      42.822  -6.929   8.377  1.00  0.00     0.011 A 
HETATM   21  C   UNL     1      42.870  -8.225   7.854  1.00  0.00     0.030 A 
BRANCH  17  22
HETATM   22  N   UNL     1      43.079  -7.747  12.042  1.00  0.00    -0.327 N 
HETATM   23  C   UNL     1      42.052  -7.781  12.965  1.00  0.00     0.218 C 
HETATM   24  C   UNL     1      42.569  -7.776  14.383  1.00  0.00     0.117 C 
HETATM   25  O   UNL     1      40.848  -7.794  12.739  1.00  0.00    -0.274 OA
HETATM   26  H   UNL     1      43.962  -7.410  12.405  1.00  0.00     0.169 HD
ENDBRANCH  17  22
ENDBRANCH  12  15
ENDBRANCH   1  11
BRANCH   8  27
HETATM   27  C   UNL     1      43.914 -16.900   7.213  1.00  0.00     0.409 C 
HETATM   28  F   UNL     1      44.308 -16.962   8.507  1.00  0.00    -0.169 F 
HETATM   29  F   UNL     1      43.570 -18.166   6.860  1.00  0.00    -0.169 F 
HETATM   30  F   UNL     1      44.993 -16.567   6.480  1.00  0.00    -0.169 F 
ENDBRANCH   8  27
BRANCH   6  31
HETATM   31  C   UNL     1      42.874 -17.214   3.748  1.00  0.00     0.075 A 
HETATM   32  O   UNL     1      42.176 -17.617   2.645  1.00  0.00    -0.325 OA
HETATM   33  C   UNL     1      42.845 -18.673   2.114  1.00  0.00     0.142 A 
HETATM   34  C   UNL     1      43.963 -18.959   2.860  1.00  0.00     0.027 A 
HETATM   35  C   UNL     1      43.985 -18.017   3.915  1.00  0.00     0.037 A 
ENDBRANCH   6  31
TORSDOF 5
ENDMDL
MODEL 2
REMARK VINA RESULT:      -8.9      2.957     10.090
REMARK  5 active torsions:
REMARK  status: ('A' for Active; 'I' for Inactive)
REMARK    1  A    between atoms: C_3  and  N_4 
REMARK       I    between atoms: N_4  and  C_5 
REMARK    2  A    between atoms: C_9  and  N_10 
REMARK       I    between atoms: N_10  and  C_11 
REMARK    3  A    between atoms: C_11  and  C_12 
REMARK    4  A    between atoms: C_17  and  C_18 
REMARK    5  A    between atoms: C_24  and  C_25 
ROOT
HETATM    1  C   UNL     1      43.819 -11.057   8.177  1.00  0.00     0.148 A 
HETATM    2  N   UNL     1      44.337 -11.061   9.430  1.00  0.00    -0.165 NA
HETATM    3  N   UNL     1      43.694 -10.039  10.026  1.00  0.00    -0.240 N 
HETATM    4  C   UNL     1      42.902  -9.310   9.188  1.00  0.00     0.123 A 
HETATM    5  N   UNL     1      42.288  -8.189   9.617  1.00  0.00    -0.364 N 
HETATM    6  C   UNL     1      42.779  -7.424  10.769  1.00  0.00     0.143 C 
HETATM    7  C   UNL     1      43.914  -8.145  11.531  1.00  0.00     0.068 C 
HETATM    8  C   UNL     1      43.899  -9.676  11.414  1.00  0.00     0.221 C 
HETATM    9  C   UNL     1      42.901  -9.983   7.998  1.00  0.00     0.089 A 
HETATM   10  H   UNL     1      41.735  -7.634   8.964  1.00  0.00     0.162 HD
ENDROOT
BRANCH   1  11
HETATM   11  C   UNL     1      44.210 -12.038   7.150  1.00  0.00     0.276 C 
HETATM   12  N   UNL     1      43.291 -13.063   7.022  1.00  0.00    -0.322 N 
HETATM   13  H   UNL     1      42.494 -12.974   7.646  1.00  0.00     0.169 HD
HETATM   14  O   UNL     1      45.262 -11.919   6.531  1.00  0.00    -0.266 OA
BRANCH  12  15
HETATM   15  C   UNL     1      43.372 -14.200   6.197  1.00  0.00     0.037 A 
HETATM   16  C   UNL     1      42.846 -14.262   4.906  1.00  0.00     0.059 A 
HETATM   17  C   UNL     1      42.986 -15.405   4.092  1.00  0.00     0.042 A 
HETATM   18  C   UNL     1      43.613 -16.545   4.621  1.00  0.00    -0.035 A 
HETATM   19  C   UNL     1      43.721 -17.871   3.922  1.00  0.00     0.050 C 
HETATM   20  C   UNL     1      44.154 -16.471   5.921  1.00  0.00     0.011 A 
HETATM   21  C   UNL     1      44.034 -15.317   6.699  1.00  0.00     0.030 A 
BRANCH  17  22
HETATM   22  N   UNL     1      42.414 -15.279   2.803  1.00  0.00    -0.327 N 
HETATM   23  C   UNL     1      41.103 -15.490   2.420  1.00  0.00     0.218 C 
HETATM   24  C   UNL     1      40.889 -15.187   0.957  1.00  0.00     0.117 C 
HETATM   25  O   UNL     1      40.180 -15.891   3.118  1.00  0.00    -0.274 OA
HETATM   26  H   UNL     1      43.081 -15.273   2.041  1.00  0.00     0.169 HD
ENDBRANCH  17  22
ENDBRANCH  12  15
ENDBRANCH   1  11
BRANCH   8  27
HETATM   27  C   UNL     1      42.856 -10.343  12.280  1.00  0.00     0.409 C 
HETATM   28  F   UNL     1      43.242 -11.582  12.664  1.00  0.00    -0.169 F 
HETATM   29  F   UNL     1      42.677  -9.630  13.422  1.00  0.00    -0.169 F 
HETATM   30  F   UNL     1      41.647 -10.462  11.698  1.00  0.00    -0.169 F 
ENDBRANCH   8  27
BRANCH   6  31
HETATM   31  C   UNL     1      41.695  -6.953  11.687  1.00  0.00     0.075 A 
HETATM   32  O   UNL     1      40.482  -7.566  11.551  1.00  0.00    -0.325 OA
HETATM   33  C   UNL     1      39.661  -7.038  12.495  1.00  0.00     0.142 A 
HETATM   34  C   UNL     1      40.326  -6.092  13.237  1.00  0.00     0.027 A 
HETATM   35  C   UNL     1      41.641  -6.036  12.718  1.00  0.00     0.037 A 
ENDBRANCH   6  31
TORSDOF 5
ENDMDL
MODEL 3
REMARK VINA RESULT:      -8.6      3.166     10.065
REMARK  5 active torsions:
REMARK  status: ('A' for Active; 'I' for Inactive)
REMARK    1  A    between atoms: C_3  and  N_4 
REMARK       I    between atoms: N_4  and  C_5 
REMARK    2  A    between atoms: C_9  and  N_10 
REMARK       I    between atoms: N_10  and  C_11 
REMARK    3  A    between atoms: C_11  and  C_12 
REMARK    4  A    between atoms: C_17  and  C_18 
REMARK    5  A    between atoms: C_24  and  C_25 
ROOT
HETATM    1  C   UNL     1      42.339 -10.375   6.368  1.00  0.00     0.148 A 
HETATM    2  N   UNL     1      43.577  -9.957   6.727  1.00  0.00    -0.165 NA
HETATM    3  N   UNL     1      43.369  -9.395   7.933  1.00  0.00    -0.240 N 
HETATM    4  C   UNL     1      42.056  -9.316   8.294  1.00  0.00     0.123 A 
HETATM    5  N   UNL     1      41.685  -8.674   9.421  1.00  0.00    -0.364 N 
HETATM    6  C   UNL     1      42.526  -7.644  10.042  1.00  0.00     0.143 C 
HETATM    7  C   UNL     1      43.925  -7.537   9.395  1.00  0.00     0.068 C 
HETATM    8  C   UNL     1      44.433  -8.828   8.737  1.00  0.00     0.221 C 
HETATM    9  C   UNL     1      41.364 -10.006   7.338  1.00  0.00     0.089 A 
HETATM   10  H   UNL     1      40.696  -8.588   9.652  1.00  0.00     0.162 HD
ENDROOT
BRANCH   1  11
HETATM   11  C   UNL     1      42.073 -11.088   5.106  1.00  0.00     0.276 C 
HETATM   12  N   UNL     1      41.404 -12.281   5.306  1.00  0.00    -0.322 N 
HETATM   13  H   UNL     1      41.196 -12.473   6.282  1.00  0.00     0.169 HD
HETATM   14  O   UNL     1      42.456 -10.636   4.032  1.00  0.00    -0.266 OA
BRANCH  12  15
HETATM   15  C   UNL     1      41.052 -13.247   4.345  1.00  0.00     0.037 A 
HETATM   16  C   UNL     1      41.705 -14.473   4.199  1.00  0.00     0.059 A 
HETATM   17  C   UNL     1      41.294 -15.436   3.255  1.00  0.00     0.042 A 
HETATM   18  C   UNL     1      40.239 -15.125   2.382  1.00  0.00    -0.035 A 
HETATM   19  C   UNL     1      39.777 -15.994   1.246  1.00  0.00     0.050 C 
HETATM   20  C   UNL     1      39.575 -13.892   2.543  1.00  0.00     0.011 A 
HETATM   21  C   UNL     1      39.976 -12.965   3.508  1.00  0.00     0.030 A 
BRANCH  17  22
HETATM   22  N   UNL     1      42.055 -16.629   3.267  1.00  0.00    -0.327 N 
HETATM   23  C   UNL     1      43.104 -16.988   2.443  1.00  0.00     0.218 C 
HETATM   24  C   UNL     1      43.688 -18.327   2.826  1.00  0.00     0.117 C 
HETATM   25  O   UNL     1      43.549 -16.363   1.489  1.00  0.00    -0.274 OA
HETATM   26  H   UNL     1      41.628 -17.399   3.769  1.00  0.00     0.169 HD
ENDBRANCH  17  22
ENDBRANCH  12  15
ENDBRANCH   1  11
BRANCH   8  27
HETATM   27  C   UNL     1      44.935  -9.857   9.723  1.00  0.00     0.409 C 
HETATM   28  F   UNL     1      43.950 -10.698  10.115  1.00  0.00    -0.169 F 
HETATM   29  F   UNL     1      45.886 -10.632   9.139  1.00  0.00    -0.169 F 
HETATM   30  F   UNL     1      45.484  -9.335  10.837  1.00  0.00    -0.169 F 
ENDBRANCH   8  27
BRANCH   6  31
HETATM   31  C   UNL     1      42.601  -7.744  11.533  1.00  0.00     0.075 A 
HETATM   32  O   UNL     1      42.558  -6.564  12.220  1.00  0.00    -0.325 OA
HETATM   33  C   UNL     1      42.589  -6.871  13.542  1.00  0.00     0.142 A 
HETATM   34  C   UNL     1      42.654  -8.232  13.719  1.00  0.00     0.027 A 
HETATM   35  C   UNL     1      42.661  -8.798  12.423  1.00  0.00     0.037 A 
ENDBRANCH   6  31
TORSDOF 5
ENDMDL
MODEL 4
REMARK VINA RESULT:      -8.6      3.175     10.064
REMARK  5 active torsions:
REMARK  status: ('A' for Active; 'I' for Inactive)
REMARK    1  A    between atoms: C_3  and  N_4 
REMARK       I    between atoms: N_4  and  C_5 
REMARK    2  A    between atoms: C_9  and  N_10 
REMARK       I    between atoms: N_10  and  C_11 
REMARK    3  A    between atoms: C_11  and  C_12 
REMARK    4  A    between atoms: C_17  and  C_18 
REMARK    5  A    between atoms: C_24  and  C_25 
ROOT
HETATM    1  C   UNL     1      43.362 -10.541   6.827  1.00  0.00     0.148 A 
HETATM    2  N   UNL     1      44.282  -9.953   7.630  1.00  0.00    -0.165 NA
HETATM    3  N   UNL     1      43.524  -9.242   8.487  1.00  0.00    -0.240 N 
HETATM    4  C   UNL     1      42.193  -9.241   8.190  1.00  0.00     0.123 A 
HETATM    5  N   UNL     1      41.328  -8.480   8.889  1.00  0.00    -0.364 N 
HETATM    6  C   UNL     1      41.761  -7.290   9.631  1.00  0.00     0.143 C 
HETATM    7  C   UNL     1      43.299  -7.141   9.686  1.00  0.00     0.068 C 
HETATM    8  C   UNL     1      44.079  -8.459   9.573  1.00  0.00     0.221 C 
HETATM    9  C   UNL     1      42.040 -10.131   7.163  1.00  0.00     0.089 A 
HETATM   10  H   UNL     1      40.343  -8.459   8.624  1.00  0.00     0.162 HD
ENDROOT
BRANCH   1  11
HETATM   11  C   UNL     1      43.730 -11.456   5.732  1.00  0.00     0.276 C 
HETATM   12  N   UNL     1      42.859 -12.524   5.624  1.00  0.00    -0.322 N 
HETATM   13  H   UNL     1      42.105 -12.506   6.305  1.00  0.00     0.169 HD
HETATM   14  O   UNL     1      44.727 -11.254   5.047  1.00  0.00    -0.266 OA
BRANCH  12  15
HETATM   15  C   UNL     1      42.940 -13.621   4.745  1.00  0.00     0.037 A 
HETATM   16  C   UNL     1      42.964 -14.952   5.166  1.00  0.00     0.059 A 
HETATM   17  C   UNL     1      42.999 -16.028   4.254  1.00  0.00     0.042 A 
HETATM   18  C   UNL     1      43.086 -15.752   2.880  1.00  0.00    -0.035 A 
HETATM   19  C   UNL     1      43.260 -16.786   1.804  1.00  0.00     0.050 C 
HETATM   20  C   UNL     1      43.048 -14.406   2.461  1.00  0.00     0.011 A 
HETATM   21  C   UNL     1      42.978 -13.355   3.380  1.00  0.00     0.030 A 
BRANCH  17  22
HETATM   22  N   UNL     1      42.991 -17.308   4.858  1.00  0.00    -0.327 N 
HETATM   23  C   UNL     1      44.035 -18.203   4.989  1.00  0.00     0.218 C 
HETATM   24  C   UNL     1      43.625 -19.438   5.755  1.00  0.00     0.117 C 
HETATM   25  O   UNL     1      45.172 -18.090   4.549  1.00  0.00    -0.274 OA
HETATM   26  H   UNL     1      42.071 -17.709   4.989  1.00  0.00     0.169 HD
ENDBRANCH  17  22
ENDBRANCH  12  15
ENDBRANCH   1  11
BRANCH   8  27
HETATM   27  C   UNL     1      44.084  -9.275  10.845  1.00  0.00     0.409 C 
HETATM   28  F   UNL     1      45.203 -10.029  10.952  1.00  0.00    -0.169 F 
HETATM   29  F   UNL     1      44.077  -8.450  11.924  1.00  0.00    -0.169 F 
HETATM   30  F   UNL     1      43.029 -10.102  10.976  1.00  0.00    -0.169 F 
ENDBRANCH   8  27
BRANCH   6  31
HETATM   31  C   UNL     1      41.135  -7.160  10.984  1.00  0.00     0.075 A 
HETATM   32  O   UNL     1      41.007  -5.890  11.469  1.00  0.00    -0.325 OA
HETATM   33  C   UNL     1      40.379  -5.983  12.670  1.00  0.00     0.142 A 
HETATM   34  C   UNL     1      40.102  -7.296  12.967  1.00  0.00     0.027 A 
HETATM   35  C   UNL     1      40.588  -8.058  11.879  1.00  0.00     0.037 A 
ENDBRANCH   6  31
TORSDOF 5
ENDMDL
MODEL 5
REMARK VINA RESULT:      -8.6      2.010      2.307
REMARK  5 active torsions:
REMARK  status: ('A' for Active; 'I' for Inactive)
REMARK    1  A    between atoms: C_3  and  N_4 
REMARK       I    between atoms: N_4  and  C_5 
REMARK    2  A    between atoms: C_9  and  N_10 
REMARK       I    between atoms: N_10  and  C_11 
REMARK    3  A    between atoms: C_11  and  C_12 
REMARK    4  A    between atoms: C_17  and  C_18 
REMARK    5  A    between atoms: C_24  and  C_25 
ROOT
HETATM    1  C   UNL     1      41.575 -11.702   6.011  1.00  0.00     0.148 A 
HETATM    2  N   UNL     1      40.597 -12.636   5.925  1.00  0.00    -0.165 NA
HETATM    3  N   UNL     1      41.208 -13.658   5.296  1.00  0.00    -0.240 N 
HETATM    4  C   UNL     1      42.470 -13.375   4.864  1.00  0.00     0.123 A 
HETATM    5  N   UNL     1      43.161 -14.259   4.117  1.00  0.00    -0.364 N 
HETATM    6  C   UNL     1      42.494 -15.303   3.329  1.00  0.00     0.143 C 
HETATM    7  C   UNL     1      40.977 -15.394   3.613  1.00  0.00     0.068 C 
HETATM    8  C   UNL     1      40.552 -14.917   5.010  1.00  0.00     0.221 C 
HETATM    9  C   UNL     1      42.770 -12.141   5.372  1.00  0.00     0.089 A 
HETATM   10  H   UNL     1      44.086 -14.012   3.766  1.00  0.00     0.162 HD
ENDROOT
BRANCH   1  11
HETATM   11  C   UNL     1      41.375 -10.395   6.661  1.00  0.00     0.276 C 
HETATM   12  N   UNL     1      42.348 -10.121   7.603  1.00  0.00    -0.322 N 
HETATM   13  H   UNL     1      43.047 -10.854   7.692  1.00  0.00     0.169 HD
HETATM   14  O   UNL     1      40.414  -9.688   6.377  1.00  0.00    -0.266 OA
BRANCH  12  15
HETATM   15  C   UNL     1      42.435  -9.008   8.461  1.00  0.00     0.037 A 
HETATM   16  C   UNL     1      42.458  -9.100   9.854  1.00  0.00     0.059 A 
HETATM   17  C   UNL     1      42.591  -7.965  10.680  1.00  0.00     0.042 A 
HETATM   18  C   UNL     1      42.630  -6.693  10.086  1.00  0.00    -0.035 A 
HETATM   19  C   UNL     1      42.640  -5.392  10.839  1.00  0.00     0.050 C 
HETATM   20  C   UNL     1      42.620  -6.607   8.679  1.00  0.00     0.011 A 
HETATM   21  C   UNL     1      42.521  -7.748   7.877  1.00  0.00     0.030 A 
BRANCH  17  22
HETATM   22  N   UNL     1      42.623  -8.251  12.065  1.00  0.00    -0.327 N 
HETATM   23  C   UNL     1      41.562  -8.437  12.930  1.00  0.00     0.218 C 
HETATM   24  C   UNL     1      42.025  -8.784  14.324  1.00  0.00     0.117 C 
HETATM   25  O   UNL     1      40.368  -8.330  12.676  1.00  0.00    -0.274 OA
HETATM   26  H   UNL     1      43.508  -8.055  12.518  1.00  0.00     0.169 HD
ENDBRANCH  17  22
ENDBRANCH  12  15
ENDBRANCH   1  11
BRANCH   8  27
HETATM   27  C   UNL     1      40.846 -15.912   6.108  1.00  0.00     0.409 C 
HETATM   28  F   UNL     1      41.897 -15.522   6.868  1.00  0.00    -0.169 F 
HETATM   29  F   UNL     1      39.783 -16.003   6.949  1.00  0.00    -0.169 F 
HETATM   30  F   UNL     1      41.108 -17.159   5.671  1.00  0.00    -0.169 F 
ENDBRANCH   8  27
BRANCH   6  31
HETATM   31  C   UNL     1      43.162 -16.639   3.407  1.00  0.00     0.075 A 
HETATM   32  O   UNL     1      43.904 -16.877   4.529  1.00  0.00    -0.325 OA
HETATM   33  C   UNL     1      44.380 -18.145   4.431  1.00  0.00     0.142 A 
HETATM   34  C   UNL     1      43.958 -18.728   3.260  1.00  0.00     0.027 A 
HETATM   35  C   UNL     1      43.171 -17.757   2.598  1.00  0.00     0.037 A 
ENDBRANCH   6  31
TORSDOF 5
ENDMDL
MODEL 6
REMARK VINA RESULT:      -8.5      3.425      4.145
REMARK  5 active torsions:
REMARK  status: ('A' for Active; 'I' for Inactive)
REMARK    1  A    between atoms: C_3  and  N_4 
REMARK       I    between atoms: N_4  and  C_5 
REMARK    2  A    between atoms: C_9  and  N_10 
REMARK       I    between atoms: N_10  and  C_11 
REMARK    3  A    between atoms: C_11  and  C_12 
REMARK    4  A    between atoms: C_17  and  C_18 
REMARK    5  A    between atoms: C_24  and  C_25 
ROOT
HETATM    1  C   UNL     1      41.863 -10.541   6.710  1.00  0.00     0.148 A 
HETATM    2  N   UNL     1      42.873 -11.336   6.280  1.00  0.00    -0.165 NA
HETATM    3  N   UNL     1      42.286 -12.080   5.324  1.00  0.00    -0.240 N 
HETATM    4  C   UNL     1      40.939 -11.896   5.219  1.00  0.00     0.123 A 
HETATM    5  N   UNL     1      40.198 -12.655   4.387  1.00  0.00    -0.364 N 
HETATM    6  C   UNL     1      40.643 -13.981   3.940  1.00  0.00     0.143 C 
HETATM    7  C   UNL     1      42.098 -14.299   4.353  1.00  0.00     0.068 C 
HETATM    8  C   UNL     1      42.999 -13.069   4.541  1.00  0.00     0.221 C 
HETATM    9  C   UNL     1      40.640 -10.853   6.051  1.00  0.00     0.089 A 
HETATM   10  H   UNL     1      39.186 -12.532   4.355  1.00  0.00     0.162 HD
ENDROOT
BRANCH   1  11
HETATM   11  C   UNL     1      42.044  -9.519   7.756  1.00  0.00     0.276 C 
HETATM   12  N   UNL     1      42.226 -10.073   9.009  1.00  0.00    -0.322 N 
HETATM   13  H   UNL     1      42.215 -11.089   9.010  1.00  0.00     0.169 HD
HETATM   14  O   UNL     1      41.998  -8.323   7.486  1.00  0.00    -0.266 OA
BRANCH  12  15
HETATM   15  C   UNL     1      42.358  -9.404  10.241  1.00  0.00     0.037 A 
HETATM   16  C   UNL     1      41.278  -8.915  10.978  1.00  0.00     0.059 A 
HETATM   17  C   UNL     1      41.446  -8.290  12.231  1.00  0.00     0.042 A 
HETATM   18  C   UNL     1      42.745  -8.089  12.722  1.00  0.00    -0.035 A 
HETATM   19  C   UNL     1      43.085  -7.328  13.973  1.00  0.00     0.050 C 
HETATM   20  C   UNL     1      43.831  -8.598  11.980  1.00  0.00     0.011 A 
HETATM   21  C   UNL     1      43.641  -9.244  10.755  1.00  0.00     0.030 A 
BRANCH  17  22
HETATM   22  N   UNL     1      40.239  -7.882  12.847  1.00  0.00    -0.327 N 
HETATM   23  C   UNL     1      39.616  -6.650  12.785  1.00  0.00     0.218 C 
HETATM   24  C   UNL     1      38.307  -6.642  13.538  1.00  0.00     0.117 C 
HETATM   25  O   UNL     1      40.021  -5.638  12.227  1.00  0.00    -0.274 OA
HETATM   26  H   UNL     1      39.929  -8.474  13.608  1.00  0.00     0.169 HD
ENDBRANCH  17  22
ENDBRANCH  12  15
ENDBRANCH   1  11
BRANCH   8  27
HETATM   27  C   UNL     1      43.470 -12.455   3.243  1.00  0.00     0.409 C 
HETATM   28  F   UNL     1      44.596 -11.723   3.416  1.00  0.00    -0.169 F 
HETATM   29  F   UNL     1      43.786 -13.433   2.356  1.00  0.00    -0.169 F 
HETATM   30  F   UNL     1      42.562 -11.660   2.645  1.00  0.00    -0.169 F 
ENDBRANCH   8  27
BRANCH   6  31
HETATM   31  C   UNL     1      40.400 -14.241   2.487  1.00  0.00     0.075 A 
HETATM   32  O   UNL     1      39.989 -13.171   1.744  1.00  0.00    -0.325 OA
HETATM   33  C   UNL     1      39.874 -13.598   0.460  1.00  0.00     0.142 A 
HETATM   34  C   UNL     1      40.202 -14.929   0.364  1.00  0.00     0.027 A 
HETATM   35  C   UNL     1      40.543 -15.346   1.672  1.00  0.00     0.037 A 
ENDBRANCH   6  31
TORSDOF 5
ENDMDL
MODEL 7
REMARK VINA RESULT:      -8.3      7.598     10.703
REMARK  5 active torsions:
REMARK  status: ('A' for Active; 'I' for Inactive)
REMARK    1  A    between atoms: C_3  and  N_4 
REMARK       I    between atoms: N_4  and  C_5 
REMARK    2  A    between atoms: C_9  and  N_10 
REMARK       I    between atoms: N_10  and  C_11 
REMARK    3  A    between atoms: C_11  and  C_12 
REMARK    4  A    between atoms: C_17  and  C_18 
REMARK    5  A    between atoms: C_24  and  C_25 
ROOT
HETATM    1  C   UNL     1      39.817 -13.910   0.127  1.00  0.00     0.148 A 
HETATM    2  N   UNL     1      40.226 -13.083   1.120  1.00  0.00    -0.165 NA
HETATM    3  N   UNL     1      40.747 -13.932   2.026  1.00  0.00    -0.240 N 
HETATM    4  C   UNL     1      40.570 -15.250   1.724  1.00  0.00     0.123 A 
HETATM    5  N   UNL     1      40.935 -16.214   2.593  1.00  0.00    -0.364 N 
HETATM    6  C   UNL     1      41.066 -15.957   4.032  1.00  0.00     0.143 C 
HETATM    7  C   UNL     1      40.945 -14.458   4.389  1.00  0.00     0.068 C 
HETATM    8  C   UNL     1      41.352 -13.492   3.267  1.00  0.00     0.221 C 
HETATM    9  C   UNL     1      40.036 -15.276   0.466  1.00  0.00     0.089 A 
HETATM   10  H   UNL     1      40.755 -17.193   2.368  1.00  0.00     0.162 HD
ENDROOT
BRANCH   1  11
HETATM   11  C   UNL     1      39.196 -13.418  -1.115  1.00  0.00     0.276 C 
HETATM   12  N   UNL     1      39.017 -12.047  -1.108  1.00  0.00    -0.322 N 
HETATM   13  H   UNL     1      39.345 -11.598  -0.257  1.00  0.00     0.169 HD
HETATM   14  O   UNL     1      38.870 -14.192  -2.009  1.00  0.00    -0.266 OA
BRANCH  12  15
HETATM   15  C   UNL     1      38.395 -11.250  -2.087  1.00  0.00     0.037 A 
HETATM   16  C   UNL     1      37.012 -11.154  -2.247  1.00  0.00     0.059 A 
HETATM   17  C   UNL     1      36.424 -10.309  -3.211  1.00  0.00     0.042 A 
HETATM   18  C   UNL     1      37.256  -9.594  -4.087  1.00  0.00    -0.035 A 
HETATM   19  C   UNL     1      36.777  -8.758  -5.241  1.00  0.00     0.050 C 
HETATM   20  C   UNL     1      38.652  -9.684  -3.911  1.00  0.00     0.011 A 
HETATM   21  C   UNL     1      39.215 -10.502  -2.927  1.00  0.00     0.030 A 
BRANCH  17  22
HETATM   22  N   UNL     1      35.008 -10.319  -3.212  1.00  0.00    -0.327 N 
HETATM   23  C   UNL     1      34.156 -11.234  -3.799  1.00  0.00     0.218 C 
HETATM   24  C   UNL     1      32.708 -10.916  -3.515  1.00  0.00     0.117 C 
HETATM   25  O   UNL     1      34.460 -12.196  -4.493  1.00  0.00    -0.274 OA
HETATM   26  H   UNL     1      34.578  -9.435  -2.970  1.00  0.00     0.169 HD
ENDBRANCH  17  22
ENDBRANCH  12  15
ENDBRANCH   1  11
BRANCH   8  27
HETATM   27  C   UNL     1      42.847 -13.360   3.090  1.00  0.00     0.409 C 
HETATM   28  F   UNL     1      43.193 -12.121   2.668  1.00  0.00    -0.169 F 
HETATM   29  F   UNL     1      43.472 -13.543   4.283  1.00  0.00    -0.169 F 
HETATM   30  F   UNL     1      43.383 -14.242   2.226  1.00  0.00    -0.169 F 
ENDBRANCH   8  27
BRANCH   6  31
HETATM   31  C   UNL     1      42.273 -16.588   4.651  1.00  0.00     0.075 A 
HETATM   32  O   UNL     1      42.153 -16.961   5.960  1.00  0.00    -0.325 OA
HETATM   33  C   UNL     1      43.323 -17.550   6.315  1.00  0.00     0.142 A 
HETATM   34  C   UNL     1      44.198 -17.560   5.256  1.00  0.00     0.027 A 
HETATM   35  C   UNL     1      43.521 -16.940   4.180  1.00  0.00     0.037 A 
ENDBRANCH   6  31
TORSDOF 5
ENDMDL
MODEL 8
REMARK VINA RESULT:      -8.2      3.523     10.292
REMARK  5 active torsions:
REMARK  status: ('A' for Active; 'I' for Inactive)
REMARK    1  A    between atoms: C_3  and  N_4 
REMARK       I    between atoms: N_4  and  C_5 
REMARK    2  A    between atoms: C_9  and  N_10 
REMARK       I    between atoms: N_10  and  C_11 
REMARK    3  A    between atoms: C_11  and  C_12 
REMARK    4  A    between atoms: C_17  and  C_18 
REMARK    5  A    between atoms: C_24  and  C_25 
ROOT
HETATM    1  C   UNL     1      43.474  -9.964   9.529  1.00  0.00     0.148 A 
HETATM    2  N   UNL     1      43.275 -10.410  10.793  1.00  0.00    -0.165 NA
HETATM    3  N   UNL     1      42.845  -9.309  11.438  1.00  0.00    -0.240 N 
HETATM    4  C   UNL     1      42.888  -8.169  10.690  1.00  0.00     0.123 A 
HETATM    5  N   UNL     1      42.599  -6.971  11.236  1.00  0.00    -0.364 N 
HETATM    6  C   UNL     1      42.706  -6.727  12.680  1.00  0.00     0.143 C 
HETATM    7  C   UNL     1      42.976  -8.015  13.490  1.00  0.00     0.068 C 
HETATM    8  C   UNL     1      42.465  -9.308  12.836  1.00  0.00     0.221 C 
HETATM    9  C   UNL     1      43.222  -8.566   9.425  1.00  0.00     0.089 A 
HETATM   10  H   UNL     1      42.679  -6.125  10.672  1.00  0.00     0.162 HD
ENDROOT
BRANCH   1  11
HETATM   11  C   UNL     1      43.929 -10.842   8.437  1.00  0.00     0.276 C 
HETATM   12  N   UNL     1      42.920 -11.131   7.537  1.00  0.00    -0.322 N 
HETATM   13  H   UNL     1      42.033 -10.689   7.765  1.00  0.00     0.169 HD
HETATM   14  O   UNL     1      45.080 -11.262   8.401  1.00  0.00    -0.266 OA
BRANCH  12  15
HETATM   15  C   UNL     1      42.973 -11.986   6.421  1.00  0.00     0.037 A 
HETATM   16  C   UNL     1      42.912 -13.378   6.505  1.00  0.00     0.059 A 
HETATM   17  C   UNL     1      42.922 -14.202   5.361  1.00  0.00     0.042 A 
HETATM   18  C   UNL     1      43.071 -13.608   4.097  1.00  0.00    -0.035 A 
HETATM   19  C   UNL     1      43.228 -14.361   2.805  1.00  0.00     0.050 C 
HETATM   20  C   UNL     1      43.119 -12.201   4.017  1.00  0.00     0.011 A 
HETATM   21  C   UNL     1      43.073 -11.401   5.162  1.00  0.00     0.030 A 
BRANCH  17  22
HETATM   22  N   UNL     1      42.825 -15.587   5.636  1.00  0.00    -0.327 N 
HETATM   23  C   UNL     1      43.798 -16.436   6.126  1.00  0.00     0.218 C 
HETATM   24  C   UNL     1      43.270 -17.835   6.336  1.00  0.00     0.117 C 
HETATM   25  O   UNL     1      44.968 -16.167   6.367  1.00  0.00    -0.274 OA
HETATM   26  H   UNL     1      42.039 -16.052   5.197  1.00  0.00     0.169 HD
ENDBRANCH  17  22
ENDBRANCH  12  15
ENDBRANCH   1  11
BRANCH   8  27
HETATM   27  C   UNL     1      40.972  -9.506  12.964  1.00  0.00     0.409 C 
HETATM   28  F   UNL     1      40.468  -8.836  14.026  1.00  0.00    -0.169 F 
HETATM   29  F   UNL     1      40.344  -9.007  11.867  1.00  0.00    -0.169 F 
HETATM   30  F   UNL     1      40.593 -10.792  13.083  1.00  0.00    -0.169 F 
ENDBRANCH   8  27
BRANCH   6  31
HETATM   31  C   UNL     1      41.570  -5.935  13.244  1.00  0.00     0.075 A 
HETATM   32  O   UNL     1      40.429  -5.899  12.494  1.00  0.00    -0.325 OA
HETATM   33  C   UNL     1      39.513  -5.181  13.194  1.00  0.00     0.142 A 
HETATM   34  C   UNL     1      40.048  -4.749  14.384  1.00  0.00     0.027 A 
HETATM   35  C   UNL     1      41.376  -5.236  14.419  1.00  0.00     0.037 A 
ENDBRANCH   6  31
TORSDOF 5
ENDMDL
MODEL 9
REMARK VINA RESULT:      -8.2     18.284     20.519
REMARK  5 active torsions:
REMARK  status: ('A' for Active; 'I' for Inactive)
REMARK    1  A    between atoms: C_3  and  N_4 
REMARK       I    between atoms: N_4  and  C_5 
REMARK    2  A    between atoms: C_9  and  N_10 
REMARK       I    between atoms: N_10  and  C_11 
REMARK    3  A    between atoms: C_11  and  C_12 
REMARK    4  A    between atoms: C_17  and  C_18 
REMARK    5  A    between atoms: C_24  and  C_25 
ROOT
HETATM    1  C   UNL     1      48.384 -29.538   2.057  1.00  0.00     0.148 A 
HETATM    2  N   UNL     1      47.281 -28.766   1.903  1.00  0.00    -0.165 NA
HETATM    3  N   UNL     1      46.978 -28.927   0.601  1.00  0.00    -0.240 N 
HETATM    4  C   UNL     1      47.898 -29.646  -0.103  1.00  0.00     0.123 A 
HETATM    5  N   UNL     1      47.790 -29.791  -1.439  1.00  0.00    -0.364 N 
HETATM    6  C   UNL     1      47.031 -28.845  -2.266  1.00  0.00     0.143 C 
HETATM    7  C   UNL     1      46.229 -27.822  -1.428  1.00  0.00     0.068 C 
HETATM    8  C   UNL     1      45.829 -28.308  -0.027  1.00  0.00     0.221 C 
HETATM    9  C   UNL     1      48.787 -30.120   0.821  1.00  0.00     0.089 A 
HETATM   10  H   UNL     1      48.511 -30.295  -1.954  1.00  0.00     0.162 HD
ENDROOT
BRANCH   1  11
HETATM   11  C   UNL     1      49.070 -29.699   3.351  1.00  0.00     0.276 C 
HETATM   12  N   UNL     1      49.485 -30.999   3.570  1.00  0.00    -0.322 N 
HETATM   13  H   UNL     1      49.260 -31.632   2.806  1.00  0.00     0.169 HD
HETATM   14  O   UNL     1      49.201 -28.752   4.119  1.00  0.00    -0.266 OA
BRANCH  12  15
HETATM   15  C   UNL     1      50.104 -31.529   4.717  1.00  0.00     0.037 A 
HETATM   16  C   UNL     1      51.435 -31.288   5.063  1.00  0.00     0.059 A 
HETATM   17  C   UNL     1      52.008 -31.799   6.246  1.00  0.00     0.042 A 
HETATM   18  C   UNL     1      51.238 -32.638   7.067  1.00  0.00    -0.035 A 
HETATM   19  C   UNL     1      51.750 -33.357   8.284  1.00  0.00     0.050 C 
HETATM   20  C   UNL     1      49.891 -32.867   6.720  1.00  0.00     0.011 A 
HETATM   21  C   UNL     1      49.332 -32.322   5.560  1.00  0.00     0.030 A 
BRANCH  17  22
HETATM   22  N   UNL     1      53.360 -31.431   6.447  1.00  0.00    -0.327 N 
HETATM   23  C   UNL     1      54.491 -32.216   6.334  1.00  0.00     0.218 C 
HETATM   24  C   UNL     1      55.753 -31.423   6.574  1.00  0.00     0.117 C 
HETATM   25  O   UNL     1      54.543 -33.416   6.094  1.00  0.00    -0.274 OA
HETATM   26  H   UNL     1      53.492 -30.571   6.965  1.00  0.00     0.169 HD
ENDBRANCH  17  22
ENDBRANCH  12  15
ENDBRANCH   1  11
BRANCH   8  27
HETATM   27  C   UNL     1      44.662 -29.268  -0.026  1.00  0.00     0.409 C 
HETATM   28  F   UNL     1      44.026 -29.280   1.169  1.00  0.00    -0.169 F 
HETATM   29  F   UNL     1      43.739 -28.877  -0.943  1.00  0.00    -0.169 F 
HETATM   30  F   UNL     1      44.992 -30.541  -0.318  1.00  0.00    -0.169 F 
ENDBRANCH   8  27
BRANCH   6  31
HETATM   31  C   UNL     1      46.187 -29.499  -3.313  1.00  0.00     0.075 A 
HETATM   32  O   UNL     1      46.527 -30.779  -3.647  1.00  0.00    -0.325 OA
HETATM   33  C   UNL     1      45.622 -31.206  -4.566  1.00  0.00     0.142 A 
HETATM   34  C   UNL     1      44.705 -30.218  -4.832  1.00  0.00     0.027 A 
HETATM   35  C   UNL     1      45.067 -29.115  -4.023  1.00  0.00     0.037 A 
ENDBRANCH   6  31
TORSDOF 5
ENDMDL
MODEL 10
REMARK VINA RESULT:      -8.1      2.994      3.923
REMARK  5 active torsions:
REMARK  status: ('A' for Active; 'I' for Inactive)
REMARK    1  A    between atoms: C_3  and  N_4 
REMARK       I    between atoms: N_4  and  C_5 
REMARK    2  A    between atoms: C_9  and  N_10 
REMARK       I    between atoms: N_10  and  C_11 
REMARK    3  A    between atoms: C_11  and  C_12 
REMARK    4  A    between atoms: C_17  and  C_18 
REMARK    5  A    between atoms: C_24  and  C_25 
ROOT
HETATM    1  C   UNL     1      42.634 -10.063   7.255  1.00  0.00     0.148 A 
HETATM    2  N   UNL     1      41.502 -10.259   6.535  1.00  0.00    -0.165 NA
HETATM    3  N   UNL     1      41.860 -11.224   5.667  1.00  0.00    -0.240 N 
HETATM    4  C   UNL     1      43.183 -11.552   5.708  1.00  0.00     0.123 A 
HETATM    5  N   UNL     1      43.710 -12.418   4.819  1.00  0.00    -0.364 N 
HETATM    6  C   UNL     1      43.086 -12.672   3.515  1.00  0.00     0.143 C 
HETATM    7  C   UNL     1      41.694 -12.012   3.375  1.00  0.00     0.068 C 
HETATM    8  C   UNL     1      40.946 -11.797   4.699  1.00  0.00     0.221 C 
HETATM    9  C   UNL     1      43.702 -10.872   6.774  1.00  0.00     0.089 A 
HETATM   10  H   UNL     1      44.710 -12.618   4.838  1.00  0.00     0.162 HD
ENDROOT
BRANCH   1  11
HETATM   11  C   UNL     1      42.714  -9.097   8.364  1.00  0.00     0.276 C 
HETATM   12  N   UNL     1      42.327  -9.647   9.572  1.00  0.00    -0.322 N 
HETATM   13  H   UNL     1      42.058 -10.625   9.505  1.00  0.00     0.169 HD
HETATM   14  O   UNL     1      43.065  -7.938   8.169  1.00  0.00    -0.266 OA
BRANCH  12  15
HETATM   15  C   UNL     1      42.212  -9.005  10.819  1.00  0.00     0.037 A 
HETATM   16  C   UNL     1      41.013  -8.499  11.324  1.00  0.00     0.059 A 
HETATM   17  C   UNL     1      40.928  -7.903  12.599  1.00  0.00     0.042 A 
HETATM   18  C   UNL     1      42.099  -7.746  13.357  1.00  0.00    -0.035 A 
HETATM   19  C   UNL     1      42.185  -7.018  14.669  1.00  0.00     0.050 C 
HETATM   20  C   UNL     1      43.304  -8.271  12.847  1.00  0.00     0.011 A 
HETATM   21  C   UNL     1      43.361  -8.890  11.595  1.00  0.00     0.030 A 
BRANCH  17  22
HETATM   22  N   UNL     1      39.628  -7.472  12.957  1.00  0.00    -0.327 N 
HETATM   23  C   UNL     1      39.041  -6.239  12.744  1.00  0.00     0.218 C 
HETATM   24  C   UNL     1      37.611  -6.205  13.226  1.00  0.00     0.117 C 
HETATM   25  O   UNL     1      39.558  -5.245  12.250  1.00  0.00    -0.274 OA
HETATM   26  H   UNL     1      39.170  -8.042  13.658  1.00  0.00     0.169 HD
ENDBRANCH  17  22
ENDBRANCH  12  15
ENDBRANCH   1  11
BRANCH   8  27
HETATM   27  C   UNL     1      40.326 -13.055   5.259  1.00  0.00     0.409 C 
HETATM   28  F   UNL     1      39.147 -12.801   5.874  1.00  0.00    -0.169 F 
HETATM   29  F   UNL     1      40.048 -13.923   4.251  1.00  0.00    -0.169 F 
HETATM   30  F   UNL     1      41.105 -13.712   6.140  1.00  0.00    -0.169 F 
ENDBRANCH   8  27
BRANCH   6  31
HETATM   31  C   UNL     1      43.066 -14.116   3.125  1.00  0.00     0.075 A 
HETATM   32  O   UNL     1      43.201 -14.382   1.792  1.00  0.00    -0.325 OA
HETATM   33  C   UNL     1      43.208 -15.733   1.654  1.00  0.00     0.142 A 
HETATM   34  C   UNL     1      43.077 -16.343   2.878  1.00  0.00     0.027 A 
HETATM   35  C   UNL     1      42.986 -15.300   3.830  1.00  0.00     0.037 A 
ENDBRANCH   6  31
TORSDOF 5
ENDMDL
