MODEL 1
REMARK VINA RESULT:      -8.5      0.000      0.000
REMARK  4 active torsions:
REMARK  status: ('A' for Active; 'I' for Inactive)
REMARK    1  A    between atoms: C_2  and  C_3 
REMARK    2  A    between atoms: C_7  and  N_8 
REMARK       I    between atoms: N_8  and  C_9 
REMARK    3  A    between atoms: C_9  and  C_10 
REMARK    4  A    between atoms: C_12  and  C_13 
ROOT
HETATM    1  C   UNL     1      42.582 -14.000   6.310  1.00  0.00     0.149 A 
HETATM    2  N   UNL     1      43.648 -13.449   7.016  1.00  0.00    -0.223 NA
HETATM    3  C   UNL     1      43.390 -12.158   7.139  1.00  0.00     0.139 A 
HETATM    4  N   UNL     1      42.184 -11.865   6.544  1.00  0.00    -0.342 N 
HETATM    5  H   UNL     1      41.774 -10.946   6.476  1.00  0.00     0.167 HD
HETATM    6  C   UNL     1      41.660 -13.015   6.012  1.00  0.00     0.041 A 
HETATM    7  C   UNL     1      40.371 -13.057   5.284  1.00  0.00     0.071 C 
ENDROOT
BRANCH   1   8
HETATM    8  C   UNL     1      42.522 -15.427   5.955  1.00  0.00     0.278 C 
HETATM    9  N   UNL     1      43.498 -15.727   5.033  1.00  0.00    -0.304 N 
HETATM   10  H   UNL     1      44.108 -14.960   4.781  1.00  0.00     0.171 HD
HETATM   11  O   UNL     1      41.697 -16.178   6.459  1.00  0.00    -0.265 OA
BRANCH   9  12
HETATM   12  C   UNL     1      43.684 -16.939   4.413  1.00  0.00     0.158 A 
HETATM   13  N   UNL     1      44.481 -17.905   4.867  1.00  0.00    -0.156 NA
HETATM   14  N   UNL     1      44.329 -18.911   4.004  1.00  0.00    -0.280 N 
HETATM   15  C   UNL     1      43.463 -18.635   2.985  1.00  0.00     0.037 A 
HETATM   16  H   UNL     1      44.848 -19.765   4.176  1.00  0.00     0.189 HD
HETATM   17  C   UNL     1      43.030 -17.339   3.208  1.00  0.00     0.010 A 
HETATM   18  C   UNL     1      42.082 -16.559   2.374  1.00  0.00     0.054 C 
BRANCH  15  19
HETATM   19  C   UNL     1      43.147 -19.633   1.928  1.00  0.00     0.055 C 
HETATM   20  C   UNL     1      43.936 -20.920   2.121  1.00  0.00     0.011 C 
ENDBRANCH  15  19
ENDBRANCH   9  12
ENDBRANCH   1   8
BRANCH   3  21
HETATM   21  C   UNL     1      44.263 -11.161   7.765  1.00  0.00     0.012 A 
HETATM   22  C   UNL     1      43.893 -10.609   9.001  1.00  0.00     0.039 A 
HETATM   23  C   UNL     1      44.711  -9.672   9.631  1.00  0.00     0.035 A 
HETATM   24 CL   UNL     1      44.246  -9.016  11.153  1.00  0.00    -0.084 Cl
HETATM   25  C   UNL     1      45.904  -9.264   9.040  1.00  0.00     0.024 A 
HETATM   26  C   UNL     1      46.278  -9.794   7.807  1.00  0.00     0.003 A 
HETATM   27  C   UNL     1      45.463 -10.736   7.172  1.00  0.00     0.015 A 
ENDBRANCH   3  21
TORSDOF 4
ENDMDL
MODEL 2
REMARK VINA RESULT:      -8.2      3.293      8.550
REMARK  4 active torsions:
REMARK  status: ('A' for Active; 'I' for Inactive)
REMARK    1  A    between atoms: C_2  and  C_3 
REMARK    2  A    between atoms: C_7  and  N_8 
REMARK       I    between atoms: N_8  and  C_9 
REMARK    3  A    between atoms: C_9  and  C_10 
REMARK    4  A    between atoms: C_12  and  C_13 
ROOT
HETATM    1  C   UNL     1      42.717 -14.506   4.515  1.00  0.00     0.149 A 
HETATM    2  N   UNL     1      42.912 -15.859   4.773  1.00  0.00    -0.223 NA
HETATM    3  C   UNL     1      43.153 -16.434   3.607  1.00  0.00     0.139 A 
HETATM    4  N   UNL     1      43.131 -15.487   2.608  1.00  0.00    -0.342 N 
HETATM    5  H   UNL     1      43.259 -15.672   1.624  1.00  0.00     0.167 HD
HETATM    6  C   UNL     1      42.854 -14.264   3.161  1.00  0.00     0.041 A 
HETATM    7  C   UNL     1      42.742 -13.020   2.365  1.00  0.00     0.071 C 
ENDROOT
BRANCH   1   8
HETATM    8  C   UNL     1      42.398 -13.536   5.575  1.00  0.00     0.278 C 
HETATM    9  N   UNL     1      43.482 -12.725   5.817  1.00  0.00    -0.304 N 
HETATM   10  H   UNL     1      44.286 -12.887   5.225  1.00  0.00     0.171 HD
HETATM   11  O   UNL     1      41.297 -13.512   6.111  1.00  0.00    -0.265 OA
BRANCH   9  12
HETATM   12  C   UNL     1      43.575 -11.764   6.795  1.00  0.00     0.158 A 
HETATM   13  N   UNL     1      44.285 -11.893   7.915  1.00  0.00    -0.156 NA
HETATM   14  N   UNL     1      44.143 -10.728   8.549  1.00  0.00    -0.280 N 
HETATM   15  C   UNL     1      43.351  -9.835   7.886  1.00  0.00     0.037 A 
HETATM   16  H   UNL     1      44.623 -10.608   9.435  1.00  0.00     0.189 HD
HETATM   17  C   UNL     1      42.941 -10.487   6.735  1.00  0.00     0.010 A 
HETATM   18  C   UNL     1      42.051  -9.951   5.674  1.00  0.00     0.054 C 
BRANCH  15  19
HETATM   19  C   UNL     1      43.081  -8.473   8.421  1.00  0.00     0.055 C 
HETATM   20  C   UNL     1      44.351  -7.814   8.939  1.00  0.00     0.011 C 
ENDBRANCH  15  19
ENDBRANCH   9  12
ENDBRANCH   1   8
BRANCH   3  21
HETATM   21  C   UNL     1      43.365 -17.866   3.379  1.00  0.00     0.012 A 
HETATM   22  C   UNL     1      43.827 -18.665   4.436  1.00  0.00     0.039 A 
HETATM   23  C   UNL     1      44.021 -20.034   4.255  1.00  0.00     0.035 A 
HETATM   24 CL   UNL     1      44.577 -21.000   5.567  1.00  0.00    -0.084 Cl
HETATM   25  C   UNL     1      43.767 -20.628   3.021  1.00  0.00     0.024 A 
HETATM   26  C   UNL     1      43.320 -19.845   1.960  1.00  0.00     0.003 A 
HETATM   27  C   UNL     1      43.121 -18.472   2.136  1.00  0.00     0.015 A 
ENDBRANCH   3  21
TORSDOF 4
ENDMDL
MODEL 3
REMARK VINA RESULT:      -8.2      6.292      8.967
REMARK  4 active torsions:
REMARK  status: ('A' for Active; 'I' for Inactive)
REMARK    1  A    between atoms: C_2  and  C_3 
REMARK    2  A    between atoms: C_7  and  N_8 
REMARK       I    between atoms: N_8  and  C_9 
REMARK    3  A    between atoms: C_9  and  C_10 
REMARK    4  A    between atoms: C_12  and  C_13 
ROOT
HETATM    1  C   UNL     1      40.916 -14.180   1.637  1.00  0.00     0.149 A 
HETATM    2  N   UNL     1      41.758 -15.285   1.536  1.00  0.00    -0.223 NA
HETATM    3  C   UNL     1      41.890 -15.769   2.759  1.00  0.00     0.139 A 
HETATM    4  N   UNL     1      41.148 -15.017   3.641  1.00  0.00    -0.342 N 
HETATM    5  H   UNL     1      41.101 -15.163   4.638  1.00  0.00     0.167 HD
HETATM    6  C   UNL     1      40.529 -14.006   2.952  1.00  0.00     0.041 A 
HETATM    7  C   UNL     1      39.659 -12.998   3.600  1.00  0.00     0.071 C 
ENDROOT
BRANCH   1   8
HETATM    8  C   UNL     1      40.551 -13.356   0.474  1.00  0.00     0.278 C 
HETATM    9  N   UNL     1      39.311 -13.722   0.005  1.00  0.00    -0.304 N 
HETATM   10  H   UNL     1      38.842 -14.445   0.534  1.00  0.00     0.171 HD
HETATM   11  O   UNL     1      41.295 -12.481   0.050  1.00  0.00    -0.265 OA
BRANCH   9  12
HETATM   12  C   UNL     1      38.688 -13.226  -1.116  1.00  0.00     0.158 A 
HETATM   13  N   UNL     1      38.767 -13.774  -2.327  1.00  0.00    -0.156 NA
HETATM   14  N   UNL     1      37.985 -13.017  -3.099  1.00  0.00    -0.280 N 
HETATM   15  C   UNL     1      37.400 -11.977  -2.436  1.00  0.00     0.037 A 
HETATM   16  H   UNL     1      37.893 -13.273  -4.076  1.00  0.00     0.189 HD
HETATM   17  C   UNL     1      37.853 -12.069  -1.130  1.00  0.00     0.010 A 
HETATM   18  C   UNL     1      37.518 -11.162  -0.004  1.00  0.00     0.054 C 
BRANCH  15  19
HETATM   19  C   UNL     1      36.481 -11.025  -3.116  1.00  0.00     0.055 C 
HETATM   20  C   UNL     1      37.214  -9.774  -3.578  1.00  0.00     0.011 C 
ENDBRANCH  15  19
ENDBRANCH   9  12
ENDBRANCH   1   8
BRANCH   3  21
HETATM   21  C   UNL     1      42.731 -16.905   3.150  1.00  0.00     0.012 A 
HETATM   22  C   UNL     1      42.779 -18.036   2.322  1.00  0.00     0.039 A 
HETATM   23  C   UNL     1      43.584 -19.125   2.658  1.00  0.00     0.035 A 
HETATM   24 CL   UNL     1      43.639 -20.499   1.623  1.00  0.00    -0.084 Cl
HETATM   25  C   UNL     1      44.346 -19.108   3.823  1.00  0.00     0.024 A 
HETATM   26  C   UNL     1      44.299 -17.996   4.661  1.00  0.00     0.003 A 
HETATM   27  C   UNL     1      43.495 -16.901   4.328  1.00  0.00     0.015 A 
ENDBRANCH   3  21
TORSDOF 4
ENDMDL
MODEL 4
REMARK VINA RESULT:      -8.1      3.557      8.643
REMARK  4 active torsions:
REMARK  status: ('A' for Active; 'I' for Inactive)
REMARK    1  A    between atoms: C_2  and  C_3 
REMARK    2  A    between atoms: C_7  and  N_8 
REMARK       I    between atoms: N_8  and  C_9 
REMARK    3  A    between atoms: C_9  and  C_10 
REMARK    4  A    between atoms: C_12  and  C_13 
ROOT
HETATM    1  C   UNL     1      42.684 -14.182   4.643  1.00  0.00     0.149 A 
HETATM    2  N   UNL     1      42.929 -15.464   5.127  1.00  0.00    -0.223 NA
HETATM    3  C   UNL     1      43.212 -16.215   4.078  1.00  0.00     0.139 A 
HETATM    4  N   UNL     1      43.169 -15.452   2.933  1.00  0.00    -0.342 N 
HETATM    5  H   UNL     1      43.320 -15.795   1.996  1.00  0.00     0.167 HD
HETATM    6  C   UNL     1      42.834 -14.166   3.269  1.00  0.00     0.041 A 
HETATM    7  C   UNL     1      42.685 -13.080   2.273  1.00  0.00     0.071 C 
ENDROOT
BRANCH   1   8
HETATM    8  C   UNL     1      42.309 -13.063   5.521  1.00  0.00     0.278 C 
HETATM    9  N   UNL     1      43.409 -12.280   5.786  1.00  0.00    -0.304 N 
HETATM   10  H   UNL     1      44.263 -12.560   5.323  1.00  0.00     0.171 HD
HETATM   11  O   UNL     1      41.158 -12.912   5.910  1.00  0.00    -0.265 OA
BRANCH   9  12
HETATM   12  C   UNL     1      43.451 -11.200   6.635  1.00  0.00     0.158 A 
HETATM   13  N   UNL     1      42.383 -10.510   7.033  1.00  0.00    -0.156 NA
HETATM   14  N   UNL     1      42.859  -9.594   7.877  1.00  0.00    -0.280 N 
HETATM   15  C   UNL     1      44.214  -9.651   8.042  1.00  0.00     0.037 A 
HETATM   16  H   UNL     1      42.198  -8.960   8.312  1.00  0.00     0.189 HD
HETATM   17  C   UNL     1      44.643 -10.684   7.226  1.00  0.00     0.010 A 
HETATM   18  C   UNL     1      46.040 -11.148   7.034  1.00  0.00     0.054 C 
BRANCH  15  19
HETATM   19  C   UNL     1      44.936  -8.723   8.954  1.00  0.00     0.055 C 
HETATM   20  C   UNL     1      45.202  -9.366  10.308  1.00  0.00     0.011 C 
ENDBRANCH  15  19
ENDBRANCH   9  12
ENDBRANCH   1   8
BRANCH   3  21
HETATM   21  C   UNL     1      43.486 -17.656   4.097  1.00  0.00     0.012 A 
HETATM   22  C   UNL     1      43.429 -18.378   2.896  1.00  0.00     0.039 A 
HETATM   23  C   UNL     1      43.703 -19.745   2.879  1.00  0.00     0.035 A 
HETATM   24 CL   UNL     1      43.641 -20.612   1.393  1.00  0.00    -0.084 Cl
HETATM   25  C   UNL     1      44.029 -20.416   4.055  1.00  0.00     0.024 A 
HETATM   26  C   UNL     1      44.077 -19.714   5.257  1.00  0.00     0.003 A 
HETATM   27  C   UNL     1      43.805 -18.342   5.279  1.00  0.00     0.015 A 
ENDBRANCH   3  21
TORSDOF 4
ENDMDL
MODEL 5
REMARK VINA RESULT:      -8.1      6.440      9.048
REMARK  4 active torsions:
REMARK  status: ('A' for Active; 'I' for Inactive)
REMARK    1  A    between atoms: C_2  and  C_3 
REMARK    2  A    between atoms: C_7  and  N_8 
REMARK       I    between atoms: N_8  and  C_9 
REMARK    3  A    between atoms: C_9  and  C_10 
REMARK    4  A    between atoms: C_12  and  C_13 
ROOT
HETATM    1  C   UNL     1      40.632 -14.500   0.995  1.00  0.00     0.149 A 
HETATM    2  N   UNL     1      41.547 -15.544   1.093  1.00  0.00    -0.223 NA
HETATM    3  C   UNL     1      41.667 -15.820   2.380  1.00  0.00     0.139 A 
HETATM    4  N   UNL     1      40.845 -14.992   3.112  1.00  0.00    -0.342 N 
HETATM    5  H   UNL     1      40.772 -14.983   4.119  1.00  0.00     0.167 HD
HETATM    6  C   UNL     1      40.186 -14.149   2.256  1.00  0.00     0.041 A 
HETATM    7  C   UNL     1      39.230 -13.115   2.712  1.00  0.00     0.071 C 
ENDROOT
BRANCH   1   8
HETATM    8  C   UNL     1      40.255 -13.896  -0.293  1.00  0.00     0.278 C 
HETATM    9  N   UNL     1      41.155 -12.914  -0.638  1.00  0.00    -0.304 N 
HETATM   10  H   UNL     1      41.929 -12.791   0.001  1.00  0.00     0.171 HD
HETATM   11  O   UNL     1      39.271 -14.275  -0.914  1.00  0.00    -0.265 OA
BRANCH   9  12
HETATM   12  C   UNL     1      41.072 -12.084  -1.730  1.00  0.00     0.158 A 
HETATM   13  N   UNL     1      41.317 -12.459  -2.984  1.00  0.00    -0.156 NA
HETATM   14  N   UNL     1      41.074 -11.375  -3.722  1.00  0.00    -0.280 N 
HETATM   15  C   UNL     1      40.685 -10.289  -2.991  1.00  0.00     0.037 A 
HETATM   16  H   UNL     1      41.190 -11.449  -4.727  1.00  0.00     0.189 HD
HETATM   17  C   UNL     1      40.689 -10.710  -1.672  1.00  0.00     0.010 A 
HETATM   18  C   UNL     1      40.352  -9.899  -0.475  1.00  0.00     0.054 C 
BRANCH  15  19
HETATM   19  C   UNL     1      40.352  -8.987  -3.630  1.00  0.00     0.055 C 
HETATM   20  C   UNL     1      41.607  -8.200  -3.979  1.00  0.00     0.011 C 
ENDBRANCH  15  19
ENDBRANCH   9  12
ENDBRANCH   1   8
BRANCH   3  21
HETATM   21  C   UNL     1      42.566 -16.817   2.968  1.00  0.00     0.012 A 
HETATM   22  C   UNL     1      42.790 -18.022   2.286  1.00  0.00     0.039 A 
HETATM   23  C   UNL     1      43.654 -18.982   2.810  1.00  0.00     0.035 A 
HETATM   24 CL   UNL     1      43.926 -20.449   1.952  1.00  0.00    -0.084 Cl
HETATM   25  C   UNL     1      44.302 -18.763   4.024  1.00  0.00     0.024 A 
HETATM   26  C   UNL     1      44.080 -17.576   4.718  1.00  0.00     0.003 A 
HETATM   27  C   UNL     1      43.216 -16.609   4.195  1.00  0.00     0.015 A 
ENDBRANCH   3  21
TORSDOF 4
ENDMDL
MODEL 6
REMARK VINA RESULT:      -7.8      5.165      8.553
REMARK  4 active torsions:
REMARK  status: ('A' for Active; 'I' for Inactive)
REMARK    1  A    between atoms: C_2  and  C_3 
REMARK    2  A    between atoms: C_7  and  N_8 
REMARK       I    between atoms: N_8  and  C_9 
REMARK    3  A    between atoms: C_9  and  C_10 
REMARK    4  A    between atoms: C_12  and  C_13 
ROOT
HETATM    1  C   UNL     1      41.797 -14.872   2.790  1.00  0.00     0.149 A 
HETATM    2  N   UNL     1      41.845 -16.206   2.396  1.00  0.00    -0.223 NA
HETATM    3  C   UNL     1      42.712 -16.803   3.195  1.00  0.00     0.139 A 
HETATM    4  N   UNL     1      43.214 -15.895   4.100  1.00  0.00    -0.342 N 
HETATM    5  H   UNL     1      43.913 -16.093   4.800  1.00  0.00     0.167 HD
HETATM    6  C   UNL     1      42.651 -14.669   3.858  1.00  0.00     0.041 A 
HETATM    7  C   UNL     1      42.980 -13.456   4.641  1.00  0.00     0.071 C 
ENDROOT
BRANCH   1   8
HETATM    8  C   UNL     1      40.952 -13.877   2.111  1.00  0.00     0.278 C 
HETATM    9  N   UNL     1      41.360 -13.718   0.807  1.00  0.00    -0.304 N 
HETATM   10  H   UNL     1      42.123 -14.315   0.516  1.00  0.00     0.171 HD
HETATM   11  O   UNL     1      40.028 -13.319   2.691  1.00  0.00    -0.265 OA
BRANCH   9  12
HETATM   12  C   UNL     1      40.858 -12.813  -0.096  1.00  0.00     0.158 A 
HETATM   13  N   UNL     1      41.194 -11.525  -0.142  1.00  0.00    -0.156 NA
HETATM   14  N   UNL     1      40.523 -11.030  -1.184  1.00  0.00    -0.280 N 
HETATM   15  C   UNL     1      39.744 -11.952  -1.823  1.00  0.00     0.037 A 
HETATM   16  H   UNL     1      40.650 -10.049  -1.406  1.00  0.00     0.189 HD
HETATM   17  C   UNL     1      39.922 -13.135  -1.126  1.00  0.00     0.010 A 
HETATM   18  C   UNL     1      39.283 -14.444  -1.412  1.00  0.00     0.054 C 
BRANCH  15  19
HETATM   19  C   UNL     1      38.930 -11.601  -3.018  1.00  0.00     0.055 C 
HETATM   20  C   UNL     1      38.908 -10.099  -3.258  1.00  0.00     0.011 C 
ENDBRANCH  15  19
ENDBRANCH   9  12
ENDBRANCH   1   8
BRANCH   3  21
HETATM   21  C   UNL     1      43.129 -18.207   3.120  1.00  0.00     0.012 A 
HETATM   22  C   UNL     1      43.638 -18.831   4.268  1.00  0.00     0.039 A 
HETATM   23  C   UNL     1      44.026 -20.170   4.233  1.00  0.00     0.035 A 
HETATM   24 CL   UNL     1      44.636 -20.922   5.656  1.00  0.00    -0.084 Cl
HETATM   25  C   UNL     1      43.922 -20.906   3.055  1.00  0.00     0.024 A 
HETATM   26  C   UNL     1      43.430 -20.295   1.903  1.00  0.00     0.003 A 
HETATM   27  C   UNL     1      43.037 -18.954   1.934  1.00  0.00     0.015 A 
ENDBRANCH   3  21
TORSDOF 4
ENDMDL
MODEL 7
REMARK VINA RESULT:      -7.5      5.055      7.360
REMARK  4 active torsions:
REMARK  status: ('A' for Active; 'I' for Inactive)
REMARK    1  A    between atoms: C_2  and  C_3 
REMARK    2  A    between atoms: C_7  and  N_8 
REMARK       I    between atoms: N_8  and  C_9 
REMARK    3  A    between atoms: C_9  and  C_10 
REMARK    4  A    between atoms: C_12  and  C_13 
ROOT
HETATM    1  C   UNL     1      42.049 -13.454   2.841  1.00  0.00     0.149 A 
HETATM    2  N   UNL     1      41.113 -13.916   1.920  1.00  0.00    -0.223 NA
HETATM    3  C   UNL     1      40.748 -12.870   1.199  1.00  0.00     0.139 A 
HETATM    4  N   UNL     1      41.431 -11.752   1.620  1.00  0.00    -0.342 N 
HETATM    5  H   UNL     1      41.313 -10.820   1.250  1.00  0.00     0.167 HD
HETATM    6  C   UNL     1      42.255 -12.099   2.659  1.00  0.00     0.041 A 
HETATM    7  C   UNL     1      43.127 -11.130   3.361  1.00  0.00     0.071 C 
ENDROOT
BRANCH   1   8
HETATM    8  C   UNL     1      42.673 -14.332   3.843  1.00  0.00     0.278 C 
HETATM    9  N   UNL     1      42.994 -15.544   3.276  1.00  0.00    -0.304 N 
HETATM   10  H   UNL     1      42.797 -15.627   2.288  1.00  0.00     0.171 HD
HETATM   11  O   UNL     1      42.856 -13.961   4.995  1.00  0.00    -0.265 OA
BRANCH   9  12
HETATM   12  C   UNL     1      43.512 -16.635   3.932  1.00  0.00     0.158 A 
HETATM   13  N   UNL     1      44.087 -16.592   5.133  1.00  0.00    -0.156 NA
HETATM   14  N   UNL     1      44.397 -17.859   5.413  1.00  0.00    -0.280 N 
HETATM   15  C   UNL     1      44.054 -18.739   4.426  1.00  0.00     0.037 A 
HETATM   16  H   UNL     1      44.840 -18.053   6.304  1.00  0.00     0.189 HD
HETATM   17  C   UNL     1      43.485 -17.969   3.425  1.00  0.00     0.010 A 
HETATM   18  C   UNL     1      42.955 -18.449   2.124  1.00  0.00     0.054 C 
BRANCH  15  19
HETATM   19  C   UNL     1      44.302 -20.200   4.553  1.00  0.00     0.055 C 
HETATM   20  C   UNL     1      43.826 -20.733   5.897  1.00  0.00     0.011 C 
ENDBRANCH  15  19
ENDBRANCH   9  12
ENDBRANCH   1   8
BRANCH   3  21
HETATM   21  C   UNL     1      39.736 -12.866   0.138  1.00  0.00     0.012 A 
HETATM   22  C   UNL     1      39.700 -13.929  -0.776  1.00  0.00     0.039 A 
HETATM   23  C   UNL     1      38.737 -13.962  -1.785  1.00  0.00     0.035 A 
HETATM   24 CL   UNL     1      38.701 -15.282  -2.890  1.00  0.00    -0.084 Cl
HETATM   25  C   UNL     1      37.802 -12.937  -1.904  1.00  0.00     0.024 A 
HETATM   26  C   UNL     1      37.833 -11.869  -1.011  1.00  0.00     0.003 A 
HETATM   27  C   UNL     1      38.795 -11.832   0.004  1.00  0.00     0.015 A 
ENDBRANCH   3  21
TORSDOF 4
ENDMDL
MODEL 8
REMARK VINA RESULT:      -7.4      4.603      8.349
REMARK  4 active torsions:
REMARK  status: ('A' for Active; 'I' for Inactive)
REMARK    1  A    between atoms: C_2  and  C_3 
REMARK    2  A    between atoms: C_7  and  N_8 
REMARK       I    between atoms: N_8  and  C_9 
REMARK    3  A    between atoms: C_9  and  C_10 
REMARK    4  A    between atoms: C_12  and  C_13 
ROOT
HETATM    1  C   UNL     1      43.101 -13.962   3.947  1.00  0.00     0.149 A 
HETATM    2  N   UNL     1      43.204 -15.103   3.157  1.00  0.00    -0.223 NA
HETATM    3  C   UNL     1      43.226 -16.133   3.984  1.00  0.00     0.139 A 
HETATM    4  N   UNL     1      43.129 -15.690   5.284  1.00  0.00    -0.342 N 
HETATM    5  H   UNL     1      43.151 -16.276   6.105  1.00  0.00     0.167 HD
HETATM    6  C   UNL     1      43.052 -14.321   5.281  1.00  0.00     0.041 A 
HETATM    7  C   UNL     1      42.951 -13.512   6.518  1.00  0.00     0.071 C 
ENDROOT
BRANCH   1   8
HETATM    8  C   UNL     1      43.072 -12.606   3.378  1.00  0.00     0.278 C 
HETATM    9  N   UNL     1      41.825 -12.334   2.864  1.00  0.00    -0.304 N 
HETATM   10  H   UNL     1      41.137 -13.064   2.987  1.00  0.00     0.171 HD
HETATM   11  O   UNL     1      44.056 -11.878   3.406  1.00  0.00    -0.265 OA
BRANCH   9  12
HETATM   12  C   UNL     1      41.458 -11.199   2.182  1.00  0.00     0.158 A 
HETATM   13  N   UNL     1      41.401  -9.981   2.718  1.00  0.00    -0.156 NA
HETATM   14  N   UNL     1      41.055  -9.177   1.711  1.00  0.00    -0.280 N 
HETATM   15  C   UNL     1      40.871  -9.830   0.525  1.00  0.00     0.037 A 
HETATM   16  H   UNL     1      40.967  -8.186   1.905  1.00  0.00     0.189 HD
HETATM   17  C   UNL     1      41.109 -11.166   0.798  1.00  0.00     0.010 A 
HETATM   18  C   UNL     1      41.028 -12.300  -0.157  1.00  0.00     0.054 C 
BRANCH  15  19
HETATM   19  C   UNL     1      40.497  -9.108  -0.721  1.00  0.00     0.055 C 
HETATM   20  C   UNL     1      39.021  -8.738  -0.730  1.00  0.00     0.011 C 
ENDBRANCH  15  19
ENDBRANCH   9  12
ENDBRANCH   1   8
BRANCH   3  21
HETATM   21  C   UNL     1      43.381 -17.541   3.605  1.00  0.00     0.012 A 
HETATM   22  C   UNL     1      43.865 -18.455   4.552  1.00  0.00     0.039 A 
HETATM   23  C   UNL     1      44.005 -19.804   4.227  1.00  0.00     0.035 A 
HETATM   24 CL   UNL     1      44.588 -20.913   5.407  1.00  0.00    -0.084 Cl
HETATM   25  C   UNL     1      43.674 -20.263   2.954  1.00  0.00     0.024 A 
HETATM   26  C   UNL     1      43.204 -19.364   1.999  1.00  0.00     0.003 A 
HETATM   27  C   UNL     1      43.059 -18.011   2.321  1.00  0.00     0.015 A 
ENDBRANCH   3  21
TORSDOF 4
ENDMDL
MODEL 9
REMARK VINA RESULT:      -7.4      4.391      8.680
REMARK  4 active torsions:
REMARK  status: ('A' for Active; 'I' for Inactive)
REMARK    1  A    between atoms: C_2  and  C_3 
REMARK    2  A    between atoms: C_7  and  N_8 
REMARK       I    between atoms: N_8  and  C_9 
REMARK    3  A    between atoms: C_9  and  C_10 
REMARK    4  A    between atoms: C_12  and  C_13 
ROOT
HETATM    1  C   UNL     1      40.916 -13.982   3.126  1.00  0.00     0.149 A 
HETATM    2  N   UNL     1      41.717 -14.876   3.830  1.00  0.00    -0.223 NA
HETATM    3  C   UNL     1      42.007 -15.859   2.995  1.00  0.00     0.139 A 
HETATM    4  N   UNL     1      41.426 -15.616   1.771  1.00  0.00    -0.342 N 
HETATM    5  H   UNL     1      41.474 -16.229   0.970  1.00  0.00     0.167 HD
HETATM    6  C   UNL     1      40.730 -14.438   1.834  1.00  0.00     0.041 A 
HETATM    7  C   UNL     1      39.970 -13.882   0.692  1.00  0.00     0.071 C 
ENDROOT
BRANCH   1   8
HETATM    8  C   UNL     1      40.368 -12.760   3.737  1.00  0.00     0.278 C 
HETATM    9  N   UNL     1      40.646 -12.738   5.084  1.00  0.00    -0.304 N 
HETATM   10  H   UNL     1      41.196 -13.515   5.426  1.00  0.00     0.171 HD
HETATM   11  O   UNL     1      39.770 -11.924   3.072  1.00  0.00    -0.265 OA
BRANCH   9  12
HETATM   12  C   UNL     1      40.217 -11.795   5.986  1.00  0.00     0.158 A 
HETATM   13  N   UNL     1      39.131 -11.917   6.748  1.00  0.00    -0.156 NA
HETATM   14  N   UNL     1      39.113 -10.816   7.501  1.00  0.00    -0.280 N 
HETATM   15  C   UNL     1      40.150  -9.963   7.253  1.00  0.00     0.037 A 
HETATM   16  H   UNL     1      38.360 -10.714   8.173  1.00  0.00     0.189 HD
HETATM   17  C   UNL     1      40.890 -10.563   6.247  1.00  0.00     0.010 A 
HETATM   18  C   UNL     1      42.119 -10.032   5.607  1.00  0.00     0.054 C 
BRANCH  15  19
HETATM   19  C   UNL     1      40.317  -8.687   7.999  1.00  0.00     0.055 C 
HETATM   20  C   UNL     1      40.790  -8.931   9.424  1.00  0.00     0.011 C 
ENDBRANCH  15  19
ENDBRANCH   9  12
ENDBRANCH   1   8
BRANCH   3  21
HETATM   21  C   UNL     1      42.786 -17.059   3.314  1.00  0.00     0.012 A 
HETATM   22  C   UNL     1      42.828 -18.112   2.388  1.00  0.00     0.039 A 
HETATM   23  C   UNL     1      43.576 -19.259   2.654  1.00  0.00     0.035 A 
HETATM   24 CL   UNL     1      43.626 -20.534   1.499  1.00  0.00    -0.084 Cl
HETATM   25  C   UNL     1      44.285 -19.380   3.847  1.00  0.00     0.024 A 
HETATM   26  C   UNL     1      44.242 -18.348   4.781  1.00  0.00     0.003 A 
HETATM   27  C   UNL     1      43.496 -17.195   4.518  1.00  0.00     0.015 A 
ENDBRANCH   3  21
TORSDOF 4
ENDMDL
MODEL 10
REMARK VINA RESULT:      -7.4      4.011      8.656
REMARK  4 active torsions:
REMARK  status: ('A' for Active; 'I' for Inactive)
REMARK    1  A    between atoms: C_2  and  C_3 
REMARK    2  A    between atoms: C_7  and  N_8 
REMARK       I    between atoms: N_8  and  C_9 
REMARK    3  A    between atoms: C_9  and  C_10 
REMARK    4  A    between atoms: C_12  and  C_13 
ROOT
HETATM    1  C   UNL     1      42.454 -14.071   4.343  1.00  0.00     0.149 A 
HETATM    2  N   UNL     1      42.396 -15.213   3.549  1.00  0.00    -0.223 NA
HETATM    3  C   UNL     1      43.034 -16.163   4.210  1.00  0.00     0.139 A 
HETATM    4  N   UNL     1      43.490 -15.669   5.412  1.00  0.00    -0.342 N 
HETATM    5  H   UNL     1      44.031 -16.187   6.089  1.00  0.00     0.167 HD
HETATM    6  C   UNL     1      43.137 -14.349   5.512  1.00  0.00     0.041 A 
HETATM    7  C   UNL     1      43.483 -13.503   6.677  1.00  0.00     0.071 C 
ENDROOT
BRANCH   1   8
HETATM    8  C   UNL     1      41.869 -12.787   3.926  1.00  0.00     0.278 C 
HETATM    9  N   UNL     1      40.623 -12.629   4.488  1.00  0.00    -0.304 N 
HETATM   10  H   UNL     1      40.330 -13.372   5.109  1.00  0.00     0.171 HD
HETATM   11  O   UNL     1      42.471 -12.017   3.188  1.00  0.00    -0.265 OA
BRANCH   9  12
HETATM   12  C   UNL     1      39.751 -11.593   4.254  1.00  0.00     0.158 A 
HETATM   13  N   UNL     1      38.985 -11.482   3.170  1.00  0.00    -0.156 NA
HETATM   14  N   UNL     1      38.268 -10.375   3.367  1.00  0.00    -0.280 N 
HETATM   15  C   UNL     1      38.544  -9.744   4.546  1.00  0.00     0.037 A 
HETATM   16  H   UNL     1      37.599 -10.109   2.653  1.00  0.00     0.189 HD
HETATM   17  C   UNL     1      39.531 -10.505   5.151  1.00  0.00     0.010 A 
HETATM   18  C   UNL     1      40.190 -10.239   6.454  1.00  0.00     0.054 C 
BRANCH  15  19
HETATM   19  C   UNL     1      37.840  -8.500   4.959  1.00  0.00     0.055 C 
HETATM   20  C   UNL     1      38.376  -7.283   4.218  1.00  0.00     0.011 C 
ENDBRANCH  15  19
ENDBRANCH   9  12
ENDBRANCH   1   8
BRANCH   3  21
HETATM   21  C   UNL     1      43.275 -17.529   3.737  1.00  0.00     0.012 A 
HETATM   22  C   UNL     1      43.786 -18.482   4.631  1.00  0.00     0.039 A 
HETATM   23  C   UNL     1      44.009 -19.794   4.215  1.00  0.00     0.035 A 
HETATM   24 CL   UNL     1      44.625 -20.952   5.330  1.00  0.00    -0.084 Cl
HETATM   25  C   UNL     1      43.734 -20.178   2.905  1.00  0.00     0.024 A 
HETATM   26  C   UNL     1      43.237 -19.239   2.003  1.00  0.00     0.003 A 
HETATM   27  C   UNL     1      43.010 -17.923   2.415  1.00  0.00     0.015 A 
ENDBRANCH   3  21
TORSDOF 4
ENDMDL
