MODEL 1
REMARK VINA RESULT:      -9.5      0.000      0.000
REMARK  8 active torsions:
REMARK  status: ('A' for Active; 'I' for Inactive)
REMARK    1  A    between atoms: C_7  and  C_8 
REMARK       I    between atoms: C_8  and  N_9 
REMARK    2  A    between atoms: N_9  and  N_10 
REMARK    3  A    between atoms: N_10  and  C_11 
REMARK    4  A    between atoms: C_11  and  N_12 
REMARK    5  A    between atoms: N_12  and  C_13 
REMARK    6  A    between atoms: N_15  and  C_16 
REMARK    7  A    between atoms: C_16  and  C_17 
REMARK    8  A    between atoms: C_29  and  C_30 
ROOT
HETATM    1  C   UNL     1      40.135 -14.694   2.501  1.00  0.00     0.290 C 
HETATM    2  N   UNL     1      40.298 -13.810   3.549  1.00  0.00    -0.262 N 
HETATM    3  O   UNL     1      40.052 -15.913   2.617  1.00  0.00    -0.264 OA
HETATM    4  H   UNL     1      40.245 -12.812   3.349  1.00  0.00     0.190 HD
ENDROOT
BRANCH   2   5
HETATM    5  N   UNL     1      40.209 -14.230   4.876  1.00  0.00    -0.273 N 
HETATM    6  H   UNL     1      40.069 -15.231   5.051  1.00  0.00     0.189 HD
BRANCH   5   7
HETATM    7  C   UNL     1      40.657 -13.447   5.906  1.00  0.00     0.192 C 
HETATM    8  S   UNL     1      39.986 -11.970   6.343  1.00  0.00    -0.039 SA
BRANCH   7   9
HETATM    9  N   UNL     1      41.730 -13.897   6.621  1.00  0.00    -0.315 N 
HETATM   10  H   UNL     1      42.146 -13.226   7.252  1.00  0.00     0.170 HD
BRANCH   9  11
HETATM   11  C   UNL     1      42.365 -15.116   6.510  1.00  0.00     0.151 A 
HETATM   12  N   UNL     1      43.349 -15.380   5.645  1.00  0.00    -0.154 NA
HETATM   13  N   UNL     1      43.690 -16.660   5.909  1.00  0.00    -0.275 N 
HETATM   14  C   UNL     1      42.941 -17.220   6.903  1.00  0.00     0.116 A 
HETATM   15  C   UNL     1      42.066 -16.241   7.310  1.00  0.00     0.071 A 
BRANCH  13  16
HETATM   16  C   UNL     1      44.713 -17.324   5.111  1.00  0.00     0.192 C 
BRANCH  16  17
HETATM   17  C   UNL     1      44.112 -18.244   4.089  1.00  0.00     0.000 A 
HETATM   18  C   UNL     1      44.193 -19.629   4.250  1.00  0.00     0.124 A 
HETATM   19  F   UNL     1      44.802 -20.137   5.332  1.00  0.00    -0.205 F 
HETATM   20  C   UNL     1      43.648 -20.502   3.312  1.00  0.00     0.043 A 
HETATM   21  C   UNL     1      43.010 -19.990   2.185  1.00  0.00     0.003 A 
HETATM   22  C   UNL     1      42.926 -18.609   2.000  1.00  0.00     0.001 A 
HETATM   23  C   UNL     1      43.478 -17.738   2.944  1.00  0.00     0.012 A 
ENDBRANCH  16  17
ENDBRANCH  13  16
ENDBRANCH   9  11
ENDBRANCH   7   9
ENDBRANCH   5   7
ENDBRANCH   2   5
BRANCH   1  24
HETATM   24  C   UNL     1      40.078 -14.000   1.205  1.00  0.00     0.150 A 
HETATM   25  N   UNL     1      40.199 -14.672   0.036  1.00  0.00    -0.165 NA
HETATM   26  N   UNL     1      40.040 -13.717  -0.893  1.00  0.00    -0.240 N 
HETATM   27  C   UNL     1      39.927 -12.455  -0.387  1.00  0.00     0.123 A 
HETATM   28  C   UNL     1      40.040 -14.023  -2.307  1.00  0.00     0.221 C 
HETATM   29  N   UNL     1      39.848 -11.375  -1.191  1.00  0.00    -0.371 N 
HETATM   30  C   UNL     1      39.909 -12.604   0.977  1.00  0.00     0.089 A 
HETATM   31  C   UNL     1      40.036 -11.445  -2.636  1.00  0.00     0.081 C 
HETATM   32  H   UNL     1      39.766 -10.439  -0.797  1.00  0.00     0.161 HD
HETATM   33  C   UNL     1      38.762 -11.003  -3.347  1.00  0.00     0.032 C 
HETATM   34  C   UNL     1      40.569 -12.813  -3.095  1.00  0.00     0.061 C 
BRANCH  28  35
HETATM   35  C   UNL     1      38.667 -14.490  -2.729  1.00  0.00     0.409 C 
HETATM   36  F   UNL     1      38.496 -15.816  -2.521  1.00  0.00    -0.169 F 
HETATM   37  F   UNL     1      37.655 -13.853  -2.109  1.00  0.00    -0.169 F 
HETATM   38  F   UNL     1      38.497 -14.291  -4.063  1.00  0.00    -0.169 F 
ENDBRANCH  28  35
ENDBRANCH   1  24
TORSDOF 8
ENDMDL
MODEL 2
REMARK VINA RESULT:      -9.3      5.048      8.284
REMARK  8 active torsions:
REMARK  status: ('A' for Active; 'I' for Inactive)
REMARK    1  A    between atoms: C_7  and  C_8 
REMARK       I    between atoms: C_8  and  N_9 
REMARK    2  A    between atoms: N_9  and  N_10 
REMARK    3  A    between atoms: N_10  and  C_11 
REMARK    4  A    between atoms: C_11  and  N_12 
REMARK    5  A    between atoms: N_12  and  C_13 
REMARK    6  A    between atoms: N_15  and  C_16 
REMARK    7  A    between atoms: C_16  and  C_17 
REMARK    8  A    between atoms: C_29  and  C_30 
ROOT
HETATM    1  C   UNL     1      42.923 -11.361   4.613  1.00  0.00     0.290 C 
HETATM    2  N   UNL     1      41.680 -11.866   4.284  1.00  0.00    -0.262 N 
HETATM    3  O   UNL     1      43.877 -11.290   3.844  1.00  0.00    -0.264 OA
HETATM    4  H   UNL     1      40.930 -11.777   4.968  1.00  0.00     0.190 HD
ENDROOT
BRANCH   2   5
HETATM    5  N   UNL     1      41.350 -12.188   2.969  1.00  0.00    -0.273 N 
HETATM    6  H   UNL     1      41.911 -11.768   2.219  1.00  0.00     0.189 HD
BRANCH   5   7
HETATM    7  C   UNL     1      40.584 -13.283   2.670  1.00  0.00     0.192 C 
HETATM    8  S   UNL     1      40.035 -13.671   1.130  1.00  0.00    -0.039 SA
BRANCH   7   9
HETATM    9  N   UNL     1      40.235 -14.109   3.699  1.00  0.00    -0.315 N 
HETATM   10  H   UNL     1      39.310 -13.963   4.081  1.00  0.00     0.170 HD
BRANCH   9  11
HETATM   11  C   UNL     1      41.025 -15.043   4.335  1.00  0.00     0.151 A 
HETATM   12  N   UNL     1      42.290 -15.317   4.000  1.00  0.00    -0.154 NA
HETATM   13  N   UNL     1      42.677 -16.248   4.898  1.00  0.00    -0.275 N 
HETATM   14  C   UNL     1      41.692 -16.585   5.781  1.00  0.00     0.116 A 
HETATM   15  C   UNL     1      40.603 -15.821   5.437  1.00  0.00     0.071 A 
BRANCH  13  16
HETATM   16  C   UNL     1      44.007 -16.839   4.811  1.00  0.00     0.192 C 
BRANCH  16  17
HETATM   17  C   UNL     1      43.953 -18.263   4.338  1.00  0.00     0.000 A 
HETATM   18  C   UNL     1      43.744 -18.551   2.987  1.00  0.00     0.124 A 
HETATM   19  F   UNL     1      43.601 -17.547   2.108  1.00  0.00    -0.205 F 
HETATM   20  C   UNL     1      43.684 -19.863   2.525  1.00  0.00     0.043 A 
HETATM   21  C   UNL     1      43.833 -20.917   3.425  1.00  0.00     0.003 A 
HETATM   22  C   UNL     1      44.034 -20.650   4.780  1.00  0.00     0.001 A 
HETATM   23  C   UNL     1      44.089 -19.331   5.237  1.00  0.00     0.012 A 
ENDBRANCH  16  17
ENDBRANCH  13  16
ENDBRANCH   9  11
ENDBRANCH   7   9
ENDBRANCH   5   7
ENDBRANCH   2   5
BRANCH   1  24
HETATM   24  C   UNL     1      42.980 -10.918   6.014  1.00  0.00     0.150 A 
HETATM   25  N   UNL     1      44.059 -11.167   6.792  1.00  0.00    -0.165 NA
HETATM   26  N   UNL     1      43.754 -10.567   7.953  1.00  0.00    -0.240 N 
HETATM   27  C   UNL     1      42.498 -10.036   7.997  1.00  0.00     0.123 A 
HETATM   28  C   UNL     1      44.681 -10.542   9.064  1.00  0.00     0.221 C 
HETATM   29  N   UNL     1      42.006  -9.476   9.121  1.00  0.00    -0.371 N 
HETATM   30  C   UNL     1      41.978 -10.212   6.740  1.00  0.00     0.089 A 
HETATM   31  C   UNL     1      42.697  -9.531  10.405  1.00  0.00     0.081 C 
HETATM   32  H   UNL     1      41.065  -9.085   9.138  1.00  0.00     0.161 HD
HETATM   33  C   UNL     1      43.037  -8.120  10.873  1.00  0.00     0.032 C 
HETATM   34  C   UNL     1      43.898 -10.493  10.386  1.00  0.00     0.061 C 
BRANCH  28  35
HETATM   35  C   UNL     1      45.668  -9.413   8.881  1.00  0.00     0.409 C 
HETATM   36  F   UNL     1      46.705  -9.769   8.089  1.00  0.00    -0.169 F 
HETATM   37  F   UNL     1      45.130  -8.293   8.359  1.00  0.00    -0.169 F 
HETATM   38  F   UNL     1      46.206  -9.067  10.081  1.00  0.00    -0.169 F 
ENDBRANCH  28  35
ENDBRANCH   1  24
TORSDOF 8
ENDMDL
MODEL 3
REMARK VINA RESULT:      -9.3      6.372      9.834
REMARK  8 active torsions:
REMARK  status: ('A' for Active; 'I' for Inactive)
REMARK    1  A    between atoms: C_7  and  C_8 
REMARK       I    between atoms: C_8  and  N_9 
REMARK    2  A    between atoms: N_9  and  N_10 
REMARK    3  A    between atoms: N_10  and  C_11 
REMARK    4  A    between atoms: C_11  and  N_12 
REMARK    5  A    between atoms: N_12  and  C_13 
REMARK    6  A    between atoms: N_15  and  C_16 
REMARK    7  A    between atoms: C_16  and  C_17 
REMARK    8  A    between atoms: C_29  and  C_30 
ROOT
HETATM    1  C   UNL     1      43.958 -10.743   8.496  1.00  0.00     0.290 C 
HETATM    2  N   UNL     1      42.955 -10.901   7.560  1.00  0.00    -0.262 N 
HETATM    3  O   UNL     1      45.093 -11.199   8.392  1.00  0.00    -0.264 OA
HETATM    4  H   UNL     1      42.085 -10.388   7.697  1.00  0.00     0.190 HD
ENDROOT
BRANCH   2   5
HETATM    5  N   UNL     1      43.208 -11.462   6.309  1.00  0.00    -0.273 N 
HETATM    6  H   UNL     1      44.084 -11.206   5.839  1.00  0.00     0.189 HD
BRANCH   5   7
HETATM    7  C   UNL     1      42.542 -12.577   5.876  1.00  0.00     0.192 C 
HETATM    8  S   UNL     1      41.839 -12.739   4.359  1.00  0.00    -0.039 SA
BRANCH   7   9
HETATM    9  N   UNL     1      42.436 -13.626   6.745  1.00  0.00    -0.315 N 
HETATM   10  H   UNL     1      42.219 -13.379   7.701  1.00  0.00     0.170 HD
BRANCH   9  11
HETATM   11  C   UNL     1      42.684 -14.958   6.491  1.00  0.00     0.151 A 
HETATM   12  N   UNL     1      43.818 -15.429   5.964  1.00  0.00    -0.154 NA
HETATM   13  N   UNL     1      43.639 -16.767   5.931  1.00  0.00    -0.275 N 
HETATM   14  C   UNL     1      42.420 -17.157   6.405  1.00  0.00     0.116 A 
HETATM   15  C   UNL     1      41.773 -16.001   6.772  1.00  0.00     0.071 A 
BRANCH  13  16
HETATM   16  C   UNL     1      44.665 -17.628   5.357  1.00  0.00     0.192 C 
BRANCH  16  17
HETATM   17  C   UNL     1      44.118 -18.489   4.255  1.00  0.00     0.000 A 
HETATM   18  C   UNL     1      44.183 -19.882   4.348  1.00  0.00     0.124 A 
HETATM   19  F   UNL     1      44.729 -20.450   5.433  1.00  0.00    -0.205 F 
HETATM   20  C   UNL     1      43.688 -20.700   3.336  1.00  0.00     0.043 A 
HETATM   21  C   UNL     1      43.116 -20.125   2.203  1.00  0.00     0.003 A 
HETATM   22  C   UNL     1      43.049 -18.736   2.088  1.00  0.00     0.001 A 
HETATM   23  C   UNL     1      43.552 -17.920   3.105  1.00  0.00     0.012 A 
ENDBRANCH  16  17
ENDBRANCH  13  16
ENDBRANCH   9  11
ENDBRANCH   7   9
ENDBRANCH   5   7
ENDBRANCH   2   5
BRANCH   1  24
HETATM   24  C   UNL     1      43.505  -9.960   9.656  1.00  0.00     0.150 A 
HETATM   25  N   UNL     1      42.219  -9.552   9.777  1.00  0.00    -0.165 NA
HETATM   26  N   UNL     1      42.197  -8.933  10.967  1.00  0.00    -0.240 N 
HETATM   27  C   UNL     1      43.417  -8.830  11.569  1.00  0.00     0.123 A 
HETATM   28  C   UNL     1      40.976  -8.387  11.519  1.00  0.00     0.221 C 
HETATM   29  N   UNL     1      43.580  -8.160  12.727  1.00  0.00    -0.371 N 
HETATM   30  C   UNL     1      44.286  -9.521  10.762  1.00  0.00     0.089 A 
HETATM   31  C   UNL     1      42.521  -7.366  13.342  1.00  0.00     0.081 C 
HETATM   32  H   UNL     1      44.499  -8.091  13.163  1.00  0.00     0.161 HD
HETATM   33  C   UNL     1      42.174  -7.936  14.712  1.00  0.00     0.032 C 
HETATM   34  C   UNL     1      41.309  -7.182  12.413  1.00  0.00     0.061 C 
BRANCH  28  35
HETATM   35  C   UNL     1      40.195  -9.480  12.211  1.00  0.00     0.409 C 
HETATM   36  F   UNL     1      39.365  -8.988  13.159  1.00  0.00    -0.169 F 
HETATM   37  F   UNL     1      39.452 -10.235  11.379  1.00  0.00    -0.169 F 
HETATM   38  F   UNL     1      41.046 -10.324  12.853  1.00  0.00    -0.169 F 
ENDBRANCH  28  35
ENDBRANCH   1  24
TORSDOF 8
ENDMDL
MODEL 4
REMARK VINA RESULT:      -9.2      7.061     10.425
REMARK  8 active torsions:
REMARK  status: ('A' for Active; 'I' for Inactive)
REMARK    1  A    between atoms: C_7  and  C_8 
REMARK       I    between atoms: C_8  and  N_9 
REMARK    2  A    between atoms: N_9  and  N_10 
REMARK    3  A    between atoms: N_10  and  C_11 
REMARK    4  A    between atoms: C_11  and  N_12 
REMARK    5  A    between atoms: N_12  and  C_13 
REMARK    6  A    between atoms: N_15  and  C_16 
REMARK    7  A    between atoms: C_16  and  C_17 
REMARK    8  A    between atoms: C_29  and  C_30 
ROOT
HETATM    1  C   UNL     1      44.176 -10.451   9.307  1.00  0.00     0.290 C 
HETATM    2  N   UNL     1      43.344 -10.996   8.350  1.00  0.00    -0.262 N 
HETATM    3  O   UNL     1      45.313 -10.842   9.554  1.00  0.00    -0.264 OA
HETATM    4  H   UNL     1      42.462 -10.523   8.155  1.00  0.00     0.190 HD
ENDROOT
BRANCH   2   5
HETATM    5  N   UNL     1      43.803 -11.951   7.445  1.00  0.00    -0.273 N 
HETATM    6  H   UNL     1      44.537 -12.595   7.761  1.00  0.00     0.189 HD
BRANCH   5   7
HETATM    7  C   UNL     1      43.081 -12.289   6.332  1.00  0.00     0.192 C 
HETATM    8  S   UNL     1      43.245 -11.555   4.830  1.00  0.00    -0.039 SA
BRANCH   7   9
HETATM    9  N   UNL     1      42.156 -13.286   6.457  1.00  0.00    -0.315 N 
HETATM   10  H   UNL     1      41.232 -12.990   6.741  1.00  0.00     0.170 HD
BRANCH   9  11
HETATM   11  C   UNL     1      42.360 -14.644   6.338  1.00  0.00     0.151 A 
HETATM   12  N   UNL     1      43.518 -15.206   5.976  1.00  0.00    -0.154 NA
HETATM   13  N   UNL     1      43.274 -16.534   6.029  1.00  0.00    -0.275 N 
HETATM   14  C   UNL     1      41.993 -16.830   6.396  1.00  0.00     0.116 A 
HETATM   15  C   UNL     1      41.372 -15.620   6.598  1.00  0.00     0.071 A 
BRANCH  13  16
HETATM   16  C   UNL     1      44.309 -17.483   5.640  1.00  0.00     0.192 C 
BRANCH  16  17
HETATM   17  C   UNL     1      43.931 -18.242   4.401  1.00  0.00     0.000 A 
HETATM   18  C   UNL     1      44.138 -19.622   4.327  1.00  0.00     0.124 A 
HETATM   19  F   UNL     1      44.667 -20.271   5.375  1.00  0.00    -0.205 F 
HETATM   20  C   UNL     1      43.801 -20.346   3.187  1.00  0.00     0.043 A 
HETATM   21  C   UNL     1      43.248 -19.687   2.091  1.00  0.00     0.003 A 
HETATM   22  C   UNL     1      43.042 -18.308   2.141  1.00  0.00     0.001 A 
HETATM   23  C   UNL     1      43.386 -17.586   3.288  1.00  0.00     0.012 A 
ENDBRANCH  16  17
ENDBRANCH  13  16
ENDBRANCH   9  11
ENDBRANCH   7   9
ENDBRANCH   5   7
ENDBRANCH   2   5
BRANCH   1  24
HETATM   24  C   UNL     1      43.534  -9.334  10.018  1.00  0.00     0.150 A 
HETATM   25  N   UNL     1      42.735  -9.542  11.090  1.00  0.00    -0.165 NA
HETATM   26  N   UNL     1      42.401  -8.302  11.478  1.00  0.00    -0.240 N 
HETATM   27  C   UNL     1      42.856  -7.315  10.654  1.00  0.00     0.123 A 
HETATM   28  C   UNL     1      41.584  -8.064  12.649  1.00  0.00     0.221 C 
HETATM   29  N   UNL     1      42.533  -6.021  10.856  1.00  0.00    -0.371 N 
HETATM   30  C   UNL     1      43.630  -7.946   9.714  1.00  0.00     0.089 A 
HETATM   31  C   UNL     1      41.559  -5.590  11.853  1.00  0.00     0.081 C 
HETATM   32  H   UNL     1      42.880  -5.295  10.230  1.00  0.00     0.161 HD
HETATM   33  C   UNL     1      42.235  -4.695  12.885  1.00  0.00     0.032 C 
HETATM   34  C   UNL     1      40.778  -6.769  12.460  1.00  0.00     0.061 C 
BRANCH  28  35
HETATM   35  C   UNL     1      42.449  -8.086  13.888  1.00  0.00     0.409 C 
HETATM   36  F   UNL     1      43.710  -7.667  13.633  1.00  0.00    -0.169 F 
HETATM   37  F   UNL     1      41.974  -7.338  14.902  1.00  0.00    -0.169 F 
HETATM   38  F   UNL     1      42.558  -9.358  14.355  1.00  0.00    -0.169 F 
ENDBRANCH  28  35
ENDBRANCH   1  24
TORSDOF 8
ENDMDL
MODEL 5
REMARK VINA RESULT:      -9.1      6.346      9.830
REMARK  8 active torsions:
REMARK  status: ('A' for Active; 'I' for Inactive)
REMARK    1  A    between atoms: C_7  and  C_8 
REMARK       I    between atoms: C_8  and  N_9 
REMARK    2  A    between atoms: N_9  and  N_10 
REMARK    3  A    between atoms: N_10  and  C_11 
REMARK    4  A    between atoms: C_11  and  N_12 
REMARK    5  A    between atoms: N_12  and  C_13 
REMARK    6  A    between atoms: N_15  and  C_16 
REMARK    7  A    between atoms: C_16  and  C_17 
REMARK    8  A    between atoms: C_29  and  C_30 
ROOT
HETATM    1  C   UNL     1      44.236 -10.963   8.339  1.00  0.00     0.290 C 
HETATM    2  N   UNL     1      43.201 -11.471   7.580  1.00  0.00    -0.262 N 
HETATM    3  O   UNL     1      45.428 -11.165   8.127  1.00  0.00    -0.264 OA
HETATM    4  H   UNL     1      42.254 -11.150   7.781  1.00  0.00     0.190 HD
ENDROOT
BRANCH   2   5
HETATM    5  N   UNL     1      43.438 -12.134   6.377  1.00  0.00    -0.273 N 
HETATM    6  H   UNL     1      44.235 -11.824   5.810  1.00  0.00     0.189 HD
BRANCH   5   7
HETATM    7  C   UNL     1      42.901 -13.367   6.121  1.00  0.00     0.192 C 
HETATM    8  S   UNL     1      43.052 -14.701   7.131  1.00  0.00    -0.039 SA
BRANCH   7   9
HETATM    9  N   UNL     1      42.203 -13.523   4.958  1.00  0.00    -0.315 N 
HETATM   10  H   UNL     1      41.652 -12.726   4.671  1.00  0.00     0.170 HD
BRANCH   9  11
HETATM   11  C   UNL     1      42.088 -14.663   4.191  1.00  0.00     0.151 A 
HETATM   12  N   UNL     1      43.122 -15.383   3.745  1.00  0.00    -0.154 NA
HETATM   13  N   UNL     1      42.551 -16.411   3.083  1.00  0.00    -0.275 N 
HETATM   14  C   UNL     1      41.187 -16.356   3.080  1.00  0.00     0.116 A 
HETATM   15  C   UNL     1      40.856 -15.226   3.788  1.00  0.00     0.071 A 
BRANCH  13  16
HETATM   16  C   UNL     1      43.383 -17.394   2.401  1.00  0.00     0.192 C 
BRANCH  16  17
HETATM   17  C   UNL     1      43.625 -18.606   3.253  1.00  0.00     0.000 A 
HETATM   18  C   UNL     1      43.648 -19.880   2.680  1.00  0.00     0.124 A 
HETATM   19  F   UNL     1      43.464 -20.017   1.359  1.00  0.00    -0.205 F 
HETATM   20  C   UNL     1      43.865 -21.019   3.451  1.00  0.00     0.043 A 
HETATM   21  C   UNL     1      44.060 -20.893   4.825  1.00  0.00     0.003 A 
HETATM   22  C   UNL     1      44.031 -19.630   5.418  1.00  0.00     0.001 A 
HETATM   23  C   UNL     1      43.810 -18.491   4.639  1.00  0.00     0.012 A 
ENDBRANCH  16  17
ENDBRANCH  13  16
ENDBRANCH   9  11
ENDBRANCH   7   9
ENDBRANCH   5   7
ENDBRANCH   2   5
BRANCH   1  24
HETATM   24  C   UNL     1      43.742 -10.142   9.457  1.00  0.00     0.150 A 
HETATM   25  N   UNL     1      42.459  -9.715   9.509  1.00  0.00    -0.165 NA
HETATM   26  N   UNL     1      42.392  -9.064  10.680  1.00  0.00    -0.240 N 
HETATM   27  C   UNL     1      43.586  -8.960  11.333  1.00  0.00     0.123 A 
HETATM   28  C   UNL     1      41.156  -8.487  11.162  1.00  0.00     0.221 C 
HETATM   29  N   UNL     1      43.706  -8.260  12.480  1.00  0.00    -0.371 N 
HETATM   30  C   UNL     1      44.480  -9.684  10.585  1.00  0.00     0.089 A 
HETATM   31  C   UNL     1      42.632  -7.436  13.025  1.00  0.00     0.081 C 
HETATM   32  H   UNL     1      44.605  -8.191  12.954  1.00  0.00     0.161 HD
HETATM   33  C   UNL     1      42.216  -7.965  14.393  1.00  0.00     0.032 C 
HETATM   34  C   UNL     1      41.465  -7.262  12.037  1.00  0.00     0.061 C 
BRANCH  28  35
HETATM   35  C   UNL     1      40.330  -9.551  11.847  1.00  0.00     0.409 C 
HETATM   36  F   UNL     1      39.493  -9.025  12.772  1.00  0.00    -0.169 F 
HETATM   37  F   UNL     1      39.583 -10.293  11.006  1.00  0.00    -0.169 F 
HETATM   38  F   UNL     1      41.142 -10.412  12.515  1.00  0.00    -0.169 F 
ENDBRANCH  28  35
ENDBRANCH   1  24
TORSDOF 8
ENDMDL
MODEL 6
REMARK VINA RESULT:      -9.0      2.422      3.025
REMARK  8 active torsions:
REMARK  status: ('A' for Active; 'I' for Inactive)
REMARK    1  A    between atoms: C_7  and  C_8 
REMARK       I    between atoms: C_8  and  N_9 
REMARK    2  A    between atoms: N_9  and  N_10 
REMARK    3  A    between atoms: N_10  and  C_11 
REMARK    4  A    between atoms: C_11  and  N_12 
REMARK    5  A    between atoms: N_12  and  C_13 
REMARK    6  A    between atoms: N_15  and  C_16 
REMARK    7  A    between atoms: C_16  and  C_17 
REMARK    8  A    between atoms: C_29  and  C_30 
ROOT
HETATM    1  C   UNL     1      42.571 -11.653   3.039  1.00  0.00     0.290 C 
HETATM    2  N   UNL     1      41.815 -11.402   4.166  1.00  0.00    -0.262 N 
HETATM    3  O   UNL     1      43.791 -11.532   2.971  1.00  0.00    -0.264 OA
HETATM    4  H   UNL     1      40.824 -11.640   4.142  1.00  0.00     0.190 HD
ENDROOT
BRANCH   2   5
HETATM    5  N   UNL     1      42.410 -11.146   5.400  1.00  0.00    -0.273 N 
HETATM    6  H   UNL     1      42.379 -10.184   5.755  1.00  0.00     0.189 HD
BRANCH   5   7
HETATM    7  C   UNL     1      42.688 -12.155   6.284  1.00  0.00     0.192 C 
HETATM    8  S   UNL     1      43.992 -12.162   7.343  1.00  0.00    -0.039 SA
BRANCH   7   9
HETATM    9  N   UNL     1      41.849 -13.232   6.297  1.00  0.00    -0.315 N 
HETATM   10  H   UNL     1      41.120 -13.209   6.997  1.00  0.00     0.170 HD
BRANCH   9  11
HETATM   11  C   UNL     1      41.941 -14.380   5.539  1.00  0.00     0.151 A 
HETATM   12  N   UNL     1      42.863 -14.591   4.594  1.00  0.00    -0.154 NA
HETATM   13  N   UNL     1      42.603 -15.839   4.148  1.00  0.00    -0.275 N 
HETATM   14  C   UNL     1      41.533 -16.418   4.768  1.00  0.00     0.116 A 
HETATM   15  C   UNL     1      41.078 -15.491   5.675  1.00  0.00     0.071 A 
BRANCH  13  16
HETATM   16  C   UNL     1      43.385 -16.403   3.055  1.00  0.00     0.192 C 
BRANCH  16  17
HETATM   17  C   UNL     1      43.509 -17.894   3.171  1.00  0.00     0.000 A 
HETATM   18  C   UNL     1      44.133 -18.468   4.281  1.00  0.00     0.124 A 
HETATM   19  F   UNL     1      44.613 -17.679   5.254  1.00  0.00    -0.205 F 
HETATM   20  C   UNL     1      44.265 -19.848   4.407  1.00  0.00     0.043 A 
HETATM   21  C   UNL     1      43.770 -20.681   3.406  1.00  0.00     0.003 A 
HETATM   22  C   UNL     1      43.152 -20.128   2.284  1.00  0.00     0.001 A 
HETATM   23  C   UNL     1      43.026 -18.741   2.162  1.00  0.00     0.012 A 
ENDBRANCH  16  17
ENDBRANCH  13  16
ENDBRANCH   9  11
ENDBRANCH   7   9
ENDBRANCH   5   7
ENDBRANCH   2   5
BRANCH   1  24
HETATM   24  C   UNL     1      41.738 -12.083   1.905  1.00  0.00     0.150 A 
HETATM   25  N   UNL     1      41.138 -11.186   1.088  1.00  0.00    -0.165 NA
HETATM   26  N   UNL     1      40.533 -11.954   0.169  1.00  0.00    -0.240 N 
HETATM   27  C   UNL     1      40.625 -13.294   0.410  1.00  0.00     0.123 A 
HETATM   28  C   UNL     1      39.810 -11.382  -0.947  1.00  0.00     0.221 C 
HETATM   29  N   UNL     1      39.997 -14.197  -0.371  1.00  0.00    -0.371 N 
HETATM   30  C   UNL     1      41.434 -13.417   1.511  1.00  0.00     0.089 A 
HETATM   31  C   UNL     1      39.055 -13.824  -1.420  1.00  0.00     0.081 C 
HETATM   32  H   UNL     1      40.075 -15.195  -0.176  1.00  0.00     0.161 HD
HETATM   33  C   UNL     1      39.577 -14.287  -2.775  1.00  0.00     0.032 C 
HETATM   34  C   UNL     1      38.678 -12.333  -1.368  1.00  0.00     0.061 C 
BRANCH  28  35
HETATM   35  C   UNL     1      40.776 -11.031  -2.055  1.00  0.00     0.409 C 
HETATM   36  F   UNL     1      41.302  -9.795  -1.895  1.00  0.00    -0.169 F 
HETATM   37  F   UNL     1      41.804 -11.893  -2.181  1.00  0.00    -0.169 F 
HETATM   38  F   UNL     1      40.127 -11.017  -3.249  1.00  0.00    -0.169 F 
ENDBRANCH  28  35
ENDBRANCH   1  24
TORSDOF 8
ENDMDL
MODEL 7
REMARK VINA RESULT:      -8.8      5.126      8.644
REMARK  8 active torsions:
REMARK  status: ('A' for Active; 'I' for Inactive)
REMARK    1  A    between atoms: C_7  and  C_8 
REMARK       I    between atoms: C_8  and  N_9 
REMARK    2  A    between atoms: N_9  and  N_10 
REMARK    3  A    between atoms: N_10  and  C_11 
REMARK    4  A    between atoms: C_11  and  N_12 
REMARK    5  A    between atoms: N_12  and  C_13 
REMARK    6  A    between atoms: N_15  and  C_16 
REMARK    7  A    between atoms: C_16  and  C_17 
REMARK    8  A    between atoms: C_29  and  C_30 
ROOT
HETATM    1  C   UNL     1      42.961 -10.942   4.244  1.00  0.00     0.290 C 
HETATM    2  N   UNL     1      42.058 -10.137   3.579  1.00  0.00    -0.262 N 
HETATM    3  O   UNL     1      43.643 -11.817   3.716  1.00  0.00    -0.264 OA
HETATM    4  H   UNL     1      41.626  -9.372   4.096  1.00  0.00     0.190 HD
ENDROOT
BRANCH   2   5
HETATM    5  N   UNL     1      41.967 -10.138   2.189  1.00  0.00    -0.273 N 
HETATM    6  H   UNL     1      42.739  -9.716   1.660  1.00  0.00     0.189 HD
BRANCH   5   7
HETATM    7  C   UNL     1      41.109 -10.974   1.526  1.00  0.00     0.192 C 
HETATM    8  S   UNL     1      39.504 -10.617   1.184  1.00  0.00    -0.039 SA
BRANCH   7   9
HETATM    9  N   UNL     1      41.593 -12.187   1.126  1.00  0.00    -0.315 N 
HETATM   10  H   UNL     1      42.338 -12.155   0.443  1.00  0.00     0.170 HD
BRANCH   9  11
HETATM   11  C   UNL     1      41.122 -13.437   1.467  1.00  0.00     0.151 A 
HETATM   12  N   UNL     1      41.192 -13.962   2.695  1.00  0.00    -0.154 NA
HETATM   13  N   UNL     1      40.585 -15.163   2.577  1.00  0.00    -0.275 N 
HETATM   14  C   UNL     1      40.148 -15.422   1.310  1.00  0.00     0.116 A 
HETATM   15  C   UNL     1      40.488 -14.319   0.564  1.00  0.00     0.071 A 
BRANCH  13  16
HETATM   16  C   UNL     1      40.518 -16.063   3.722  1.00  0.00     0.192 C 
BRANCH  16  17
HETATM   17  C   UNL     1      41.882 -16.511   4.159  1.00  0.00     0.000 A 
HETATM   18  C   UNL     1      42.592 -17.451   3.407  1.00  0.00     0.124 A 
HETATM   19  F   UNL     1      42.053 -17.945   2.283  1.00  0.00    -0.205 F 
HETATM   20  C   UNL     1      43.856 -17.886   3.796  1.00  0.00     0.043 A 
HETATM   21  C   UNL     1      44.430 -17.380   4.960  1.00  0.00     0.003 A 
HETATM   22  C   UNL     1      43.734 -16.447   5.730  1.00  0.00     0.001 A 
HETATM   23  C   UNL     1      42.464 -16.017   5.336  1.00  0.00     0.012 A 
ENDBRANCH  16  17
ENDBRANCH  13  16
ENDBRANCH   9  11
ENDBRANCH   7   9
ENDBRANCH   5   7
ENDBRANCH   2   5
BRANCH   1  24
HETATM   24  C   UNL     1      43.012 -10.636   5.682  1.00  0.00     0.150 A 
HETATM   25  N   UNL     1      44.100 -10.934   6.431  1.00  0.00    -0.165 NA
HETATM   26  N   UNL     1      43.785 -10.458   7.645  1.00  0.00    -0.240 N 
HETATM   27  C   UNL     1      42.516  -9.965   7.742  1.00  0.00     0.123 A 
HETATM   28  C   UNL     1      44.714 -10.519   8.752  1.00  0.00     0.221 C 
HETATM   29  N   UNL     1      42.015  -9.529   8.916  1.00  0.00    -0.371 N 
HETATM   30  C   UNL     1      41.996 -10.030   6.475  1.00  0.00     0.089 A 
HETATM   31  C   UNL     1      42.712  -9.693  10.188  1.00  0.00     0.081 C 
HETATM   32  H   UNL     1      41.065  -9.165   8.973  1.00  0.00     0.161 HD
HETATM   33  C   UNL     1      43.019  -8.326  10.790  1.00  0.00     0.032 C 
HETATM   34  C   UNL     1      43.936 -10.618  10.074  1.00  0.00     0.061 C 
BRANCH  28  35
HETATM   35  C   UNL     1      45.673  -9.353   8.679  1.00  0.00     0.409 C 
HETATM   36  F   UNL     1      46.730  -9.616   7.877  1.00  0.00    -0.169 F 
HETATM   37  F   UNL     1      45.113  -8.208   8.244  1.00  0.00    -0.169 F 
HETATM   38  F   UNL     1      46.186  -9.095   9.911  1.00  0.00    -0.169 F 
ENDBRANCH  28  35
ENDBRANCH   1  24
TORSDOF 8
ENDMDL
MODEL 8
REMARK VINA RESULT:      -8.7      7.798     11.173
REMARK  8 active torsions:
REMARK  status: ('A' for Active; 'I' for Inactive)
REMARK    1  A    between atoms: C_7  and  C_8 
REMARK       I    between atoms: C_8  and  N_9 
REMARK    2  A    between atoms: N_9  and  N_10 
REMARK    3  A    between atoms: N_10  and  C_11 
REMARK    4  A    between atoms: C_11  and  N_12 
REMARK    5  A    between atoms: N_12  and  C_13 
REMARK    6  A    between atoms: N_15  and  C_16 
REMARK    7  A    between atoms: C_16  and  C_17 
REMARK    8  A    between atoms: C_29  and  C_30 
ROOT
HETATM    1  C   UNL     1      43.593 -10.434  10.322  1.00  0.00     0.290 C 
HETATM    2  N   UNL     1      43.209 -10.611   9.008  1.00  0.00    -0.262 N 
HETATM    3  O   UNL     1      44.273 -11.227  10.967  1.00  0.00    -0.264 OA
HETATM    4  H   UNL     1      42.738  -9.838   8.537  1.00  0.00     0.190 HD
ENDROOT
BRANCH   2   5
HETATM    5  N   UNL     1      43.716 -11.653   8.234  1.00  0.00    -0.273 N 
HETATM    6  H   UNL     1      43.168 -12.519   8.180  1.00  0.00     0.189 HD
BRANCH   5   7
HETATM    7  C   UNL     1      44.684 -11.438   7.289  1.00  0.00     0.192 C 
HETATM    8  S   UNL     1      46.127 -10.626   7.569  1.00  0.00    -0.039 SA
BRANCH   7   9
HETATM    9  N   UNL     1      44.451 -11.911   6.029  1.00  0.00    -0.315 N 
HETATM   10  H   UNL     1      45.045 -11.529   5.305  1.00  0.00     0.170 HD
BRANCH   9  11
HETATM   11  C   UNL     1      43.448 -12.763   5.621  1.00  0.00     0.151 A 
HETATM   12  N   UNL     1      43.329 -14.035   6.014  1.00  0.00    -0.154 NA
HETATM   13  N   UNL     1      42.202 -14.467   5.407  1.00  0.00    -0.275 N 
HETATM   14  C   UNL     1      41.613 -13.513   4.629  1.00  0.00     0.116 A 
HETATM   15  C   UNL     1      42.403 -12.395   4.743  1.00  0.00     0.071 A 
BRANCH  13  16
HETATM   16  C   UNL     1      41.775 -15.852   5.561  1.00  0.00     0.192 C 
BRANCH  16  17
HETATM   17  C   UNL     1      42.526 -16.772   4.642  1.00  0.00     0.000 A 
HETATM   18  C   UNL     1      42.119 -16.933   3.315  1.00  0.00     0.124 A 
HETATM   19  F   UNL     1      41.058 -16.251   2.859  1.00  0.00    -0.205 F 
HETATM   20  C   UNL     1      42.796 -17.785   2.447  1.00  0.00     0.043 A 
HETATM   21  C   UNL     1      43.901 -18.498   2.905  1.00  0.00     0.003 A 
HETATM   22  C   UNL     1      44.318 -18.358   4.230  1.00  0.00     0.001 A 
HETATM   23  C   UNL     1      43.632 -17.504   5.097  1.00  0.00     0.012 A 
ENDBRANCH  16  17
ENDBRANCH  13  16
ENDBRANCH   9  11
ENDBRANCH   7   9
ENDBRANCH   5   7
ENDBRANCH   2   5
BRANCH   1  24
HETATM   24  C   UNL     1      43.084  -9.170  10.876  1.00  0.00     0.150 A 
HETATM   25  N   UNL     1      42.352  -9.140  12.015  1.00  0.00    -0.165 NA
HETATM   26  N   UNL     1      42.133  -7.831  12.213  1.00  0.00    -0.240 N 
HETATM   27  C   UNL     1      42.594  -7.027  11.211  1.00  0.00     0.123 A 
HETATM   28  C   UNL     1      41.423  -7.345  13.376  1.00  0.00     0.221 C 
HETATM   29  N   UNL     1      42.376  -5.697  11.216  1.00  0.00    -0.371 N 
HETATM   30  C   UNL     1      43.252  -7.861  10.342  1.00  0.00     0.089 A 
HETATM   31  C   UNL     1      41.509  -5.036  12.186  1.00  0.00     0.081 C 
HETATM   32  H   UNL     1      42.725  -5.110  10.458  1.00  0.00     0.161 HD
HETATM   33  C   UNL     1      42.319  -4.044  13.013  1.00  0.00     0.032 C 
HETATM   34  C   UNL     1      40.696  -6.037  13.025  1.00  0.00     0.061 C 
BRANCH  28  35
HETATM   35  C   UNL     1      42.372  -7.237  14.546  1.00  0.00     0.409 C 
HETATM   36  F   UNL     1      43.657  -7.096  14.145  1.00  0.00    -0.169 F 
HETATM   37  F   UNL     1      42.098  -6.218  15.383  1.00  0.00    -0.169 F 
HETATM   38  F   UNL     1      42.328  -8.376  15.287  1.00  0.00    -0.169 F 
ENDBRANCH  28  35
ENDBRANCH   1  24
TORSDOF 8
ENDMDL
MODEL 9
REMARK VINA RESULT:      -8.6      7.053     10.670
REMARK  8 active torsions:
REMARK  status: ('A' for Active; 'I' for Inactive)
REMARK    1  A    between atoms: C_7  and  C_8 
REMARK       I    between atoms: C_8  and  N_9 
REMARK    2  A    between atoms: N_9  and  N_10 
REMARK    3  A    between atoms: N_10  and  C_11 
REMARK    4  A    between atoms: C_11  and  N_12 
REMARK    5  A    between atoms: N_12  and  C_13 
REMARK    6  A    between atoms: N_15  and  C_16 
REMARK    7  A    between atoms: C_16  and  C_17 
REMARK    8  A    between atoms: C_29  and  C_30 
ROOT
HETATM    1  C   UNL     1      39.528 -10.074   9.347  1.00  0.00     0.290 C 
HETATM    2  N   UNL     1      40.552 -10.002   8.424  1.00  0.00    -0.262 N 
HETATM    3  O   UNL     1      38.434 -10.591   9.143  1.00  0.00    -0.264 OA
HETATM    4  H   UNL     1      41.456  -9.648   8.736  1.00  0.00     0.190 HD
ENDROOT
BRANCH   2   5
HETATM    5  N   UNL     1      40.485 -10.679   7.208  1.00  0.00    -0.273 N 
HETATM    6  H   UNL     1      39.656 -11.255   7.027  1.00  0.00     0.189 HD
BRANCH   5   7
HETATM    7  C   UNL     1      41.269 -10.321   6.144  1.00  0.00     0.192 C 
HETATM    8  S   UNL     1      40.907  -9.085   5.066  1.00  0.00    -0.039 SA
BRANCH   7   9
HETATM    9  N   UNL     1      42.421 -11.026   5.943  1.00  0.00    -0.315 N 
HETATM   10  H   UNL     1      43.177 -10.512   5.510  1.00  0.00     0.170 HD
BRANCH   9  11
HETATM   11  C   UNL     1      42.638 -12.368   6.170  1.00  0.00     0.151 A 
HETATM   12  N   UNL     1      41.773 -13.338   5.854  1.00  0.00    -0.154 NA
HETATM   13  N   UNL     1      42.404 -14.476   6.213  1.00  0.00    -0.275 N 
HETATM   14  C   UNL     1      43.635 -14.258   6.762  1.00  0.00     0.116 A 
HETATM   15  C   UNL     1      43.813 -12.895   6.752  1.00  0.00     0.071 A 
BRANCH  13  16
HETATM   16  C   UNL     1      41.733 -15.762   6.067  1.00  0.00     0.192 C 
BRANCH  16  17
HETATM   17  C   UNL     1      42.467 -16.670   5.124  1.00  0.00     0.000 A 
HETATM   18  C   UNL     1      43.290 -17.685   5.617  1.00  0.00     0.124 A 
HETATM   19  F   UNL     1      43.413 -17.855   6.942  1.00  0.00    -0.205 F 
HETATM   20  C   UNL     1      43.985 -18.535   4.762  1.00  0.00     0.043 A 
HETATM   21  C   UNL     1      43.866 -18.373   3.383  1.00  0.00     0.003 A 
HETATM   22  C   UNL     1      43.057 -17.359   2.870  1.00  0.00     0.001 A 
HETATM   23  C   UNL     1      42.364 -16.506   3.735  1.00  0.00     0.012 A 
ENDBRANCH  16  17
ENDBRANCH  13  16
ENDBRANCH   9  11
ENDBRANCH   7   9
ENDBRANCH   5   7
ENDBRANCH   2   5
BRANCH   1  24
HETATM   24  C   UNL     1      39.898  -9.444  10.625  1.00  0.00     0.150 A 
HETATM   25  N   UNL     1      41.044  -9.767  11.267  1.00  0.00    -0.165 NA
HETATM   26  N   UNL     1      41.044  -8.956  12.336  1.00  0.00    -0.240 N 
HETATM   27  C   UNL     1      39.913  -8.205  12.470  1.00  0.00     0.123 A 
HETATM   28  C   UNL     1      42.143  -8.935  13.277  1.00  0.00     0.221 C 
HETATM   29  N   UNL     1      39.719  -7.404  13.537  1.00  0.00    -0.371 N 
HETATM   30  C   UNL     1      39.160  -8.469  11.354  1.00  0.00     0.089 A 
HETATM   31  C   UNL     1      40.606  -7.392  14.695  1.00  0.00     0.081 C 
HETATM   32  H   UNL     1      38.867  -6.850  13.623  1.00  0.00     0.161 HD
HETATM   33  C   UNL     1      41.238  -6.013  14.851  1.00  0.00     0.032 C 
HETATM   34  C   UNL     1      41.621  -8.548  14.670  1.00  0.00     0.061 C 
BRANCH  28  35
HETATM   35  C   UNL     1      43.246  -8.044  12.755  1.00  0.00     0.409 C 
HETATM   36  F   UNL     1      42.768  -7.055  11.964  1.00  0.00    -0.169 F 
HETATM   37  F   UNL     1      43.987  -7.464  13.719  1.00  0.00    -0.169 F 
HETATM   38  F   UNL     1      44.101  -8.766  11.984  1.00  0.00    -0.169 F 
ENDBRANCH  28  35
ENDBRANCH   1  24
TORSDOF 8
ENDMDL
MODEL 10
REMARK VINA RESULT:      -8.6      6.440      9.893
REMARK  8 active torsions:
REMARK  status: ('A' for Active; 'I' for Inactive)
REMARK    1  A    between atoms: C_7  and  C_8 
REMARK       I    between atoms: C_8  and  N_9 
REMARK    2  A    between atoms: N_9  and  N_10 
REMARK    3  A    between atoms: N_10  and  C_11 
REMARK    4  A    between atoms: C_11  and  N_12 
REMARK    5  A    between atoms: N_12  and  C_13 
REMARK    6  A    between atoms: N_15  and  C_16 
REMARK    7  A    between atoms: C_16  and  C_17 
REMARK    8  A    between atoms: C_29  and  C_30 
ROOT
HETATM    1  C   UNL     1      41.593  -9.409   7.501  1.00  0.00     0.290 C 
HETATM    2  N   UNL     1      42.182 -10.647   7.342  1.00  0.00    -0.262 N 
HETATM    3  O   UNL     1      41.360  -8.621   6.589  1.00  0.00    -0.264 OA
HETATM    4  H   UNL     1      42.229 -11.264   8.153  1.00  0.00     0.190 HD
ENDROOT
BRANCH   2   5
HETATM    5  N   UNL     1      42.412 -11.188   6.078  1.00  0.00    -0.273 N 
HETATM    6  H   UNL     1      43.281 -10.929   5.599  1.00  0.00     0.189 HD
BRANCH   5   7
HETATM    7  C   UNL     1      41.732 -12.292   5.637  1.00  0.00     0.192 C 
HETATM    8  S   UNL     1      40.891 -12.377   4.185  1.00  0.00    -0.039 SA
BRANCH   7   9
HETATM    9  N   UNL     1      41.732 -13.396   6.440  1.00  0.00    -0.315 N 
HETATM   10  H   UNL     1      41.539 -13.224   7.417  1.00  0.00     0.170 HD
BRANCH   9  11
HETATM   11  C   UNL     1      42.059 -14.690   6.094  1.00  0.00     0.151 A 
HETATM   12  N   UNL     1      43.305 -15.123   5.876  1.00  0.00    -0.154 NA
HETATM   13  N   UNL     1      43.157 -16.439   5.607  1.00  0.00    -0.275 N 
HETATM   14  C   UNL     1      41.855 -16.848   5.631  1.00  0.00     0.116 A 
HETATM   15  C   UNL     1      41.116 -15.731   5.940  1.00  0.00     0.071 A 
BRANCH  13  16
HETATM   16  C   UNL     1      44.318 -17.248   5.259  1.00  0.00     0.192 C 
BRANCH  16  17
HETATM   17  C   UNL     1      43.978 -18.300   4.243  1.00  0.00     0.000 A 
HETATM   18  C   UNL     1      44.056 -19.655   4.575  1.00  0.00     0.124 A 
HETATM   19  F   UNL     1      44.425 -20.014   5.814  1.00  0.00    -0.205 F 
HETATM   20  C   UNL     1      43.752 -20.648   3.648  1.00  0.00     0.043 A 
HETATM   21  C   UNL     1      43.365 -20.291   2.359  1.00  0.00     0.003 A 
HETATM   22  C   UNL     1      43.290 -18.943   2.004  1.00  0.00     0.001 A 
HETATM   23  C   UNL     1      43.600 -17.951   2.938  1.00  0.00     0.012 A 
ENDBRANCH  16  17
ENDBRANCH  13  16
ENDBRANCH   9  11
ENDBRANCH   7   9
ENDBRANCH   5   7
ENDBRANCH   2   5
BRANCH   1  24
HETATM   24  C   UNL     1      41.277  -9.130   8.910  1.00  0.00     0.150 A 
HETATM   25  N   UNL     1      42.096  -9.527   9.912  1.00  0.00    -0.165 NA
HETATM   26  N   UNL     1      41.502  -9.045  11.014  1.00  0.00    -0.240 N 
HETATM   27  C   UNL     1      40.294  -8.451  10.786  1.00  0.00     0.123 A 
HETATM   28  C   UNL     1      42.090  -9.200  12.327  1.00  0.00     0.221 C 
HETATM   29  N   UNL     1      39.529  -7.994  11.797  1.00  0.00    -0.371 N 
HETATM   30  C   UNL     1      40.133  -8.454   9.423  1.00  0.00     0.089 A 
HETATM   31  C   UNL     1      39.842  -8.234  13.202  1.00  0.00     0.081 C 
HETATM   32  H   UNL     1      38.629  -7.554  11.610  1.00  0.00     0.161 HD
HETATM   33  C   UNL     1      40.077  -6.907  13.915  1.00  0.00     0.032 C 
HETATM   34  C   UNL     1      40.978  -9.255  13.386  1.00  0.00     0.061 C 
BRANCH  28  35
HETATM   35  C   UNL     1      43.117  -8.116  12.556  1.00  0.00     0.409 C 
HETATM   36  F   UNL     1      42.787  -6.963  11.930  1.00  0.00    -0.169 F 
HETATM   37  F   UNL     1      43.325  -7.822  13.855  1.00  0.00    -0.169 F 
HETATM   38  F   UNL     1      44.317  -8.496  12.043  1.00  0.00    -0.169 F 
ENDBRANCH  28  35
ENDBRANCH   1  24
TORSDOF 8
ENDMDL
