MODEL 1
REMARK VINA RESULT:      -9.6      0.000      0.000
REMARK  5 active torsions:
REMARK  status: ('A' for Active; 'I' for Inactive)
REMARK       I    between atoms: C_2  and  N_3 
REMARK    1  A    between atoms: N_3  and  C_4 
REMARK    2  A    between atoms: N_7  and  C_8 
REMARK    3  A    between atoms: C_8  and  C_9 
REMARK       I    between atoms: C_9  and  N_10 
REMARK    4  A    between atoms: C_13  and  O_14 
REMARK    5  A    between atoms: C_13  and  C_15 
ROOT
HETATM    1  C   UNL     1      40.670 -13.189   4.207  1.00  0.00     0.238 C 
HETATM    2  N   UNL     1      41.484 -14.081   4.918  1.00  0.00    -0.350 N 
HETATM    3  C   UNL     1      42.893 -14.292   4.591  1.00  0.00     0.129 C 
HETATM    4  C   UNL     1      43.655 -14.958   5.726  1.00  0.00     0.063 C 
HETATM    5  C   UNL     1      43.021 -16.308   6.095  1.00  0.00     0.088 C 
HETATM    6  C   UNL     1      41.580 -16.012   6.546  1.00  0.00     0.063 C 
HETATM    7  C   UNL     1      40.771 -15.190   5.548  1.00  0.00     0.129 C 
HETATM    8  O   UNL     1      39.470 -13.066   4.470  1.00  0.00    -0.272 OA
ENDROOT
BRANCH   1   9
HETATM    9  C   UNL     1      41.263 -12.414   3.039  1.00  0.00     0.231 C 
BRANCH   9  10
HETATM   10  N   UNL     1      40.831 -12.961   1.756  1.00  0.00    -0.347 N 
HETATM   11  C   UNL     1      40.858 -12.309   0.536  1.00  0.00     0.047 A 
HETATM   12  C   UNL     1      40.362 -13.205  -0.424  1.00  0.00     0.019 A 
HETATM   13  C   UNL     1      41.267 -11.014   0.188  1.00  0.00     0.031 A 
HETATM   14  C   UNL     1      40.252 -12.799  -1.782  1.00  0.00     0.047 A 
HETATM   15  C   UNL     1      40.026 -14.405   0.270  1.00  0.00     0.033 A 
HETATM   16  C   UNL     1      40.685 -11.512  -2.121  1.00  0.00     0.030 A 
HETATM   17  C   UNL     1      41.179 -10.637  -1.153  1.00  0.00     0.005 A 
HETATM   18  C   UNL     1      40.301 -14.218   1.602  1.00  0.00     0.092 A 
BRANCH  14  19
HETATM   19  N   UNL     1      39.755 -13.740  -2.705  1.00  0.00    -0.327 N 
HETATM   20  C   UNL     1      38.518 -13.985  -3.220  1.00  0.00     0.218 C 
HETATM   21  C   UNL     1      37.294 -13.323  -2.660  1.00  0.00     0.117 C 
HETATM   22  O   UNL     1      38.416 -14.810  -4.132  1.00  0.00    -0.274 OA
HETATM   23  H   UNL     1      40.434 -14.398  -3.067  1.00  0.00     0.169 HD
ENDBRANCH  14  19
ENDBRANCH   9  10
ENDBRANCH   1   9
BRANCH   5  24
HETATM   24  O   UNL     1      43.711 -16.801   7.256  1.00  0.00    -0.385 OA
HETATM   25  H   UNL     1      43.731 -17.772   7.195  1.00  0.00     0.211 HD
ENDBRANCH   5  24
BRANCH   5  26
HETATM   26  C   UNL     1      43.225 -17.353   4.993  1.00  0.00    -0.024 A 
HETATM   27  C   UNL     1      43.838 -18.580   5.324  1.00  0.00     0.012 A 
HETATM   28  C   UNL     1      44.102 -19.552   4.355  1.00  0.00     0.024 A 
HETATM   29  C   UNL     1      43.744 -19.319   3.034  1.00  0.00     0.034 A 
HETATM   30 CL   UNL     1      44.081 -20.501   1.833  1.00  0.00    -0.084 Cl
HETATM   31  C   UNL     1      43.104 -18.135   2.684  1.00  0.00     0.024 A 
HETATM   32  C   UNL     1      42.834 -17.165   3.659  1.00  0.00     0.012 A 
ENDBRANCH   5  26
TORSDOF 5
ENDMDL
MODEL 2
REMARK VINA RESULT:      -9.5      1.192      2.095
REMARK  5 active torsions:
REMARK  status: ('A' for Active; 'I' for Inactive)
REMARK       I    between atoms: C_2  and  N_3 
REMARK    1  A    between atoms: N_3  and  C_4 
REMARK    2  A    between atoms: N_7  and  C_8 
REMARK    3  A    between atoms: C_8  and  C_9 
REMARK       I    between atoms: C_9  and  N_10 
REMARK    4  A    between atoms: C_13  and  O_14 
REMARK    5  A    between atoms: C_13  and  C_15 
ROOT
HETATM    1  C   UNL     1      41.045 -12.961   5.159  1.00  0.00     0.238 C 
HETATM    2  N   UNL     1      41.793 -13.978   5.768  1.00  0.00    -0.350 N 
HETATM    3  C   UNL     1      43.190 -14.238   5.427  1.00  0.00     0.129 C 
HETATM    4  C   UNL     1      43.895 -15.076   6.482  1.00  0.00     0.063 C 
HETATM    5  C   UNL     1      43.173 -16.416   6.692  1.00  0.00     0.088 C 
HETATM    6  C   UNL     1      41.749 -16.083   7.166  1.00  0.00     0.063 C 
HETATM    7  C   UNL     1      41.004 -15.104   6.264  1.00  0.00     0.129 C 
HETATM    8  O   UNL     1      39.851 -12.793   5.427  1.00  0.00    -0.272 OA
ENDROOT
BRANCH   1   9
HETATM    9  C   UNL     1      41.699 -12.098   4.090  1.00  0.00     0.231 C 
BRANCH   9  10
HETATM   10  N   UNL     1      40.979 -12.172   2.823  1.00  0.00    -0.347 N 
HETATM   11  C   UNL     1      40.712 -13.320   2.097  1.00  0.00     0.047 A 
HETATM   12  C   UNL     1      39.994 -12.931   0.955  1.00  0.00     0.019 A 
HETATM   13  C   UNL     1      41.038 -14.662   2.336  1.00  0.00     0.031 A 
HETATM   14  C   UNL     1      39.596 -13.907   0.002  1.00  0.00     0.047 A 
HETATM   15  C   UNL     1      39.858 -11.513   1.020  1.00  0.00     0.033 A 
HETATM   16  C   UNL     1      39.907 -15.247   0.262  1.00  0.00     0.030 A 
HETATM   17  C   UNL     1      40.618 -15.614   1.406  1.00  0.00     0.005 A 
HETATM   18  C   UNL     1      40.489 -11.076   2.158  1.00  0.00     0.092 A 
BRANCH  14  19
HETATM   19  N   UNL     1      38.871 -13.464  -1.122  1.00  0.00    -0.327 N 
HETATM   20  C   UNL     1      39.228 -13.120  -2.390  1.00  0.00     0.218 C 
HETATM   21  C   UNL     1      40.667 -12.954  -2.780  1.00  0.00     0.117 C 
HETATM   22  O   UNL     1      38.333 -12.894  -3.209  1.00  0.00    -0.274 OA
HETATM   23  H   UNL     1      37.875 -13.351  -0.983  1.00  0.00     0.169 HD
ENDBRANCH  14  19
ENDBRANCH   9  10
ENDBRANCH   1   9
BRANCH   5  24
HETATM   24  O   UNL     1      43.817 -17.080   7.793  1.00  0.00    -0.385 OA
HETATM   25  H   UNL     1      43.119 -17.462   8.354  1.00  0.00     0.211 HD
ENDBRANCH   5  24
BRANCH   5  26
HETATM   26  C   UNL     1      43.326 -17.340   5.480  1.00  0.00    -0.024 A 
HETATM   27  C   UNL     1      43.769 -18.665   5.685  1.00  0.00     0.012 A 
HETATM   28  C   UNL     1      43.981 -19.540   4.616  1.00  0.00     0.024 A 
HETATM   29  C   UNL     1      43.739 -19.110   3.318  1.00  0.00     0.034 A 
HETATM   30 CL   UNL     1      44.015 -20.174   1.996  1.00  0.00    -0.084 Cl
HETATM   31  C   UNL     1      43.266 -17.822   3.087  1.00  0.00     0.024 A 
HETATM   32  C   UNL     1      43.048 -16.948   4.161  1.00  0.00     0.012 A 
ENDBRANCH   5  26
TORSDOF 5
ENDMDL
MODEL 3
REMARK VINA RESULT:      -9.4      3.033      7.765
REMARK  5 active torsions:
REMARK  status: ('A' for Active; 'I' for Inactive)
REMARK       I    between atoms: C_2  and  N_3 
REMARK    1  A    between atoms: N_3  and  C_4 
REMARK    2  A    between atoms: N_7  and  C_8 
REMARK    3  A    between atoms: C_8  and  C_9 
REMARK       I    between atoms: C_9  and  N_10 
REMARK    4  A    between atoms: C_13  and  O_14 
REMARK    5  A    between atoms: C_13  and  C_15 
ROOT
HETATM    1  C   UNL     1      41.415 -12.694   3.997  1.00  0.00     0.238 C 
HETATM    2  N   UNL     1      40.537 -12.015   3.141  1.00  0.00    -0.350 N 
HETATM    3  C   UNL     1      39.176 -12.483   2.879  1.00  0.00     0.129 C 
HETATM    4  C   UNL     1      38.299 -11.395   2.281  1.00  0.00     0.063 C 
HETATM    5  C   UNL     1      38.903 -10.859   0.973  1.00  0.00     0.088 C 
HETATM    6  C   UNL     1      40.280 -10.272   1.329  1.00  0.00     0.063 C 
HETATM    7  C   UNL     1      41.187 -11.230   2.095  1.00  0.00     0.129 C 
HETATM    8  O   UNL     1      42.577 -12.308   4.162  1.00  0.00    -0.272 OA
ENDROOT
BRANCH   1   9
HETATM    9  C   UNL     1      40.950 -13.974   4.674  1.00  0.00     0.231 C 
BRANCH   9  10
HETATM   10  N   UNL     1      41.448 -15.161   3.985  1.00  0.00    -0.347 N 
HETATM   11  C   UNL     1      42.501 -15.963   4.389  1.00  0.00     0.047 A 
HETATM   12  C   UNL     1      42.629 -16.988   3.439  1.00  0.00     0.019 A 
HETATM   13  C   UNL     1      43.354 -15.880   5.499  1.00  0.00     0.031 A 
HETATM   14  C   UNL     1      43.654 -17.963   3.584  1.00  0.00     0.047 A 
HETATM   15  C   UNL     1      41.628 -16.759   2.450  1.00  0.00     0.033 A 
HETATM   16  C   UNL     1      44.484 -17.884   4.707  1.00  0.00     0.030 A 
HETATM   17  C   UNL     1      44.338 -16.859   5.643  1.00  0.00     0.005 A 
HETATM   18  C   UNL     1      40.939 -15.624   2.797  1.00  0.00     0.092 A 
BRANCH  14  19
HETATM   19  N   UNL     1      43.733 -18.974   2.606  1.00  0.00    -0.327 N 
HETATM   20  C   UNL     1      43.718 -20.335   2.662  1.00  0.00     0.218 C 
HETATM   21  C   UNL     1      43.823 -21.065   3.969  1.00  0.00     0.117 C 
HETATM   22  O   UNL     1      43.669 -20.965   1.602  1.00  0.00    -0.274 OA
HETATM   23  H   UNL     1      43.842 -18.653   1.652  1.00  0.00     0.169 HD
ENDBRANCH  14  19
ENDBRANCH   9  10
ENDBRANCH   1   9
BRANCH   5  24
HETATM   24  O   UNL     1      38.092  -9.750   0.551  1.00  0.00    -0.385 OA
HETATM   25  H   UNL     1      38.518  -9.357  -0.232  1.00  0.00     0.211 HD
ENDBRANCH   5  24
BRANCH   5  26
HETATM   26  C   UNL     1      38.838 -11.897  -0.151  1.00  0.00    -0.024 A 
HETATM   27  C   UNL     1      37.735 -11.879  -1.032  1.00  0.00     0.012 A 
HETATM   28  C   UNL     1      37.589 -12.832  -2.043  1.00  0.00     0.024 A 
HETATM   29  C   UNL     1      38.555 -13.817  -2.202  1.00  0.00     0.034 A 
HETATM   30 CL   UNL     1      38.374 -15.005  -3.432  1.00  0.00    -0.084 Cl
HETATM   31  C   UNL     1      39.672 -13.839  -1.374  1.00  0.00     0.024 A 
HETATM   32  C   UNL     1      39.819 -12.877  -0.365  1.00  0.00     0.012 A 
ENDBRANCH   5  26
TORSDOF 5
ENDMDL
MODEL 4
REMARK VINA RESULT:      -9.2      4.886      8.396
REMARK  5 active torsions:
REMARK  status: ('A' for Active; 'I' for Inactive)
REMARK       I    between atoms: C_2  and  N_3 
REMARK    1  A    between atoms: N_3  and  C_4 
REMARK    2  A    between atoms: N_7  and  C_8 
REMARK    3  A    between atoms: C_8  and  C_9 
REMARK       I    between atoms: C_9  and  N_10 
REMARK    4  A    between atoms: C_13  and  O_14 
REMARK    5  A    between atoms: C_13  and  C_15 
ROOT
HETATM    1  C   UNL     1      43.926 -11.912   5.004  1.00  0.00     0.238 C 
HETATM    2  N   UNL     1      42.973 -12.922   4.810  1.00  0.00    -0.350 N 
HETATM    3  C   UNL     1      42.516 -13.788   5.895  1.00  0.00     0.129 C 
HETATM    4  C   UNL     1      41.214 -14.497   5.556  1.00  0.00     0.063 C 
HETATM    5  C   UNL     1      41.362 -15.334   4.275  1.00  0.00     0.088 C 
HETATM    6  C   UNL     1      41.724 -14.355   3.145  1.00  0.00     0.063 C 
HETATM    7  C   UNL     1      42.923 -13.463   3.454  1.00  0.00     0.129 C 
HETATM    8  O   UNL     1      44.335 -11.226   4.061  1.00  0.00    -0.272 OA
ENDROOT
BRANCH   1   9
HETATM    9  C   UNL     1      44.524 -11.711   6.388  1.00  0.00     0.231 C 
BRANCH   9  10
HETATM   10  N   UNL     1      43.718 -10.799   7.195  1.00  0.00    -0.347 N 
HETATM   11  C   UNL     1      44.051 -10.290   8.437  1.00  0.00     0.047 A 
HETATM   12  C   UNL     1      42.998  -9.454   8.840  1.00  0.00     0.019 A 
HETATM   13  C   UNL     1      45.179 -10.489   9.246  1.00  0.00     0.031 A 
HETATM   14  C   UNL     1      43.054  -8.801  10.101  1.00  0.00     0.047 A 
HETATM   15  C   UNL     1      42.021  -9.497   7.801  1.00  0.00     0.033 A 
HETATM   16  C   UNL     1      44.195  -8.989  10.890  1.00  0.00     0.030 A 
HETATM   17  C   UNL     1      45.234  -9.821  10.470  1.00  0.00     0.005 A 
HETATM   18  C   UNL     1      42.477 -10.344   6.823  1.00  0.00     0.092 A 
BRANCH  14  19
HETATM   19  N   UNL     1      41.974  -7.968  10.452  1.00  0.00    -0.327 N 
HETATM   20  C   UNL     1      40.811  -8.177  11.129  1.00  0.00     0.218 C 
HETATM   21  C   UNL     1      40.352  -9.561  11.486  1.00  0.00     0.117 C 
HETATM   22  O   UNL     1      40.108  -7.200  11.402  1.00  0.00    -0.274 OA
HETATM   23  H   UNL     1      42.039  -7.009  10.133  1.00  0.00     0.169 HD
ENDBRANCH  14  19
ENDBRANCH   9  10
ENDBRANCH   1   9
BRANCH   5  24
HETATM   24  O   UNL     1      40.061 -15.854   3.953  1.00  0.00    -0.385 OA
HETATM   25  H   UNL     1      40.020 -15.963   2.986  1.00  0.00     0.211 HD
ENDBRANCH   5  24
BRANCH   5  26
HETATM   26  C   UNL     1      42.273 -16.547   4.490  1.00  0.00    -0.024 A 
HETATM   27  C   UNL     1      42.837 -17.183   3.363  1.00  0.00     0.012 A 
HETATM   28  C   UNL     1      43.631 -18.326   3.488  1.00  0.00     0.024 A 
HETATM   29  C   UNL     1      43.888 -18.849   4.749  1.00  0.00     0.034 A 
HETATM   30 CL   UNL     1      44.848 -20.265   4.910  1.00  0.00    -0.084 Cl
HETATM   31  C   UNL     1      43.376 -18.223   5.881  1.00  0.00     0.024 A 
HETATM   32  C   UNL     1      42.585 -17.073   5.753  1.00  0.00     0.012 A 
ENDBRANCH   5  26
TORSDOF 5
ENDMDL
MODEL 5
REMARK VINA RESULT:      -8.8      3.633      7.068
REMARK  5 active torsions:
REMARK  status: ('A' for Active; 'I' for Inactive)
REMARK       I    between atoms: C_2  and  N_3 
REMARK    1  A    between atoms: N_3  and  C_4 
REMARK    2  A    between atoms: N_7  and  C_8 
REMARK    3  A    between atoms: C_8  and  C_9 
REMARK       I    between atoms: C_9  and  N_10 
REMARK    4  A    between atoms: C_13  and  O_14 
REMARK    5  A    between atoms: C_13  and  C_15 
ROOT
HETATM    1  C   UNL     1      43.121 -13.468   6.455  1.00  0.00     0.238 C 
HETATM    2  N   UNL     1      42.379 -12.471   5.807  1.00  0.00    -0.350 N 
HETATM    3  C   UNL     1      40.940 -12.586   5.577  1.00  0.00     0.129 C 
HETATM    4  C   UNL     1      40.299 -11.246   5.254  1.00  0.00     0.063 C 
HETATM    5  C   UNL     1      40.953 -10.608   4.019  1.00  0.00     0.088 C 
HETATM    6  C   UNL     1      42.438 -10.399   4.362  1.00  0.00     0.063 C 
HETATM    7  C   UNL     1      43.143 -11.653   4.869  1.00  0.00     0.129 C 
HETATM    8  O   UNL     1      44.345 -13.371   6.593  1.00  0.00    -0.272 OA
ENDROOT
BRANCH   1   9
HETATM    9  C   UNL     1      42.414 -14.729   6.930  1.00  0.00     0.231 C 
BRANCH   9  10
HETATM   10  N   UNL     1      42.879 -15.910   6.209  1.00  0.00    -0.347 N 
HETATM   11  C   UNL     1      42.958 -16.055   4.835  1.00  0.00     0.047 A 
HETATM   12  C   UNL     1      43.463 -17.340   4.581  1.00  0.00     0.019 A 
HETATM   13  C   UNL     1      42.630 -15.177   3.792  1.00  0.00     0.031 A 
HETATM   14  C   UNL     1      43.635 -17.781   3.241  1.00  0.00     0.047 A 
HETATM   15  C   UNL     1      43.665 -17.958   5.850  1.00  0.00     0.033 A 
HETATM   16  C   UNL     1      43.326 -16.889   2.209  1.00  0.00     0.030 A 
HETATM   17  C   UNL     1      42.829 -15.613   2.482  1.00  0.00     0.005 A 
HETATM   18  C   UNL     1      43.278 -17.071   6.823  1.00  0.00     0.092 A 
BRANCH  14  19
HETATM   19  N   UNL     1      44.151 -19.077   3.043  1.00  0.00    -0.327 N 
HETATM   20  C   UNL     1      43.693 -20.178   2.385  1.00  0.00     0.218 C 
HETATM   21  C   UNL     1      42.289 -20.248   1.862  1.00  0.00     0.117 C 
HETATM   22  O   UNL     1      44.447 -21.148   2.272  1.00  0.00    -0.274 OA
HETATM   23  H   UNL     1      45.042 -19.265   3.486  1.00  0.00     0.169 HD
ENDBRANCH  14  19
ENDBRANCH   9  10
ENDBRANCH   1   9
BRANCH   5  24
HETATM   24  O   UNL     1      40.388  -9.295   3.867  1.00  0.00    -0.385 OA
HETATM   25  H   UNL     1      39.656  -9.215   4.505  1.00  0.00     0.211 HD
ENDBRANCH   5  24
BRANCH   5  26
HETATM   26  C   UNL     1      40.617 -11.376   2.736  1.00  0.00    -0.024 A 
HETATM   27  C   UNL     1      39.264 -11.498   2.351  1.00  0.00     0.012 A 
HETATM   28  C   UNL     1      38.887 -12.232   1.223  1.00  0.00     0.024 A 
HETATM   29  C   UNL     1      39.861 -12.848   0.448  1.00  0.00     0.034 A 
HETATM   30 CL   UNL     1      39.405 -13.768  -0.931  1.00  0.00    -0.084 Cl
HETATM   31  C   UNL     1      41.205 -12.714   0.781  1.00  0.00     0.024 A 
HETATM   32  C   UNL     1      41.581 -11.972   1.910  1.00  0.00     0.012 A 
ENDBRANCH   5  26
TORSDOF 5
ENDMDL
MODEL 6
REMARK VINA RESULT:      -8.7      3.698      7.760
REMARK  5 active torsions:
REMARK  status: ('A' for Active; 'I' for Inactive)
REMARK       I    between atoms: C_2  and  N_3 
REMARK    1  A    between atoms: N_3  and  C_4 
REMARK    2  A    between atoms: N_7  and  C_8 
REMARK    3  A    between atoms: C_8  and  C_9 
REMARK       I    between atoms: C_9  and  N_10 
REMARK    4  A    between atoms: C_13  and  O_14 
REMARK    5  A    between atoms: C_13  and  C_15 
ROOT
HETATM    1  C   UNL     1      40.501 -10.573   3.405  1.00  0.00     0.238 C 
HETATM    2  N   UNL     1      40.298 -11.769   2.701  1.00  0.00    -0.350 N 
HETATM    3  C   UNL     1      39.631 -12.926   3.295  1.00  0.00     0.129 C 
HETATM    4  C   UNL     1      39.158 -13.919   2.245  1.00  0.00     0.063 C 
HETATM    5  C   UNL     1      40.333 -14.407   1.382  1.00  0.00     0.088 C 
HETATM    6  C   UNL     1      40.919 -13.165   0.689  1.00  0.00     0.063 C 
HETATM    7  C   UNL     1      41.270 -12.027   1.642  1.00  0.00     0.129 C 
HETATM    8  O   UNL     1      41.113  -9.627   2.900  1.00  0.00    -0.272 OA
ENDROOT
BRANCH   1   9
HETATM    9  C   UNL     1      40.025 -10.471   4.846  1.00  0.00     0.231 C 
BRANCH   9  10
HETATM   10  N   UNL     1      41.132 -10.214   5.762  1.00  0.00    -0.347 N 
HETATM   11  C   UNL     1      42.141 -11.099   6.098  1.00  0.00     0.047 A 
HETATM   12  C   UNL     1      42.991 -10.437   6.998  1.00  0.00     0.019 A 
HETATM   13  C   UNL     1      42.385 -12.420   5.695  1.00  0.00     0.031 A 
HETATM   14  C   UNL     1      44.119 -11.115   7.536  1.00  0.00     0.047 A 
HETATM   15  C   UNL     1      42.442  -9.136   7.198  1.00  0.00     0.033 A 
HETATM   16  C   UNL     1      44.365 -12.425   7.110  1.00  0.00     0.030 A 
HETATM   17  C   UNL     1      43.510 -13.064   6.210  1.00  0.00     0.005 A 
HETATM   18  C   UNL     1      41.296  -9.037   6.450  1.00  0.00     0.092 A 
BRANCH  14  19
HETATM   19  N   UNL     1      44.942 -10.402   8.430  1.00  0.00    -0.327 N 
HETATM   20  C   UNL     1      44.898 -10.184   9.773  1.00  0.00     0.218 C 
HETATM   21  C   UNL     1      43.696 -10.562  10.588  1.00  0.00     0.117 C 
HETATM   22  O   UNL     1      45.855  -9.617  10.306  1.00  0.00    -0.274 OA
HETATM   23  H   UNL     1      45.732  -9.926   8.012  1.00  0.00     0.169 HD
ENDBRANCH  14  19
ENDBRANCH   9  10
ENDBRANCH   1   9
BRANCH   5  24
HETATM   24  O   UNL     1      39.783 -15.227   0.337  1.00  0.00    -0.385 OA
HETATM   25  H   UNL     1      38.815 -15.231   0.445  1.00  0.00     0.211 HD
ENDBRANCH   5  24
BRANCH   5  26
HETATM   26  C   UNL     1      41.290 -15.301   2.177  1.00  0.00    -0.024 A 
HETATM   27  C   UNL     1      42.488 -15.729   1.565  1.00  0.00     0.012 A 
HETATM   28  C   UNL     1      43.376 -16.589   2.216  1.00  0.00     0.024 A 
HETATM   29  C   UNL     1      43.088 -17.029   3.501  1.00  0.00     0.034 A 
HETATM   30 CL   UNL     1      44.166 -18.103   4.302  1.00  0.00    -0.084 Cl
HETATM   31  C   UNL     1      41.934 -16.595   4.144  1.00  0.00     0.024 A 
HETATM   32  C   UNL     1      41.048 -15.727   3.492  1.00  0.00     0.012 A 
ENDBRANCH   5  26
TORSDOF 5
ENDMDL
MODEL 7
REMARK VINA RESULT:      -8.5      1.769      2.432
REMARK  5 active torsions:
REMARK  status: ('A' for Active; 'I' for Inactive)
REMARK       I    between atoms: C_2  and  N_3 
REMARK    1  A    between atoms: N_3  and  C_4 
REMARK    2  A    between atoms: N_7  and  C_8 
REMARK    3  A    between atoms: C_8  and  C_9 
REMARK       I    between atoms: C_9  and  N_10 
REMARK    4  A    between atoms: C_13  and  O_14 
REMARK    5  A    between atoms: C_13  and  C_15 
ROOT
HETATM    1  C   UNL     1      40.760 -13.101   2.444  1.00  0.00     0.238 C 
HETATM    2  N   UNL     1      41.339 -13.905   3.436  1.00  0.00    -0.350 N 
HETATM    3  C   UNL     1      42.773 -14.183   3.483  1.00  0.00     0.129 C 
HETATM    4  C   UNL     1      43.215 -14.705   4.841  1.00  0.00     0.063 C 
HETATM    5  C   UNL     1      42.445 -15.981   5.216  1.00  0.00     0.088 C 
HETATM    6  C   UNL     1      40.956 -15.601   5.270  1.00  0.00     0.063 C 
HETATM    7  C   UNL     1      40.444 -14.905   4.012  1.00  0.00     0.129 C 
HETATM    8  O   UNL     1      39.538 -12.921   2.395  1.00  0.00    -0.272 OA
ENDROOT
BRANCH   1   9
HETATM    9  C   UNL     1      41.646 -12.501   1.364  1.00  0.00     0.231 C 
BRANCH   9  10
HETATM   10  N   UNL     1      40.858 -11.928   0.277  1.00  0.00    -0.347 N 
HETATM   11  C   UNL     1      40.167 -12.630  -0.695  1.00  0.00     0.047 A 
HETATM   12  C   UNL     1      39.547 -11.686  -1.528  1.00  0.00     0.019 A 
HETATM   13  C   UNL     1      40.032 -14.007  -0.920  1.00  0.00     0.031 A 
HETATM   14  C   UNL     1      38.775 -12.120  -2.640  1.00  0.00     0.047 A 
HETATM   15  C   UNL     1      39.907 -10.399  -1.027  1.00  0.00     0.033 A 
HETATM   16  C   UNL     1      38.629 -13.497  -2.842  1.00  0.00     0.030 A 
HETATM   17  C   UNL     1      39.250 -14.421  -1.999  1.00  0.00     0.005 A 
HETATM   18  C   UNL     1      40.726 -10.578   0.059  1.00  0.00     0.092 A 
BRANCH  14  19
HETATM   19  N   UNL     1      38.170 -11.131  -3.439  1.00  0.00    -0.327 N 
HETATM   20  C   UNL     1      37.129 -10.275  -3.241  1.00  0.00     0.218 C 
HETATM   21  C   UNL     1      36.224 -10.406  -2.052  1.00  0.00     0.117 C 
HETATM   22  O   UNL     1      36.911  -9.411  -4.095  1.00  0.00    -0.274 OA
HETATM   23  H   UNL     1      38.557 -11.022  -4.368  1.00  0.00     0.169 HD
ENDBRANCH  14  19
ENDBRANCH   9  10
ENDBRANCH   1   9
BRANCH   5  24
HETATM   24  O   UNL     1      42.819 -16.326   6.560  1.00  0.00    -0.385 OA
HETATM   25  H   UNL     1      42.951 -17.291   6.589  1.00  0.00     0.211 HD
ENDBRANCH   5  24
BRANCH   5  26
HETATM   26  C   UNL     1      42.848 -17.168   4.335  1.00  0.00    -0.024 A 
HETATM   27  C   UNL     1      43.731 -18.137   4.860  1.00  0.00     0.012 A 
HETATM   28  C   UNL     1      44.180 -19.213   4.091  1.00  0.00     0.024 A 
HETATM   29  C   UNL     1      43.743 -19.348   2.779  1.00  0.00     0.034 A 
HETATM   30 CL   UNL     1      44.305 -20.659   1.819  1.00  0.00    -0.084 Cl
HETATM   31  C   UNL     1      42.844 -18.430   2.245  1.00  0.00     0.024 A 
HETATM   32  C   UNL     1      42.390 -17.356   3.022  1.00  0.00     0.012 A 
ENDBRANCH   5  26
TORSDOF 5
ENDMDL
MODEL 8
REMARK VINA RESULT:      -8.4     11.488     13.961
REMARK  5 active torsions:
REMARK  status: ('A' for Active; 'I' for Inactive)
REMARK       I    between atoms: C_2  and  N_3 
REMARK    1  A    between atoms: N_3  and  C_4 
REMARK    2  A    between atoms: N_7  and  C_8 
REMARK    3  A    between atoms: C_8  and  C_9 
REMARK       I    between atoms: C_9  and  N_10 
REMARK    4  A    between atoms: C_13  and  O_14 
REMARK    5  A    between atoms: C_13  and  C_15 
ROOT
HETATM    1  C   UNL     1      39.672  -8.100  13.375  1.00  0.00     0.238 C 
HETATM    2  N   UNL     1      40.366  -7.429  14.392  1.00  0.00    -0.350 N 
HETATM    3  C   UNL     1      41.541  -7.997  15.049  1.00  0.00     0.129 C 
HETATM    4  C   UNL     1      42.351  -6.946  15.791  1.00  0.00     0.063 C 
HETATM    5  C   UNL     1      41.488  -6.229  16.842  1.00  0.00     0.088 C 
HETATM    6  C   UNL     1      40.336  -5.550  16.082  1.00  0.00     0.063 C 
HETATM    7  C   UNL     1      39.558  -6.487  15.163  1.00  0.00     0.129 C 
HETATM    8  O   UNL     1      38.651  -7.623  12.871  1.00  0.00    -0.272 OA
ENDROOT
BRANCH   1   9
HETATM    9  C   UNL     1      40.145  -9.479  12.940  1.00  0.00     0.231 C 
BRANCH   9  10
HETATM   10  N   UNL     1      40.572  -9.487  11.544  1.00  0.00    -0.347 N 
HETATM   11  C   UNL     1      41.871  -9.371  11.082  1.00  0.00     0.047 A 
HETATM   12  C   UNL     1      41.820  -9.435   9.681  1.00  0.00     0.019 A 
HETATM   13  C   UNL     1      43.085  -9.213  11.766  1.00  0.00     0.031 A 
HETATM   14  C   UNL     1      43.017  -9.322   8.923  1.00  0.00     0.047 A 
HETATM   15  C   UNL     1      40.446  -9.577   9.326  1.00  0.00     0.033 A 
HETATM   16  C   UNL     1      44.226  -9.187   9.616  1.00  0.00     0.030 A 
HETATM   17  C   UNL     1      44.255  -9.130  11.011  1.00  0.00     0.005 A 
HETATM   18  C   UNL     1      39.706  -9.581  10.482  1.00  0.00     0.092 A 
BRANCH  14  19
HETATM   19  N   UNL     1      42.910  -9.400   7.521  1.00  0.00    -0.327 N 
HETATM   20  C   UNL     1      43.067 -10.413   6.624  1.00  0.00     0.218 C 
HETATM   21  C   UNL     1      43.644 -11.736   7.033  1.00  0.00     0.117 C 
HETATM   22  O   UNL     1      42.770 -10.203   5.445  1.00  0.00    -0.274 OA
HETATM   23  H   UNL     1      42.688  -8.531   7.049  1.00  0.00     0.169 HD
ENDBRANCH  14  19
ENDBRANCH   9  10
ENDBRANCH   1   9
BRANCH   5  24
HETATM   24  O   UNL     1      42.284  -5.168  17.396  1.00  0.00    -0.385 OA
HETATM   25  H   UNL     1      42.623  -4.638  16.653  1.00  0.00     0.211 HD
ENDBRANCH   5  24
BRANCH   5  26
HETATM   26  C   UNL     1      41.127  -7.155  18.009  1.00  0.00    -0.024 A 
HETATM   27  C   UNL     1      42.162  -7.642  18.837  1.00  0.00     0.012 A 
HETATM   28  C   UNL     1      41.906  -8.532  19.883  1.00  0.00     0.024 A 
HETATM   29  C   UNL     1      40.603  -8.943  20.130  1.00  0.00     0.034 A 
HETATM   30 CL   UNL     1      40.280 -10.053  21.403  1.00  0.00    -0.084 Cl
HETATM   31  C   UNL     1      39.557  -8.452  19.355  1.00  0.00     0.024 A 
HETATM   32  C   UNL     1      39.817  -7.553  18.311  1.00  0.00     0.012 A 
ENDBRANCH   5  26
TORSDOF 5
ENDMDL
MODEL 9
REMARK VINA RESULT:      -8.4     15.371     16.825
REMARK  5 active torsions:
REMARK  status: ('A' for Active; 'I' for Inactive)
REMARK       I    between atoms: C_2  and  N_3 
REMARK    1  A    between atoms: N_3  and  C_4 
REMARK    2  A    between atoms: N_7  and  C_8 
REMARK    3  A    between atoms: C_8  and  C_9 
REMARK       I    between atoms: C_9  and  N_10 
REMARK    4  A    between atoms: C_13  and  O_14 
REMARK    5  A    between atoms: C_13  and  C_15 
ROOT
HETATM    1  C   UNL     1      45.548 -30.595   3.224  1.00  0.00     0.238 C 
HETATM    2  N   UNL     1      46.903 -30.837   3.487  1.00  0.00    -0.350 N 
HETATM    3  C   UNL     1      47.931 -29.811   3.325  1.00  0.00     0.129 C 
HETATM    4  C   UNL     1      49.218 -30.165   4.053  1.00  0.00     0.063 C 
HETATM    5  C   UNL     1      49.774 -31.511   3.564  1.00  0.00     0.088 C 
HETATM    6  C   UNL     1      48.702 -32.571   3.870  1.00  0.00     0.063 C 
HETATM    7  C   UNL     1      47.317 -32.230   3.330  1.00  0.00     0.129 C 
HETATM    8  O   UNL     1      44.704 -31.492   3.319  1.00  0.00    -0.272 OA
ENDROOT
BRANCH   1   9
HETATM    9  C   UNL     1      45.122 -29.217   2.737  1.00  0.00     0.231 C 
BRANCH   9  10
HETATM   10  N   UNL     1      44.898 -29.201   1.295  1.00  0.00    -0.347 N 
HETATM   11  C   UNL     1      45.794 -28.774   0.331  1.00  0.00     0.047 A 
HETATM   12  C   UNL     1      45.172 -28.940  -0.917  1.00  0.00     0.019 A 
HETATM   13  C   UNL     1      47.092 -28.254   0.439  1.00  0.00     0.031 A 
HETATM   14  C   UNL     1      45.854 -28.560  -2.105  1.00  0.00     0.047 A 
HETATM   15  C   UNL     1      43.871 -29.465  -0.659  1.00  0.00     0.033 A 
HETATM   16  C   UNL     1      47.157 -28.064  -1.986  1.00  0.00     0.030 A 
HETATM   17  C   UNL     1      47.760 -27.911  -0.737  1.00  0.00     0.005 A 
HETATM   18  C   UNL     1      43.724 -29.591   0.700  1.00  0.00     0.092 A 
BRANCH  14  19
HETATM   19  N   UNL     1      45.186 -28.755  -3.329  1.00  0.00    -0.327 N 
HETATM   20  C   UNL     1      45.122 -29.794  -4.207  1.00  0.00     0.218 C 
HETATM   21  C   UNL     1      46.032 -30.981  -4.081  1.00  0.00     0.117 C 
HETATM   22  O   UNL     1      44.329 -29.717  -5.150  1.00  0.00    -0.274 OA
HETATM   23  H   UNL     1      44.644 -27.967  -3.662  1.00  0.00     0.169 HD
ENDBRANCH  14  19
ENDBRANCH   9  10
ENDBRANCH   1   9
BRANCH   5  24
HETATM   24  O   UNL     1      50.904 -31.834   4.393  1.00  0.00    -0.385 OA
HETATM   25  H   UNL     1      51.703 -31.761   3.841  1.00  0.00     0.211 HD
ENDBRANCH   5  24
BRANCH   5  26
HETATM   26  C   UNL     1      50.302 -31.421   2.128  1.00  0.00    -0.024 A 
HETATM   27  C   UNL     1      50.991 -32.527   1.586  1.00  0.00     0.012 A 
HETATM   28  C   UNL     1      51.544 -32.489   0.303  1.00  0.00     0.024 A 
HETATM   29  C   UNL     1      51.406 -31.343  -0.470  1.00  0.00     0.034 A 
HETATM   30 CL   UNL     1      52.099 -31.279  -2.042  1.00  0.00    -0.084 Cl
HETATM   31  C   UNL     1      50.699 -30.251   0.023  1.00  0.00     0.024 A 
HETATM   32  C   UNL     1      50.140 -30.295   1.308  1.00  0.00     0.012 A 
ENDBRANCH   5  26
TORSDOF 5
ENDMDL
MODEL 10
REMARK VINA RESULT:      -8.4     15.191     16.740
REMARK  5 active torsions:
REMARK  status: ('A' for Active; 'I' for Inactive)
REMARK       I    between atoms: C_2  and  N_3 
REMARK    1  A    between atoms: N_3  and  C_4 
REMARK    2  A    between atoms: N_7  and  C_8 
REMARK    3  A    between atoms: C_8  and  C_9 
REMARK       I    between atoms: C_9  and  N_10 
REMARK    4  A    between atoms: C_13  and  O_14 
REMARK    5  A    between atoms: C_13  and  C_15 
ROOT
HETATM    1  C   UNL     1      44.272 -30.640   1.812  1.00  0.00     0.238 C 
HETATM    2  N   UNL     1      45.524 -30.086   2.114  1.00  0.00    -0.350 N 
HETATM    3  C   UNL     1      46.093 -28.972   1.357  1.00  0.00     0.129 C 
HETATM    4  C   UNL     1      47.222 -28.284   2.107  1.00  0.00     0.063 C 
HETATM    5  C   UNL     1      48.342 -29.280   2.449  1.00  0.00     0.088 C 
HETATM    6  C   UNL     1      47.714 -30.362   3.344  1.00  0.00     0.063 C 
HETATM    7  C   UNL     1      46.459 -31.004   2.760  1.00  0.00     0.129 C 
HETATM    8  O   UNL     1      43.834 -31.614   2.433  1.00  0.00    -0.272 OA
ENDROOT
BRANCH   1   9
HETATM    9  C   UNL     1      43.473 -30.078   0.645  1.00  0.00     0.231 C 
BRANCH   9  10
HETATM   10  N   UNL     1      43.975 -30.566  -0.636  1.00  0.00    -0.347 N 
HETATM   11  C   UNL     1      44.468 -29.793  -1.672  1.00  0.00     0.047 A 
HETATM   12  C   UNL     1      44.843 -30.670  -2.702  1.00  0.00     0.019 A 
HETATM   13  C   UNL     1      44.616 -28.404  -1.801  1.00  0.00     0.031 A 
HETATM   14  C   UNL     1      45.371 -30.152  -3.916  1.00  0.00     0.047 A 
HETATM   15  C   UNL     1      44.541 -31.988  -2.248  1.00  0.00     0.033 A 
HETATM   16  C   UNL     1      45.535 -28.767  -4.025  1.00  0.00     0.030 A 
HETATM   17  C   UNL     1      45.160 -27.911  -2.987  1.00  0.00     0.005 A 
HETATM   18  C   UNL     1      43.991 -31.891  -0.995  1.00  0.00     0.092 A 
BRANCH  14  19
HETATM   19  N   UNL     1      45.738 -31.077  -4.913  1.00  0.00    -0.327 N 
HETATM   20  C   UNL     1      45.196 -31.425  -6.113  1.00  0.00     0.218 C 
HETATM   21  C   UNL     1      43.833 -30.949  -6.523  1.00  0.00     0.117 C 
HETATM   22  O   UNL     1      45.832 -32.190  -6.843  1.00  0.00    -0.274 OA
HETATM   23  H   UNL     1      46.566 -31.625  -4.718  1.00  0.00     0.169 HD
ENDBRANCH  14  19
ENDBRANCH   9  10
ENDBRANCH   1   9
BRANCH   5  24
HETATM   24  O   UNL     1      49.296 -28.585   3.269  1.00  0.00    -0.385 OA
HETATM   25  H   UNL     1      50.091 -29.144   3.331  1.00  0.00     0.211 HD
ENDBRANCH   5  24
BRANCH   5  26
HETATM   26  C   UNL     1      49.098 -29.738   1.197  1.00  0.00    -0.024 A 
HETATM   27  C   UNL     1      50.258 -30.528   1.354  1.00  0.00     0.012 A 
HETATM   28  C   UNL     1      51.023 -30.932   0.256  1.00  0.00     0.024 A 
HETATM   29  C   UNL     1      50.633 -30.562  -1.025  1.00  0.00     0.034 A 
HETATM   30 CL   UNL     1      51.579 -31.038  -2.379  1.00  0.00    -0.084 Cl
HETATM   31  C   UNL     1      49.475 -29.816  -1.213  1.00  0.00     0.024 A 
HETATM   32  C   UNL     1      48.706 -29.418  -0.111  1.00  0.00     0.012 A 
ENDBRANCH   5  26
TORSDOF 5
ENDMDL
