MODEL 1
REMARK VINA RESULT:      -8.6      0.000      0.000
REMARK  2 active torsions:
REMARK  status: ('A' for Active; 'I' for Inactive)
REMARK    1  A    between atoms: C_5  and  C_6 
REMARK       I    between atoms: C_6  and  N_7 
REMARK    2  A    between atoms: N_7  and  N_8 
ROOT
HETATM    1  N   UNL     1      42.061 -15.712   1.734  1.00  0.00    -0.282 N 
HETATM    2  C   UNL     1      42.209 -15.689   3.055  1.00  0.00     0.127 C 
HETATM    3  C   UNL     1      42.885 -16.828   3.729  1.00  0.00     0.015 A 
HETATM    4  C   UNL     1      42.688 -17.014   5.113  1.00  0.00    -0.042 A 
HETATM    5  C   UNL     1      43.276 -18.096   5.780  1.00  0.00     0.008 A 
HETATM    6  C   UNL     1      44.097 -18.980   5.085  1.00  0.00     0.001 A 
HETATM    7  C   UNL     1      44.334 -18.786   3.728  1.00  0.00     0.001 A 
HETATM    8  C   UNL     1      43.736 -17.719   3.054  1.00  0.00     0.016 A 
HETATM    9  C   UNL     1      41.805 -16.048   5.863  1.00  0.00     0.069 C 
HETATM   10  C   UNL     1      41.905 -14.626   5.277  1.00  0.00     0.028 C 
HETATM   11  C   UNL     1      40.759 -13.764   5.819  1.00  0.00     0.038 C 
HETATM   12  C   UNL     1      43.246 -13.953   5.593  1.00  0.00     0.038 C 
HETATM   13  N   UNL     1      41.760 -14.677   3.796  1.00  0.00    -0.366 N 
HETATM   14  H   UNL     1      41.287 -13.918   3.338  1.00  0.00     0.162 HD
HETATM   15  H   UNL     1      42.351 -16.570   1.247  1.00  0.00     0.188 HD
ENDROOT
BRANCH   1  16
HETATM   16  N   UNL     1      41.559 -14.768   0.941  1.00  0.00    -0.264 N 
HETATM   17  C   UNL     1      40.270 -15.009   0.485  1.00  0.00     0.270 C 
HETATM   18  O   UNL     1      39.659 -16.010   0.853  1.00  0.00    -0.266 OA
HETATM   19  H   UNL     1      42.067 -13.924   0.707  1.00  0.00     0.190 HD
BRANCH  17  20
HETATM   20  C   UNL     1      39.663 -14.006  -0.426  1.00  0.00     0.033 A 
HETATM   21  C   UNL     1      39.164 -14.345  -1.690  1.00  0.00     0.017 A 
HETATM   22  C   UNL     1      38.596 -13.358  -2.502  1.00  0.00     0.007 A 
HETATM   23  C   UNL     1      38.522 -12.030  -2.064  1.00  0.00    -0.062 A 
HETATM   24  C   UNL     1      37.873 -10.977  -2.917  1.00  0.00     0.048 C 
HETATM   25  C   UNL     1      38.997 -11.705  -0.789  1.00  0.00     0.007 A 
HETATM   26  C   UNL     1      39.564 -12.686   0.027  1.00  0.00     0.017 A 
ENDBRANCH  17  20
ENDBRANCH   1  16
TORSDOF 2
ENDMDL
MODEL 2
REMARK VINA RESULT:      -8.4      4.143      7.314
REMARK  2 active torsions:
REMARK  status: ('A' for Active; 'I' for Inactive)
REMARK    1  A    between atoms: C_5  and  C_6 
REMARK       I    between atoms: C_6  and  N_7 
REMARK    2  A    between atoms: N_7  and  N_8 
ROOT
HETATM    1  N   UNL     1      43.251 -13.734   5.772  1.00  0.00    -0.282 N 
HETATM    2  C   UNL     1      42.659 -12.544   5.755  1.00  0.00     0.127 C 
HETATM    3  C   UNL     1      43.047 -11.526   6.767  1.00  0.00     0.015 A 
HETATM    4  C   UNL     1      42.171 -10.450   7.019  1.00  0.00    -0.042 A 
HETATM    5  C   UNL     1      42.481  -9.490   7.992  1.00  0.00     0.008 A 
HETATM    6  C   UNL     1      43.681  -9.569   8.692  1.00  0.00     0.001 A 
HETATM    7  C   UNL     1      44.574 -10.603   8.425  1.00  0.00     0.001 A 
HETATM    8  C   UNL     1      44.263 -11.573   7.469  1.00  0.00     0.016 A 
HETATM    9  C   UNL     1      40.877 -10.364   6.252  1.00  0.00     0.069 C 
HETATM   10  C   UNL     1      41.034 -10.916   4.821  1.00  0.00     0.028 C 
HETATM   11  C   UNL     1      39.652 -11.137   4.198  1.00  0.00     0.038 C 
HETATM   12  C   UNL     1      41.860  -9.989   3.921  1.00  0.00     0.038 C 
HETATM   13  N   UNL     1      41.719 -12.237   4.861  1.00  0.00    -0.366 N 
HETATM   14  H   UNL     1      41.447 -12.935   4.191  1.00  0.00     0.162 HD
HETATM   15  H   UNL     1      43.896 -13.923   6.550  1.00  0.00     0.188 HD
ENDROOT
BRANCH   1  16
HETATM   16  N   UNL     1      43.104 -14.744   4.917  1.00  0.00    -0.264 N 
HETATM   17  C   UNL     1      43.760 -15.914   5.273  1.00  0.00     0.270 C 
HETATM   18  O   UNL     1      44.380 -15.981   6.333  1.00  0.00    -0.266 OA
HETATM   19  H   UNL     1      42.535 -14.675   4.083  1.00  0.00     0.190 HD
BRANCH  17  20
HETATM   20  C   UNL     1      43.658 -17.070   4.347  1.00  0.00     0.033 A 
HETATM   21  C   UNL     1      43.064 -16.971   3.084  1.00  0.00     0.017 A 
HETATM   22  C   UNL     1      43.003 -18.093   2.252  1.00  0.00     0.007 A 
HETATM   23  C   UNL     1      43.531 -19.321   2.671  1.00  0.00    -0.062 A 
HETATM   24  C   UNL     1      43.506 -20.517   1.762  1.00  0.00     0.048 C 
HETATM   25  C   UNL     1      44.150 -19.405   3.924  1.00  0.00     0.007 A 
HETATM   26  C   UNL     1      44.213 -18.288   4.758  1.00  0.00     0.017 A 
ENDBRANCH  17  20
ENDBRANCH   1  16
TORSDOF 2
ENDMDL
MODEL 3
REMARK VINA RESULT:      -8.4      4.056      7.420
REMARK  2 active torsions:
REMARK  status: ('A' for Active; 'I' for Inactive)
REMARK    1  A    between atoms: C_5  and  C_6 
REMARK       I    between atoms: C_6  and  N_7 
REMARK    2  A    between atoms: N_7  and  N_8 
ROOT
HETATM    1  N   UNL     1      43.363 -13.876   6.106  1.00  0.00    -0.282 N 
HETATM    2  C   UNL     1      42.930 -14.311   4.927  1.00  0.00     0.127 C 
HETATM    3  C   UNL     1      43.221 -15.711   4.519  1.00  0.00     0.015 A 
HETATM    4  C   UNL     1      43.139 -16.053   3.153  1.00  0.00    -0.042 A 
HETATM    5  C   UNL     1      43.442 -17.350   2.722  1.00  0.00     0.008 A 
HETATM    6  C   UNL     1      43.790 -18.329   3.649  1.00  0.00     0.001 A 
HETATM    7  C   UNL     1      43.837 -18.017   5.004  1.00  0.00     0.001 A 
HETATM    8  C   UNL     1      43.553 -16.721   5.438  1.00  0.00     0.016 A 
HETATM    9  C   UNL     1      42.752 -14.991   2.155  1.00  0.00     0.069 C 
HETATM   10  C   UNL     1      41.757 -13.984   2.764  1.00  0.00     0.028 C 
HETATM   11  C   UNL     1      41.658 -12.748   1.864  1.00  0.00     0.038 C 
HETATM   12  C   UNL     1      40.361 -14.585   2.964  1.00  0.00     0.038 C 
HETATM   13  N   UNL     1      42.249 -13.527   4.093  1.00  0.00    -0.366 N 
HETATM   14  H   UNL     1      42.070 -12.575   4.365  1.00  0.00     0.162 HD
HETATM   15  H   UNL     1      43.960 -14.513   6.648  1.00  0.00     0.188 HD
ENDROOT
BRANCH   1  16
HETATM   16  N   UNL     1      43.144 -12.696   6.684  1.00  0.00    -0.264 N 
HETATM   17  C   UNL     1      44.274 -11.908   6.853  1.00  0.00     0.270 C 
HETATM   18  O   UNL     1      45.367 -12.292   6.441  1.00  0.00    -0.266 OA
HETATM   19  H   UNL     1      42.221 -12.384   6.955  1.00  0.00     0.190 HD
BRANCH  17  20
HETATM   20  C   UNL     1      44.102 -10.591   7.517  1.00  0.00     0.033 A 
HETATM   21  C   UNL     1      45.174  -9.885   8.076  1.00  0.00     0.017 A 
HETATM   22  C   UNL     1      44.952  -8.645   8.682  1.00  0.00     0.007 A 
HETATM   23  C   UNL     1      43.663  -8.099   8.738  1.00  0.00    -0.062 A 
HETATM   24  C   UNL     1      43.429  -6.747   9.349  1.00  0.00     0.048 C 
HETATM   25  C   UNL     1      42.601  -8.797   8.151  1.00  0.00     0.007 A 
HETATM   26  C   UNL     1      42.818 -10.035   7.544  1.00  0.00     0.017 A 
ENDBRANCH  17  20
ENDBRANCH   1  16
TORSDOF 2
ENDMDL
MODEL 4
REMARK VINA RESULT:      -8.3      2.068      7.595
REMARK  2 active torsions:
REMARK  status: ('A' for Active; 'I' for Inactive)
REMARK    1  A    between atoms: C_5  and  C_6 
REMARK       I    between atoms: C_6  and  N_7 
REMARK    2  A    between atoms: N_7  and  N_8 
ROOT
HETATM    1  N   UNL     1      41.467 -14.949   0.671  1.00  0.00    -0.282 N 
HETATM    2  C   UNL     1      41.034 -13.722   0.940  1.00  0.00     0.127 C 
HETATM    3  C   UNL     1      40.754 -12.789  -0.184  1.00  0.00     0.015 A 
HETATM    4  C   UNL     1      40.698 -11.404   0.079  1.00  0.00    -0.042 A 
HETATM    5  C   UNL     1      40.475 -10.489  -0.958  1.00  0.00     0.008 A 
HETATM    6  C   UNL     1      40.265 -10.944  -2.256  1.00  0.00     0.001 A 
HETATM    7  C   UNL     1      40.278 -12.309  -2.524  1.00  0.00     0.001 A 
HETATM    8  C   UNL     1      40.518 -13.226  -1.498  1.00  0.00     0.016 A 
HETATM    9  C   UNL     1      40.917 -10.918   1.489  1.00  0.00     0.069 C 
HETATM   10  C   UNL     1      40.375 -11.926   2.521  1.00  0.00     0.028 C 
HETATM   11  C   UNL     1      40.914 -11.579   3.913  1.00  0.00     0.038 C 
HETATM   12  C   UNL     1      38.842 -11.960   2.560  1.00  0.00     0.038 C 
HETATM   13  N   UNL     1      40.852 -13.296   2.189  1.00  0.00    -0.366 N 
HETATM   14  H   UNL     1      41.060 -13.924   2.946  1.00  0.00     0.162 HD
HETATM   15  H   UNL     1      41.671 -15.168  -0.313  1.00  0.00     0.188 HD
ENDROOT
BRANCH   1  16
HETATM   16  N   UNL     1      41.699 -15.949   1.520  1.00  0.00    -0.264 N 
HETATM   17  C   UNL     1      43.036 -16.156   1.830  1.00  0.00     0.270 C 
HETATM   18  O   UNL     1      43.903 -15.415   1.370  1.00  0.00    -0.266 OA
HETATM   19  H   UNL     1      40.957 -16.501   1.929  1.00  0.00     0.190 HD
BRANCH  17  20
HETATM   20  C   UNL     1      43.365 -17.274   2.750  1.00  0.00     0.033 A 
HETATM   21  C   UNL     1      43.676 -17.070   4.100  1.00  0.00     0.017 A 
HETATM   22  C   UNL     1      43.970 -18.163   4.920  1.00  0.00     0.007 A 
HETATM   23  C   UNL     1      43.958 -19.465   4.405  1.00  0.00    -0.062 A 
HETATM   24  C   UNL     1      44.230 -20.645   5.294  1.00  0.00     0.048 C 
HETATM   25  C   UNL     1      43.618 -19.664   3.062  1.00  0.00     0.007 A 
HETATM   26  C   UNL     1      43.323 -18.576   2.238  1.00  0.00     0.017 A 
ENDBRANCH  17  20
ENDBRANCH   1  16
TORSDOF 2
ENDMDL
MODEL 5
REMARK VINA RESULT:      -8.1      4.254      8.084
REMARK  2 active torsions:
REMARK  status: ('A' for Active; 'I' for Inactive)
REMARK    1  A    between atoms: C_5  and  C_6 
REMARK       I    between atoms: C_6  and  N_7 
REMARK    2  A    between atoms: N_7  and  N_8 
ROOT
HETATM    1  N   UNL     1      42.654 -12.982   5.662  1.00  0.00    -0.282 N 
HETATM    2  C   UNL     1      43.023 -14.244   5.468  1.00  0.00     0.127 C 
HETATM    3  C   UNL     1      43.064 -14.782   4.082  1.00  0.00     0.015 A 
HETATM    4  C   UNL     1      43.048 -16.180   3.895  1.00  0.00    -0.042 A 
HETATM    5  C   UNL     1      43.046 -16.728   2.606  1.00  0.00     0.008 A 
HETATM    6  C   UNL     1      43.101 -15.893   1.493  1.00  0.00     0.001 A 
HETATM    7  C   UNL     1      43.158 -14.513   1.663  1.00  0.00     0.001 A 
HETATM    8  C   UNL     1      43.142 -13.960   2.945  1.00  0.00     0.016 A 
HETATM    9  C   UNL     1      42.998 -17.080   5.103  1.00  0.00     0.069 C 
HETATM   10  C   UNL     1      43.761 -16.465   6.293  1.00  0.00     0.028 C 
HETATM   11  C   UNL     1      43.402 -17.217   7.580  1.00  0.00     0.038 C 
HETATM   12  C   UNL     1      45.281 -16.490   6.092  1.00  0.00     0.038 C 
HETATM   13  N   UNL     1      43.350 -15.046   6.479  1.00  0.00    -0.366 N 
HETATM   14  H   UNL     1      43.303 -14.683   7.416  1.00  0.00     0.162 HD
HETATM   15  H   UNL     1      42.328 -12.458   4.839  1.00  0.00     0.188 HD
ENDROOT
BRANCH   1  16
HETATM   16  N   UNL     1      42.626 -12.294   6.802  1.00  0.00    -0.264 N 
HETATM   17  C   UNL     1      43.681 -11.410   6.979  1.00  0.00     0.270 C 
HETATM   18  O   UNL     1      44.530 -11.271   6.100  1.00  0.00    -0.266 OA
HETATM   19  H   UNL     1      41.878 -12.387   7.477  1.00  0.00     0.190 HD
BRANCH  17  20
HETATM   20  C   UNL     1      43.723 -10.632   8.243  1.00  0.00     0.033 A 
HETATM   21  C   UNL     1      44.872 -10.552   9.039  1.00  0.00     0.017 A 
HETATM   22  C   UNL     1      44.854  -9.797  10.216  1.00  0.00     0.007 A 
HETATM   23  C   UNL     1      43.693  -9.119  10.610  1.00  0.00    -0.062 A 
HETATM   24  C   UNL     1      43.684  -8.272  11.851  1.00  0.00     0.048 C 
HETATM   25  C   UNL     1      42.558  -9.180   9.795  1.00  0.00     0.007 A 
HETATM   26  C   UNL     1      42.571  -9.931   8.618  1.00  0.00     0.017 A 
ENDBRANCH  17  20
ENDBRANCH   1  16
TORSDOF 2
ENDMDL
MODEL 6
REMARK VINA RESULT:      -8.1      3.340      7.783
REMARK  2 active torsions:
REMARK  status: ('A' for Active; 'I' for Inactive)
REMARK    1  A    between atoms: C_5  and  C_6 
REMARK       I    between atoms: C_6  and  N_7 
REMARK    2  A    between atoms: N_7  and  N_8 
ROOT
HETATM    1  N   UNL     1      41.526 -11.979   3.622  1.00  0.00    -0.282 N 
HETATM    2  C   UNL     1      41.295 -13.209   3.174  1.00  0.00     0.127 C 
HETATM    3  C   UNL     1      40.928 -13.404   1.746  1.00  0.00     0.015 A 
HETATM    4  C   UNL     1      40.295 -14.606   1.365  1.00  0.00    -0.042 A 
HETATM    5  C   UNL     1      39.899 -14.814   0.038  1.00  0.00     0.008 A 
HETATM    6  C   UNL     1      40.164 -13.848  -0.929  1.00  0.00     0.001 A 
HETATM    7  C   UNL     1      40.824 -12.675  -0.575  1.00  0.00     0.001 A 
HETATM    8  C   UNL     1      41.205 -12.454   0.750  1.00  0.00     0.016 A 
HETATM    9  C   UNL     1      40.019 -15.653   2.414  1.00  0.00     0.069 C 
HETATM   10  C   UNL     1      41.114 -15.663   3.498  1.00  0.00     0.028 C 
HETATM   11  C   UNL     1      40.634 -16.473   4.708  1.00  0.00     0.038 C 
HETATM   12  C   UNL     1      42.440 -16.240   2.989  1.00  0.00     0.038 C 
HETATM   13  N   UNL     1      41.374 -14.275   3.970  1.00  0.00    -0.366 N 
HETATM   14  H   UNL     1      41.604 -14.136   4.938  1.00  0.00     0.162 HD
HETATM   15  H   UNL     1      41.354 -11.204   2.968  1.00  0.00     0.188 HD
ENDROOT
BRANCH   1  16
HETATM   16  N   UNL     1      41.937 -11.602   4.831  1.00  0.00    -0.264 N 
HETATM   17  C   UNL     1      43.285 -11.280   4.918  1.00  0.00     0.270 C 
HETATM   18  O   UNL     1      43.996 -11.309   3.916  1.00  0.00    -0.266 OA
HETATM   19  H   UNL     1      41.311 -11.529   5.622  1.00  0.00     0.190 HD
BRANCH  17  20
HETATM   20  C   UNL     1      43.812 -10.878   6.247  1.00  0.00     0.033 A 
HETATM   21  C   UNL     1      43.014 -10.257   7.215  1.00  0.00     0.017 A 
HETATM   22  C   UNL     1      43.564  -9.907   8.452  1.00  0.00     0.007 A 
HETATM   23  C   UNL     1      44.911 -10.170   8.733  1.00  0.00    -0.062 A 
HETATM   24  C   UNL     1      45.493  -9.835  10.077  1.00  0.00     0.048 C 
HETATM   25  C   UNL     1      45.695 -10.816   7.771  1.00  0.00     0.007 A 
HETATM   26  C   UNL     1      45.151 -11.169   6.535  1.00  0.00     0.017 A 
ENDBRANCH  17  20
ENDBRANCH   1  16
TORSDOF 2
ENDMDL
MODEL 7
REMARK VINA RESULT:      -8.1      1.949      8.214
REMARK  2 active torsions:
REMARK  status: ('A' for Active; 'I' for Inactive)
REMARK    1  A    between atoms: C_5  and  C_6 
REMARK       I    between atoms: C_6  and  N_7 
REMARK    2  A    between atoms: N_7  and  N_8 
ROOT
HETATM    1  N   UNL     1      39.382 -13.769   1.013  1.00  0.00    -0.282 N 
HETATM    2  C   UNL     1      39.434 -12.860   0.045  1.00  0.00     0.127 C 
HETATM    3  C   UNL     1      38.377 -11.816  -0.029  1.00  0.00     0.015 A 
HETATM    4  C   UNL     1      38.188 -11.125  -1.243  1.00  0.00    -0.042 A 
HETATM    5  C   UNL     1      37.178 -10.162  -1.366  1.00  0.00     0.008 A 
HETATM    6  C   UNL     1      36.376  -9.849  -0.273  1.00  0.00     0.001 A 
HETATM    7  C   UNL     1      36.577 -10.494   0.944  1.00  0.00     0.001 A 
HETATM    8  C   UNL     1      37.570 -11.469   1.067  1.00  0.00     0.016 A 
HETATM    9  C   UNL     1      39.066 -11.460  -2.421  1.00  0.00     0.069 C 
HETATM   10  C   UNL     1      40.485 -11.859  -1.969  1.00  0.00     0.028 C 
HETATM   11  C   UNL     1      41.231 -12.519  -3.133  1.00  0.00     0.038 C 
HETATM   12  C   UNL     1      41.294 -10.663  -1.454  1.00  0.00     0.038 C 
HETATM   13  N   UNL     1      40.403 -12.859  -0.870  1.00  0.00    -0.366 N 
HETATM   14  H   UNL     1      41.105 -13.578  -0.827  1.00  0.00     0.162 HD
HETATM   15  H   UNL     1      38.553 -13.756   1.621  1.00  0.00     0.188 HD
ENDROOT
BRANCH   1  16
HETATM   16  N   UNL     1      40.261 -14.728   1.296  1.00  0.00    -0.264 N 
HETATM   17  C   UNL     1      40.607 -14.829   2.637  1.00  0.00     0.270 C 
HETATM   18  O   UNL     1      40.078 -14.097   3.471  1.00  0.00    -0.266 OA
HETATM   19  H   UNL     1      40.631 -15.355   0.593  1.00  0.00     0.190 HD
BRANCH  17  20
HETATM   20  C   UNL     1      41.604 -15.862   3.015  1.00  0.00     0.033 A 
HETATM   21  C   UNL     1      42.256 -16.659   2.067  1.00  0.00     0.017 A 
HETATM   22  C   UNL     1      43.193 -17.611   2.483  1.00  0.00     0.007 A 
HETATM   23  C   UNL     1      43.485 -17.777   3.842  1.00  0.00    -0.062 A 
HETATM   24  C   UNL     1      44.522 -18.769   4.288  1.00  0.00     0.048 C 
HETATM   25  C   UNL     1      42.851 -16.957   4.781  1.00  0.00     0.007 A 
HETATM   26  C   UNL     1      41.916 -16.004   4.372  1.00  0.00     0.017 A 
ENDBRANCH  17  20
ENDBRANCH   1  16
TORSDOF 2
ENDMDL
MODEL 8
REMARK VINA RESULT:      -8.0      1.601      7.753
REMARK  2 active torsions:
REMARK  status: ('A' for Active; 'I' for Inactive)
REMARK    1  A    between atoms: C_5  and  C_6 
REMARK       I    between atoms: C_6  and  N_7 
REMARK    2  A    between atoms: N_7  and  N_8 
ROOT
HETATM    1  N   UNL     1      40.673 -14.223  -0.123  1.00  0.00    -0.282 N 
HETATM    2  C   UNL     1      40.147 -13.019   0.071  1.00  0.00     0.127 C 
HETATM    3  C   UNL     1      39.122 -12.513  -0.881  1.00  0.00     0.015 A 
HETATM    4  C   UNL     1      38.867 -11.127  -0.933  1.00  0.00    -0.042 A 
HETATM    5  C   UNL     1      37.938 -10.606  -1.842  1.00  0.00     0.008 A 
HETATM    6  C   UNL     1      37.225 -11.460  -2.678  1.00  0.00     0.001 A 
HETATM    7  C   UNL     1      37.437 -12.834  -2.610  1.00  0.00     0.001 A 
HETATM    8  C   UNL     1      38.375 -13.358  -1.719  1.00  0.00     0.016 A 
HETATM    9  C   UNL     1      39.634 -10.207  -0.019  1.00  0.00     0.069 C 
HETATM   10  C   UNL     1      39.949 -10.887   1.328  1.00  0.00     0.028 C 
HETATM   11  C   UNL     1      41.009 -10.076   2.081  1.00  0.00     0.038 C 
HETATM   12  C   UNL     1      38.705 -11.049   2.209  1.00  0.00     0.038 C 
HETATM   13  N   UNL     1      40.516 -12.243   1.089  1.00  0.00    -0.366 N 
HETATM   14  H   UNL     1      41.223 -12.582   1.719  1.00  0.00     0.162 HD
HETATM   15  H   UNL     1      40.404 -14.718  -0.983  1.00  0.00     0.188 HD
ENDROOT
BRANCH   1  16
HETATM   16  N   UNL     1      41.537 -14.883   0.647  1.00  0.00    -0.264 N 
HETATM   17  C   UNL     1      40.960 -15.746   1.569  1.00  0.00     0.270 C 
HETATM   18  O   UNL     1      39.740 -15.894   1.602  1.00  0.00    -0.266 OA
HETATM   19  H   UNL     1      42.539 -14.784   0.551  1.00  0.00     0.190 HD
BRANCH  17  20
HETATM   20  C   UNL     1      41.868 -16.491   2.476  1.00  0.00     0.033 A 
HETATM   21  C   UNL     1      41.867 -16.300   3.863  1.00  0.00     0.017 A 
HETATM   22  C   UNL     1      42.741 -17.037   4.669  1.00  0.00     0.007 A 
HETATM   23  C   UNL     1      43.622 -17.966   4.101  1.00  0.00    -0.062 A 
HETATM   24  C   UNL     1      44.531 -18.790   4.968  1.00  0.00     0.048 C 
HETATM   25  C   UNL     1      43.597 -18.172   2.717  1.00  0.00     0.007 A 
HETATM   26  C   UNL     1      42.726 -17.440   1.908  1.00  0.00     0.017 A 
ENDBRANCH  17  20
ENDBRANCH   1  16
TORSDOF 2
ENDMDL
MODEL 9
REMARK VINA RESULT:      -7.7      1.539      7.640
REMARK  2 active torsions:
REMARK  status: ('A' for Active; 'I' for Inactive)
REMARK    1  A    between atoms: C_5  and  C_6 
REMARK       I    between atoms: C_6  and  N_7 
REMARK    2  A    between atoms: N_7  and  N_8 
ROOT
HETATM    1  N   UNL     1      41.188 -14.954   0.554  1.00  0.00    -0.282 N 
HETATM    2  C   UNL     1      40.508 -13.857   0.240  1.00  0.00     0.127 C 
HETATM    3  C   UNL     1      39.705 -13.835  -1.011  1.00  0.00     0.015 A 
HETATM    4  C   UNL     1      39.328 -12.590  -1.556  1.00  0.00    -0.042 A 
HETATM    5  C   UNL     1      38.604 -12.524  -2.753  1.00  0.00     0.008 A 
HETATM    6  C   UNL     1      38.213 -13.694  -3.397  1.00  0.00     0.001 A 
HETATM    7  C   UNL     1      38.543 -14.931  -2.851  1.00  0.00     0.001 A 
HETATM    8  C   UNL     1      39.281 -15.003  -1.667  1.00  0.00     0.016 A 
HETATM    9  C   UNL     1      39.745 -11.325  -0.849  1.00  0.00     0.069 C 
HETATM   10  C   UNL     1      39.785 -11.524   0.679  1.00  0.00     0.028 C 
HETATM   11  C   UNL     1      40.534 -10.357   1.331  1.00  0.00     0.038 C 
HETATM   12  C   UNL     1      38.385 -11.641   1.293  1.00  0.00     0.038 C 
HETATM   13  N   UNL     1      40.531 -12.769   1.009  1.00  0.00    -0.366 N 
HETATM   14  H   UNL     1      41.090 -12.783   1.844  1.00  0.00     0.162 HD
HETATM   15  H   UNL     1      41.194 -15.715  -0.137  1.00  0.00     0.188 HD
ENDROOT
BRANCH   1  16
HETATM   16  N   UNL     1      41.898 -15.202   1.654  1.00  0.00    -0.264 N 
HETATM   17  C   UNL     1      41.198 -15.833   2.673  1.00  0.00     0.270 C 
HETATM   18  O   UNL     1      40.026 -16.164   2.509  1.00  0.00    -0.266 OA
HETATM   19  H   UNL     1      42.880 -14.973   1.733  1.00  0.00     0.190 HD
BRANCH  17  20
HETATM   20  C   UNL     1      41.926 -16.113   3.937  1.00  0.00     0.033 A 
HETATM   21  C   UNL     1      43.292 -16.416   3.966  1.00  0.00     0.017 A 
HETATM   22  C   UNL     1      43.926 -16.664   5.188  1.00  0.00     0.007 A 
HETATM   23  C   UNL     1      43.205 -16.613   6.388  1.00  0.00    -0.062 A 
HETATM   24  C   UNL     1      43.892 -16.836   7.705  1.00  0.00     0.048 C 
HETATM   25  C   UNL     1      41.846 -16.281   6.353  1.00  0.00     0.007 A 
HETATM   26  C   UNL     1      41.209 -16.033   5.136  1.00  0.00     0.017 A 
ENDBRANCH  17  20
ENDBRANCH   1  16
TORSDOF 2
ENDMDL
MODEL 10
REMARK VINA RESULT:      -7.7      5.280      8.486
REMARK  2 active torsions:
REMARK  status: ('A' for Active; 'I' for Inactive)
REMARK    1  A    between atoms: C_5  and  C_6 
REMARK       I    between atoms: C_6  and  N_7 
REMARK    2  A    between atoms: N_7  and  N_8 
ROOT
HETATM    1  N   UNL     1      42.124 -10.859   7.213  1.00  0.00    -0.282 N 
HETATM    2  C   UNL     1      42.958 -10.084   7.899  1.00  0.00     0.127 C 
HETATM    3  C   UNL     1      42.411  -8.938   8.673  1.00  0.00     0.015 A 
HETATM    4  C   UNL     1      43.283  -7.896   9.052  1.00  0.00    -0.042 A 
HETATM    5  C   UNL     1      42.801  -6.780   9.748  1.00  0.00     0.008 A 
HETATM    6  C   UNL     1      41.459  -6.708  10.108  1.00  0.00     0.001 A 
HETATM    7  C   UNL     1      40.595  -7.747   9.776  1.00  0.00     0.001 A 
HETATM    8  C   UNL     1      41.065  -8.854   9.067  1.00  0.00     0.016 A 
HETATM    9  C   UNL     1      44.738  -7.982   8.668  1.00  0.00     0.069 C 
HETATM   10  C   UNL     1      45.231  -9.442   8.661  1.00  0.00     0.028 C 
HETATM   11  C   UNL     1      46.582  -9.528   7.942  1.00  0.00     0.038 C 
HETATM   12  C   UNL     1      45.365 -10.023  10.074  1.00  0.00     0.038 C 
HETATM   13  N   UNL     1      44.273 -10.297   7.908  1.00  0.00    -0.366 N 
HETATM   14  H   UNL     1      44.639 -11.063   7.369  1.00  0.00     0.162 HD
HETATM   15  H   UNL     1      41.137 -10.572   7.182  1.00  0.00     0.188 HD
ENDROOT
BRANCH   1  16
HETATM   16  N   UNL     1      42.399 -11.967   6.527  1.00  0.00    -0.264 N 
HETATM   17  C   UNL     1      42.311 -11.840   5.148  1.00  0.00     0.270 C 
HETATM   18  O   UNL     1      42.043 -10.753   4.640  1.00  0.00    -0.266 OA
HETATM   19  H   UNL     1      42.678 -12.831   6.974  1.00  0.00     0.190 HD
BRANCH  17  20
HETATM   20  C   UNL     1      42.580 -13.047   4.326  1.00  0.00     0.033 A 
HETATM   21  C   UNL     1      43.046 -12.971   3.009  1.00  0.00     0.017 A 
HETATM   22  C   UNL     1      43.288 -14.143   2.286  1.00  0.00     0.007 A 
HETATM   23  C   UNL     1      43.067 -15.398   2.867  1.00  0.00    -0.062 A 
HETATM   24  C   UNL     1      43.368 -16.659   2.108  1.00  0.00     0.048 C 
HETATM   25  C   UNL     1      42.628 -15.466   4.195  1.00  0.00     0.007 A 
HETATM   26  C   UNL     1      42.385 -14.299   4.921  1.00  0.00     0.017 A 
ENDBRANCH  17  20
ENDBRANCH   1  16
TORSDOF 2
ENDMDL
