MODEL 1
REMARK VINA RESULT:      -9.3      0.000      0.000
REMARK  8 active torsions:
REMARK  status: ('A' for Active; 'I' for Inactive)
REMARK    1  A    between atoms: C_2  and  N_3 
REMARK    2  A    between atoms: C_2  and  C_36 
REMARK       I    between atoms: N_3  and  C_4 
REMARK    3  A    between atoms: C_4  and  C_5 
REMARK    4  A    between atoms: C_5  and  N_6 
REMARK       I    between atoms: N_12  and  C_13 
REMARK    5  A    between atoms: C_13  and  C_14 
REMARK    6  A    between atoms: C_15  and  O_16 
REMARK    7  A    between atoms: C_21  and  O_22 
REMARK    8  A    between atoms: N_27  and  C_28 
ROOT
HETATM    1  N   UNL     1      39.888  -9.160   8.135  1.00  0.00    -0.325 N 
HETATM    2  C   UNL     1      39.730  -9.538   6.816  1.00  0.00     0.250 C 
HETATM    3  O   UNL     1      38.692  -9.458   6.174  1.00  0.00    -0.270 OA
HETATM    4  C   UNL     1      41.065 -10.148   6.340  1.00  0.00     0.118 C 
HETATM    5  C   UNL     1      41.440  -9.522   4.984  1.00  0.00     0.061 C 
HETATM    6  C   UNL     1      40.797 -10.237   3.803  1.00  0.00     0.129 C 
HETATM    7  N   UNL     1      40.901 -11.681   3.943  1.00  0.00    -0.348 N 
HETATM    8  C   UNL     1      41.924 -12.358   3.266  1.00  0.00     0.259 C 
HETATM    9  O   UNL     1      42.799 -11.785   2.622  1.00  0.00    -0.267 OA
HETATM   10  C   UNL     1      40.196 -12.207   5.102  1.00  0.00     0.129 C 
HETATM   11  C   UNL     1      40.853 -11.679   6.376  1.00  0.00     0.061 C 
HETATM   12  N   UNL     1      41.994  -9.713   7.422  1.00  0.00    -0.346 N 
HETATM   13  C   UNL     1      41.257  -9.180   8.558  1.00  0.00     0.254 C 
ENDROOT
BRANCH  12  14
HETATM   14  C   UNL     1      43.354  -9.948   7.524  1.00  0.00     0.032 A 
HETATM   15  C   UNL     1      43.997 -11.033   6.904  1.00  0.00     0.029 A 
HETATM   16  C   UNL     1      45.379 -11.247   6.998  1.00  0.00     0.002 A 
HETATM   17  C   UNL     1      46.174 -10.375   7.725  1.00  0.00     0.000 A 
HETATM   18  C   UNL     1      45.583  -9.290   8.356  1.00  0.00     0.002 A 
HETATM   19  C   UNL     1      44.199  -9.087   8.253  1.00  0.00     0.029 A 
ENDBRANCH  12  14
BRANCH   1  20
HETATM   20  C   UNL     1      38.853  -8.478   8.898  1.00  0.00     0.230 C 
BRANCH  20  21
HETATM   21  C   UNL     1      39.165  -8.302  10.393  1.00  0.00     0.236 C 
HETATM   22  N   UNL     1      39.391  -9.477  11.080  1.00  0.00    -0.351 N 
HETATM   23  H   UNL     1      39.133 -10.357  10.653  1.00  0.00     0.163 HD
HETATM   24  O   UNL     1      39.169  -7.206  10.949  1.00  0.00    -0.272 OA
BRANCH  22  25
HETATM   25  C   UNL     1      39.626  -9.467  12.523  1.00  0.00     0.113 C 
HETATM   26  C   UNL     1      39.473 -10.902  13.051  1.00  0.00     0.037 C 
BRANCH  25  27
HETATM   27  C   UNL     1      40.962  -8.830  12.898  1.00  0.00    -0.036 A 
HETATM   28  C   UNL     1      42.126  -9.025  12.133  1.00  0.00     0.009 A 
HETATM   29  C   UNL     1      43.333  -8.407  12.480  1.00  0.00     0.001 A 
HETATM   30  C   UNL     1      43.395  -7.561  13.583  1.00  0.00     0.000 A 
HETATM   31  C   UNL     1      42.248  -7.323  14.333  1.00  0.00     0.001 A 
HETATM   32  C   UNL     1      41.044  -7.944  13.988  1.00  0.00     0.009 A 
ENDBRANCH  25  27
ENDBRANCH  22  25
ENDBRANCH  20  21
ENDBRANCH   1  20
BRANCH   8  33
HETATM   33  C   UNL     1      41.880 -13.840   3.224  1.00  0.00     0.098 A 
HETATM   34  C   UNL     1      41.172 -14.452   2.176  1.00  0.00     0.086 A 
HETATM   35  C   UNL     1      41.113 -15.843   2.086  1.00  0.00     0.038 A 
HETATM   36  C   UNL     1      41.736 -16.627   3.052  1.00  0.00     0.005 A 
HETATM   37  C   UNL     1      42.453 -16.024   4.090  1.00  0.00     0.038 A 
HETATM   38  C   UNL     1      42.548 -14.629   4.178  1.00  0.00     0.086 A 
BRANCH  34  39
HETATM   39  O   UNL     1      40.626 -13.728   1.148  1.00  0.00    -0.355 OA
HETATM   40  C   UNL     1      40.086 -14.585   0.145  1.00  0.00     0.210 C 
ENDBRANCH  34  39
BRANCH  38  41
HETATM   41  O   UNL     1      43.269 -13.972   5.137  1.00  0.00    -0.355 OA
HETATM   42  C   UNL     1      43.459 -14.621   6.388  1.00  0.00     0.210 C 
ENDBRANCH  38  41
ENDBRANCH   8  33
TORSDOF 8
ENDMDL
MODEL 2
REMARK VINA RESULT:      -9.3      0.363      2.055
REMARK  8 active torsions:
REMARK  status: ('A' for Active; 'I' for Inactive)
REMARK    1  A    between atoms: C_2  and  N_3 
REMARK    2  A    between atoms: C_2  and  C_36 
REMARK       I    between atoms: N_3  and  C_4 
REMARK    3  A    between atoms: C_4  and  C_5 
REMARK    4  A    between atoms: C_5  and  N_6 
REMARK       I    between atoms: N_12  and  C_13 
REMARK    5  A    between atoms: C_13  and  C_14 
REMARK    6  A    between atoms: C_15  and  O_16 
REMARK    7  A    between atoms: C_21  and  O_22 
REMARK    8  A    between atoms: N_27  and  C_28 
ROOT
HETATM    1  N   UNL     1      39.891  -8.966   8.262  1.00  0.00    -0.325 N 
HETATM    2  C   UNL     1      39.734  -9.413   6.965  1.00  0.00     0.250 C 
HETATM    3  O   UNL     1      38.687  -9.402   6.332  1.00  0.00    -0.270 OA
HETATM    4  C   UNL     1      41.086  -9.994   6.503  1.00  0.00     0.118 C 
HETATM    5  C   UNL     1      41.425  -9.421   5.114  1.00  0.00     0.061 C 
HETATM    6  C   UNL     1      40.798 -10.215   3.976  1.00  0.00     0.129 C 
HETATM    7  N   UNL     1      40.958 -11.646   4.183  1.00  0.00    -0.348 N 
HETATM    8  C   UNL     1      41.999 -12.316   3.528  1.00  0.00     0.259 C 
HETATM    9  O   UNL     1      42.845 -11.741   2.846  1.00  0.00    -0.267 OA
HETATM   10  C   UNL     1      40.284 -12.142   5.374  1.00  0.00     0.129 C 
HETATM   11  C   UNL     1      40.933 -11.528   6.614  1.00  0.00     0.061 C 
HETATM   12  N   UNL     1      42.009  -9.473   7.552  1.00  0.00    -0.346 N 
HETATM   13  C   UNL     1      41.264  -8.914   8.670  1.00  0.00     0.254 C 
ENDROOT
BRANCH  12  14
HETATM   14  C   UNL     1      43.378  -9.652   7.649  1.00  0.00     0.032 A 
HETATM   15  C   UNL     1      44.062 -10.715   7.034  1.00  0.00     0.029 A 
HETATM   16  C   UNL     1      45.452 -10.872   7.124  1.00  0.00     0.002 A 
HETATM   17  C   UNL     1      46.215  -9.962   7.840  1.00  0.00     0.000 A 
HETATM   18  C   UNL     1      45.582  -8.897   8.463  1.00  0.00     0.002 A 
HETATM   19  C   UNL     1      44.190  -8.751   8.366  1.00  0.00     0.029 A 
ENDBRANCH  12  14
BRANCH   1  20
HETATM   20  C   UNL     1      38.839  -8.288   9.003  1.00  0.00     0.230 C 
BRANCH  20  21
HETATM   21  C   UNL     1      39.095  -8.158  10.513  1.00  0.00     0.236 C 
HETATM   22  N   UNL     1      39.430  -9.336  11.148  1.00  0.00    -0.351 N 
HETATM   23  H   UNL     1      39.278 -10.215  10.670  1.00  0.00     0.163 HD
HETATM   24  O   UNL     1      38.969  -7.098  11.123  1.00  0.00    -0.272 OA
BRANCH  22  25
HETATM   25  C   UNL     1      39.629  -9.378  12.595  1.00  0.00     0.113 C 
HETATM   26  C   UNL     1      39.495 -10.834  13.065  1.00  0.00     0.037 C 
BRANCH  25  27
HETATM   27  C   UNL     1      40.942  -8.727  13.028  1.00  0.00    -0.036 A 
HETATM   28  C   UNL     1      42.122  -8.848  12.274  1.00  0.00     0.009 A 
HETATM   29  C   UNL     1      43.306  -8.219  12.675  1.00  0.00     0.001 A 
HETATM   30  C   UNL     1      43.328  -7.435  13.824  1.00  0.00     0.000 A 
HETATM   31  C   UNL     1      42.164  -7.270  14.567  1.00  0.00     0.001 A 
HETATM   32  C   UNL     1      40.982  -7.902  14.167  1.00  0.00     0.009 A 
ENDBRANCH  25  27
ENDBRANCH  22  25
ENDBRANCH  20  21
ENDBRANCH   1  20
BRANCH   8  33
HETATM   33  C   UNL     1      42.011 -13.798   3.557  1.00  0.00     0.098 A 
HETATM   34  C   UNL     1      42.805 -14.437   4.523  1.00  0.00     0.086 A 
HETATM   35  C   UNL     1      42.839 -15.829   4.599  1.00  0.00     0.038 A 
HETATM   36  C   UNL     1      42.102 -16.590   3.697  1.00  0.00     0.005 A 
HETATM   37  C   UNL     1      41.298 -15.960   2.741  1.00  0.00     0.038 A 
HETATM   38  C   UNL     1      41.230 -14.563   2.670  1.00  0.00     0.086 A 
BRANCH  34  39
HETATM   39  O   UNL     1      43.471 -13.735   5.495  1.00  0.00    -0.355 OA
HETATM   40  C   UNL     1      43.339 -14.364   6.767  1.00  0.00     0.210 C 
ENDBRANCH  34  39
BRANCH  38  41
HETATM   41  O   UNL     1      40.432 -13.880   1.794  1.00  0.00    -0.355 OA
HETATM   42  C   UNL     1      40.376 -14.340   0.449  1.00  0.00     0.210 C 
ENDBRANCH  38  41
ENDBRANCH   8  33
TORSDOF 8
ENDMDL
MODEL 3
REMARK VINA RESULT:      -9.2      5.886     10.090
REMARK  8 active torsions:
REMARK  status: ('A' for Active; 'I' for Inactive)
REMARK    1  A    between atoms: C_2  and  N_3 
REMARK    2  A    between atoms: C_2  and  C_36 
REMARK       I    between atoms: N_3  and  C_4 
REMARK    3  A    between atoms: C_4  and  C_5 
REMARK    4  A    between atoms: C_5  and  N_6 
REMARK       I    between atoms: N_12  and  C_13 
REMARK    5  A    between atoms: C_13  and  C_14 
REMARK    6  A    between atoms: C_15  and  O_16 
REMARK    7  A    between atoms: C_21  and  O_22 
REMARK    8  A    between atoms: N_27  and  C_28 
ROOT
HETATM    1  N   UNL     1      40.060 -14.143   1.671  1.00  0.00    -0.325 N 
HETATM    2  C   UNL     1      39.902 -13.617   0.404  1.00  0.00     0.250 C 
HETATM    3  O   UNL     1      40.043 -14.233  -0.643  1.00  0.00    -0.270 OA
HETATM    4  C   UNL     1      39.602 -12.111   0.556  1.00  0.00     0.118 C 
HETATM    5  C   UNL     1      38.389 -11.756  -0.324  1.00  0.00     0.061 C 
HETATM    6  C   UNL     1      38.772 -11.441  -1.764  1.00  0.00     0.129 C 
HETATM    7  N   UNL     1      39.936 -10.571  -1.820  1.00  0.00    -0.348 N 
HETATM    8  C   UNL     1      39.748  -9.195  -2.003  1.00  0.00     0.259 C 
HETATM    9  O   UNL     1      38.640  -8.666  -2.036  1.00  0.00    -0.267 OA
HETATM   10  C   UNL     1      41.138 -11.168  -1.255  1.00  0.00     0.129 C 
HETATM   11  C   UNL     1      40.935 -11.393   0.242  1.00  0.00     0.061 C 
HETATM   12  N   UNL     1      39.275 -12.017   2.008  1.00  0.00    -0.346 N 
HETATM   13  C   UNL     1      39.636 -13.244   2.703  1.00  0.00     0.254 C 
ENDROOT
BRANCH  12  14
HETATM   14  C   UNL     1      38.897 -10.896   2.726  1.00  0.00     0.032 A 
HETATM   15  C   UNL     1      38.369  -9.740   2.127  1.00  0.00     0.029 A 
HETATM   16  C   UNL     1      37.970  -8.619   2.869  1.00  0.00     0.002 A 
HETATM   17  C   UNL     1      38.088  -8.616   4.251  1.00  0.00     0.000 A 
HETATM   18  C   UNL     1      38.605  -9.736   4.885  1.00  0.00     0.002 A 
HETATM   19  C   UNL     1      39.000 -10.851   4.131  1.00  0.00     0.029 A 
ENDBRANCH  12  14
BRANCH   1  20
HETATM   20  C   UNL     1      40.284 -15.558   1.924  1.00  0.00     0.230 C 
BRANCH  20  21
HETATM   21  C   UNL     1      41.753 -15.947   2.159  1.00  0.00     0.236 C 
HETATM   22  N   UNL     1      42.013 -16.510   3.391  1.00  0.00    -0.351 N 
HETATM   23  H   UNL     1      41.320 -16.436   4.124  1.00  0.00     0.163 HD
HETATM   24  O   UNL     1      42.639 -15.734   1.335  1.00  0.00    -0.272 OA
BRANCH  22  25
HETATM   25  C   UNL     1      43.377 -16.860   3.782  1.00  0.00     0.113 C 
HETATM   26  C   UNL     1      43.663 -16.244   5.159  1.00  0.00     0.037 C 
BRANCH  25  27
HETATM   27  C   UNL     1      43.636 -18.365   3.733  1.00  0.00    -0.036 A 
HETATM   28  C   UNL     1      43.997 -19.100   4.876  1.00  0.00     0.009 A 
HETATM   29  C   UNL     1      44.200 -20.483   4.814  1.00  0.00     0.001 A 
HETATM   30  C   UNL     1      44.021 -21.164   3.613  1.00  0.00     0.000 A 
HETATM   31  C   UNL     1      43.628 -20.465   2.478  1.00  0.00     0.001 A 
HETATM   32  C   UNL     1      43.429 -19.082   2.541  1.00  0.00     0.009 A 
ENDBRANCH  25  27
ENDBRANCH  22  25
ENDBRANCH  20  21
ENDBRANCH   1  20
BRANCH   8  33
HETATM   33  C   UNL     1      40.935  -8.355  -2.294  1.00  0.00     0.098 A 
HETATM   34  C   UNL     1      41.545  -7.676  -1.226  1.00  0.00     0.086 A 
HETATM   35  C   UNL     1      42.673  -6.886  -1.447  1.00  0.00     0.038 A 
HETATM   36  C   UNL     1      43.180  -6.747  -2.735  1.00  0.00     0.005 A 
HETATM   37  C   UNL     1      42.585  -7.431  -3.801  1.00  0.00     0.038 A 
HETATM   38  C   UNL     1      41.471  -8.253  -3.591  1.00  0.00     0.086 A 
BRANCH  34  39
HETATM   39  O   UNL     1      41.145  -7.857   0.073  1.00  0.00    -0.355 OA
HETATM   40  C   UNL     1      40.645  -6.645   0.631  1.00  0.00     0.210 C 
ENDBRANCH  34  39
BRANCH  38  41
HETATM   41  O   UNL     1      40.867  -8.987  -4.575  1.00  0.00    -0.355 OA
HETATM   42  C   UNL     1      40.204  -8.283  -5.618  1.00  0.00     0.210 C 
ENDBRANCH  38  41
ENDBRANCH   8  33
TORSDOF 8
ENDMDL
MODEL 4
REMARK VINA RESULT:      -9.2      6.019     10.010
REMARK  8 active torsions:
REMARK  status: ('A' for Active; 'I' for Inactive)
REMARK    1  A    between atoms: C_2  and  N_3 
REMARK    2  A    between atoms: C_2  and  C_36 
REMARK       I    between atoms: N_3  and  C_4 
REMARK    3  A    between atoms: C_4  and  C_5 
REMARK    4  A    between atoms: C_5  and  N_6 
REMARK       I    between atoms: N_12  and  C_13 
REMARK    5  A    between atoms: C_13  and  C_14 
REMARK    6  A    between atoms: C_15  and  O_16 
REMARK    7  A    between atoms: C_21  and  O_22 
REMARK    8  A    between atoms: N_27  and  C_28 
ROOT
HETATM    1  N   UNL     1      40.153 -14.273   1.400  1.00  0.00    -0.325 N 
HETATM    2  C   UNL     1      39.954 -13.735   0.144  1.00  0.00     0.250 C 
HETATM    3  O   UNL     1      40.066 -14.340  -0.914  1.00  0.00    -0.270 OA
HETATM    4  C   UNL     1      39.653 -12.232   0.320  1.00  0.00     0.118 C 
HETATM    5  C   UNL     1      38.412 -11.874  -0.520  1.00  0.00     0.061 C 
HETATM    6  C   UNL     1      38.751 -11.543  -1.967  1.00  0.00     0.129 C 
HETATM    7  N   UNL     1      39.909 -10.667  -2.049  1.00  0.00    -0.348 N 
HETATM    8  C   UNL     1      39.711  -9.290  -2.213  1.00  0.00     0.259 C 
HETATM    9  O   UNL     1      38.599  -8.765  -2.207  1.00  0.00    -0.267 OA
HETATM   10  C   UNL     1      41.130 -11.264  -1.527  1.00  0.00     0.129 C 
HETATM   11  C   UNL     1      40.973 -11.506  -0.027  1.00  0.00     0.061 C 
HETATM   12  N   UNL     1      39.370 -12.154   1.781  1.00  0.00    -0.346 N 
HETATM   13  C   UNL     1      39.755 -13.386   2.453  1.00  0.00     0.254 C 
ENDROOT
BRANCH  12  14
HETATM   14  C   UNL     1      39.009 -11.042   2.522  1.00  0.00     0.032 A 
HETATM   15  C   UNL     1      38.612  -9.825   1.941  1.00  0.00     0.029 A 
HETATM   16  C   UNL     1      38.229  -8.713   2.704  1.00  0.00     0.002 A 
HETATM   17  C   UNL     1      38.229  -8.780   4.089  1.00  0.00     0.000 A 
HETATM   18  C   UNL     1      38.614  -9.961   4.705  1.00  0.00     0.002 A 
HETATM   19  C   UNL     1      38.995 -11.067   3.931  1.00  0.00     0.029 A 
ENDBRANCH  12  14
BRANCH   1  20
HETATM   20  C   UNL     1      40.390 -15.690   1.631  1.00  0.00     0.230 C 
BRANCH  20  21
HETATM   21  C   UNL     1      41.838 -16.049   2.000  1.00  0.00     0.236 C 
HETATM   22  N   UNL     1      42.008 -16.528   3.283  1.00  0.00    -0.351 N 
HETATM   23  H   UNL     1      41.261 -16.412   3.956  1.00  0.00     0.163 HD
HETATM   24  O   UNL     1      42.783 -15.884   1.233  1.00  0.00    -0.272 OA
BRANCH  22  25
HETATM   25  C   UNL     1      43.340 -16.840   3.797  1.00  0.00     0.113 C 
HETATM   26  C   UNL     1      43.497 -16.181   5.176  1.00  0.00     0.037 C 
BRANCH  25  27
HETATM   27  C   UNL     1      43.628 -18.340   3.813  1.00  0.00    -0.036 A 
HETATM   28  C   UNL     1      43.953 -19.027   4.996  1.00  0.00     0.009 A 
HETATM   29  C   UNL     1      44.185 -20.407   4.992  1.00  0.00     0.001 A 
HETATM   30  C   UNL     1      44.071 -21.132   3.810  1.00  0.00     0.000 A 
HETATM   31  C   UNL     1      43.715 -20.481   2.634  1.00  0.00     0.001 A 
HETATM   32  C   UNL     1      43.487 -19.102   2.639  1.00  0.00     0.009 A 
ENDBRANCH  25  27
ENDBRANCH  22  25
ENDBRANCH  20  21
ENDBRANCH   1  20
BRANCH   8  33
HETATM   33  C   UNL     1      40.885  -8.442  -2.531  1.00  0.00     0.098 A 
HETATM   34  C   UNL     1      41.278  -8.331  -3.875  1.00  0.00     0.086 A 
HETATM   35  C   UNL     1      42.367  -7.534  -4.226  1.00  0.00     0.038 A 
HETATM   36  C   UNL     1      43.085  -6.868  -3.238  1.00  0.00     0.005 A 
HETATM   37  C   UNL     1      42.691  -6.964  -1.899  1.00  0.00     0.038 A 
HETATM   38  C   UNL     1      41.580  -7.736  -1.533  1.00  0.00     0.086 A 
BRANCH  34  39
HETATM   39  O   UNL     1      40.548  -8.887  -4.894  1.00  0.00    -0.355 OA
HETATM   40  C   UNL     1      39.980  -7.881  -5.730  1.00  0.00     0.210 C 
ENDBRANCH  34  39
BRANCH  38  41
HETATM   41  O   UNL     1      41.110  -7.838  -0.253  1.00  0.00    -0.355 OA
HETATM   42  C   UNL     1      40.605  -6.662   0.367  1.00  0.00     0.210 C 
ENDBRANCH  38  41
ENDBRANCH   8  33
TORSDOF 8
ENDMDL
MODEL 5
REMARK VINA RESULT:      -8.7      3.148      9.500
REMARK  8 active torsions:
REMARK  status: ('A' for Active; 'I' for Inactive)
REMARK    1  A    between atoms: C_2  and  N_3 
REMARK    2  A    between atoms: C_2  and  C_36 
REMARK       I    between atoms: N_3  and  C_4 
REMARK    3  A    between atoms: C_4  and  C_5 
REMARK    4  A    between atoms: C_5  and  N_6 
REMARK       I    between atoms: N_12  and  C_13 
REMARK    5  A    between atoms: C_13  and  C_14 
REMARK    6  A    between atoms: C_15  and  O_16 
REMARK    7  A    between atoms: C_21  and  O_22 
REMARK    8  A    between atoms: N_27  and  C_28 
ROOT
HETATM    1  N   UNL     1      43.808 -10.668   7.969  1.00  0.00    -0.325 N 
HETATM    2  C   UNL     1      42.785  -9.889   7.465  1.00  0.00     0.250 C 
HETATM    3  O   UNL     1      42.420  -9.866   6.298  1.00  0.00    -0.270 OA
HETATM    4  C   UNL     1      42.257  -9.008   8.616  1.00  0.00     0.118 C 
HETATM    5  C   UNL     1      40.719  -9.093   8.640  1.00  0.00     0.061 C 
HETATM    6  C   UNL     1      40.055  -8.100   7.696  1.00  0.00     0.129 C 
HETATM    7  N   UNL     1      40.669  -6.786   7.799  1.00  0.00    -0.348 N 
HETATM    8  C   UNL     1      40.056  -5.809   8.595  1.00  0.00     0.259 C 
HETATM    9  O   UNL     1      39.063  -6.030   9.286  1.00  0.00    -0.267 OA
HETATM   10  C   UNL     1      42.070  -6.764   7.407  1.00  0.00     0.129 C 
HETATM   11  C   UNL     1      42.881  -7.613   8.385  1.00  0.00     0.061 C 
HETATM   12  N   UNL     1      42.863  -9.673   9.804  1.00  0.00    -0.346 N 
HETATM   13  C   UNL     1      43.876 -10.637   9.401  1.00  0.00     0.254 C 
ENDROOT
BRANCH  12  14
HETATM   14  C   UNL     1      42.720  -9.334  11.138  1.00  0.00     0.032 A 
HETATM   15  C   UNL     1      43.497  -8.348  11.770  1.00  0.00     0.029 A 
HETATM   16  C   UNL     1      43.327  -8.000  13.118  1.00  0.00     0.002 A 
HETATM   17  C   UNL     1      42.362  -8.632  13.887  1.00  0.00     0.000 A 
HETATM   18  C   UNL     1      41.572  -9.612  13.305  1.00  0.00     0.002 A 
HETATM   19  C   UNL     1      41.752  -9.951  11.956  1.00  0.00     0.029 A 
ENDBRANCH  12  14
BRANCH   1  20
HETATM   20  C   UNL     1      44.500 -11.679   7.185  1.00  0.00     0.230 C 
BRANCH  20  21
HETATM   21  C   UNL     1      43.691 -12.961   6.928  1.00  0.00     0.236 C 
HETATM   22  N   UNL     1      43.036 -13.000   5.714  1.00  0.00    -0.351 N 
HETATM   23  H   UNL     1      42.934 -12.146   5.181  1.00  0.00     0.163 HD
HETATM   24  O   UNL     1      43.594 -13.866   7.754  1.00  0.00    -0.272 OA
BRANCH  22  25
HETATM   25  C   UNL     1      42.170 -14.124   5.366  1.00  0.00     0.113 C 
HETATM   26  C   UNL     1      40.721 -13.620   5.297  1.00  0.00     0.037 C 
BRANCH  25  27
HETATM   27  C   UNL     1      42.616 -14.839   4.092  1.00  0.00    -0.036 A 
HETATM   28  C   UNL     1      42.577 -16.239   3.965  1.00  0.00     0.009 A 
HETATM   29  C   UNL     1      42.963 -16.870   2.778  1.00  0.00     0.001 A 
HETATM   30  C   UNL     1      43.373 -16.114   1.684  1.00  0.00     0.000 A 
HETATM   31  C   UNL     1      43.385 -14.727   1.772  1.00  0.00     0.001 A 
HETATM   32  C   UNL     1      43.003 -14.097   2.960  1.00  0.00     0.009 A 
ENDBRANCH  25  27
ENDBRANCH  22  25
ENDBRANCH  20  21
ENDBRANCH   1  20
BRANCH   8  33
HETATM   33  C   UNL     1      40.553  -4.415   8.507  1.00  0.00     0.098 A 
HETATM   34  C   UNL     1      41.444  -3.965   9.495  1.00  0.00     0.086 A 
HETATM   35  C   UNL     1      41.950  -2.666   9.447  1.00  0.00     0.038 A 
HETATM   36  C   UNL     1      41.550  -1.804   8.431  1.00  0.00     0.005 A 
HETATM   37  C   UNL     1      40.674  -2.250   7.436  1.00  0.00     0.038 A 
HETATM   38  C   UNL     1      40.180  -3.561   7.453  1.00  0.00     0.086 A 
BRANCH  34  39
HETATM   39  O   UNL     1      41.943  -4.802  10.459  1.00  0.00    -0.355 OA
HETATM   40  C   UNL     1      41.552  -4.379  11.763  1.00  0.00     0.210 C 
ENDBRANCH  34  39
BRANCH  38  41
HETATM   41  O   UNL     1      39.359  -4.080   6.490  1.00  0.00    -0.355 OA
HETATM   42  C   UNL     1      39.894  -4.256   5.183  1.00  0.00     0.210 C 
ENDBRANCH  38  41
ENDBRANCH   8  33
TORSDOF 8
ENDMDL
MODEL 6
REMARK VINA RESULT:      -8.7      2.409      5.416
REMARK  8 active torsions:
REMARK  status: ('A' for Active; 'I' for Inactive)
REMARK    1  A    between atoms: C_2  and  N_3 
REMARK    2  A    between atoms: C_2  and  C_36 
REMARK       I    between atoms: N_3  and  C_4 
REMARK    3  A    between atoms: C_4  and  C_5 
REMARK    4  A    between atoms: C_5  and  N_6 
REMARK       I    between atoms: N_12  and  C_13 
REMARK    5  A    between atoms: C_13  and  C_14 
REMARK    6  A    between atoms: C_15  and  O_16 
REMARK    7  A    between atoms: C_21  and  O_22 
REMARK    8  A    between atoms: N_27  and  C_28 
ROOT
HETATM    1  N   UNL     1      39.523 -11.334   5.901  1.00  0.00    -0.325 N 
HETATM    2  C   UNL     1      39.634 -10.693   4.683  1.00  0.00     0.250 C 
HETATM    3  O   UNL     1      39.279  -9.546   4.449  1.00  0.00    -0.270 OA
HETATM    4  C   UNL     1      40.202 -11.709   3.669  1.00  0.00     0.118 C 
HETATM    5  C   UNL     1      41.358 -11.045   2.898  1.00  0.00     0.061 C 
HETATM    6  C   UNL     1      40.884 -10.245   1.692  1.00  0.00     0.129 C 
HETATM    7  N   UNL     1      39.887 -10.981   0.931  1.00  0.00    -0.348 N 
HETATM    8  C   UNL     1      40.287 -11.685  -0.212  1.00  0.00     0.259 C 
HETATM    9  O   UNL     1      41.460 -11.785  -0.564  1.00  0.00    -0.267 OA
HETATM   10  C   UNL     1      38.667 -11.253   1.678  1.00  0.00     0.129 C 
HETATM   11  C   UNL     1      38.986 -12.188   2.843  1.00  0.00     0.061 C 
HETATM   12  N   UNL     1      40.692 -12.789   4.572  1.00  0.00    -0.346 N 
HETATM   13  C   UNL     1      40.203 -12.596   5.929  1.00  0.00     0.254 C 
ENDROOT
BRANCH  12  14
HETATM   14  C   UNL     1      41.330 -13.967   4.225  1.00  0.00     0.032 A 
HETATM   15  C   UNL     1      40.643 -15.155   3.921  1.00  0.00     0.029 A 
HETATM   16  C   UNL     1      41.302 -16.336   3.551  1.00  0.00     0.002 A 
HETATM   17  C   UNL     1      42.686 -16.369   3.471  1.00  0.00     0.000 A 
HETATM   18  C   UNL     1      43.406 -15.220   3.763  1.00  0.00     0.002 A 
HETATM   19  C   UNL     1      42.734 -14.045   4.132  1.00  0.00     0.029 A 
ENDBRANCH  12  14
BRANCH   1  20
HETATM   20  C   UNL     1      39.088 -10.664   7.117  1.00  0.00     0.230 C 
BRANCH  20  21
HETATM   21  C   UNL     1      40.064  -9.604   7.654  1.00  0.00     0.236 C 
HETATM   22  N   UNL     1      41.229 -10.109   8.192  1.00  0.00    -0.351 N 
HETATM   23  H   UNL     1      41.288 -11.096   8.406  1.00  0.00     0.163 HD
HETATM   24  O   UNL     1      39.812  -8.402   7.649  1.00  0.00    -0.272 OA
BRANCH  22  25
HETATM   25  C   UNL     1      42.216  -9.224   8.807  1.00  0.00     0.113 C 
HETATM   26  C   UNL     1      41.959  -9.184  10.321  1.00  0.00     0.037 C 
BRANCH  25  27
HETATM   27  C   UNL     1      43.652  -9.606   8.453  1.00  0.00    -0.036 A 
HETATM   28  C   UNL     1      43.976 -10.846   7.875  1.00  0.00     0.009 A 
HETATM   29  C   UNL     1      45.295 -11.163   7.533  1.00  0.00     0.001 A 
HETATM   30  C   UNL     1      46.314 -10.237   7.737  1.00  0.00     0.000 A 
HETATM   31  C   UNL     1      46.013  -8.990   8.273  1.00  0.00     0.001 A 
HETATM   32  C   UNL     1      44.695  -8.676   8.618  1.00  0.00     0.009 A 
ENDBRANCH  25  27
ENDBRANCH  22  25
ENDBRANCH  20  21
ENDBRANCH   1  20
BRANCH   8  33
HETATM   33  C   UNL     1      39.238 -12.231  -1.106  1.00  0.00     0.098 A 
HETATM   34  C   UNL     1      38.323 -11.333  -1.682  1.00  0.00     0.086 A 
HETATM   35  C   UNL     1      37.327 -11.797  -2.540  1.00  0.00     0.038 A 
HETATM   36  C   UNL     1      37.221 -13.159  -2.807  1.00  0.00     0.005 A 
HETATM   37  C   UNL     1      38.136 -14.056  -2.248  1.00  0.00     0.038 A 
HETATM   38  C   UNL     1      39.162 -13.603  -1.407  1.00  0.00     0.086 A 
BRANCH  34  39
HETATM   39  O   UNL     1      38.444  -9.976  -1.529  1.00  0.00    -0.355 OA
HETATM   40  C   UNL     1      38.855  -9.355  -2.745  1.00  0.00     0.210 C 
ENDBRANCH  34  39
BRANCH  38  41
HETATM   41  O   UNL     1      40.118 -14.416  -0.863  1.00  0.00    -0.355 OA
HETATM   42  C   UNL     1      39.794 -15.117   0.331  1.00  0.00     0.210 C 
ENDBRANCH  38  41
ENDBRANCH   8  33
TORSDOF 8
ENDMDL
MODEL 7
REMARK VINA RESULT:      -8.7      6.591     10.171
REMARK  8 active torsions:
REMARK  status: ('A' for Active; 'I' for Inactive)
REMARK    1  A    between atoms: C_2  and  N_3 
REMARK    2  A    between atoms: C_2  and  C_36 
REMARK       I    between atoms: N_3  and  C_4 
REMARK    3  A    between atoms: C_4  and  C_5 
REMARK    4  A    between atoms: C_5  and  N_6 
REMARK       I    between atoms: N_12  and  C_13 
REMARK    5  A    between atoms: C_13  and  C_14 
REMARK    6  A    between atoms: C_15  and  O_16 
REMARK    7  A    between atoms: C_21  and  O_22 
REMARK    8  A    between atoms: N_27  and  C_28 
ROOT
HETATM    1  N   UNL     1      40.450 -13.601   2.806  1.00  0.00    -0.325 N 
HETATM    2  C   UNL     1      40.786 -12.285   2.561  1.00  0.00     0.250 C 
HETATM    3  O   UNL     1      41.412 -11.558   3.321  1.00  0.00    -0.270 OA
HETATM    4  C   UNL     1      40.162 -11.886   1.208  1.00  0.00     0.118 C 
HETATM    5  C   UNL     1      41.234 -11.185   0.353  1.00  0.00     0.061 C 
HETATM    6  C   UNL     1      41.340  -9.693   0.641  1.00  0.00     0.129 C 
HETATM    7  N   UNL     1      40.024  -9.080   0.725  1.00  0.00    -0.348 N 
HETATM    8  C   UNL     1      39.513  -8.409  -0.394  1.00  0.00     0.259 C 
HETATM    9  O   UNL     1      40.085  -8.382  -1.481  1.00  0.00    -0.267 OA
HETATM   10  C   UNL     1      39.209  -9.595   1.816  1.00  0.00     0.129 C 
HETATM   11  C   UNL     1      38.899 -11.069   1.563  1.00  0.00     0.061 C 
HETATM   12  N   UNL     1      39.794 -13.217   0.645  1.00  0.00    -0.346 N 
HETATM   13  C   UNL     1      39.897 -14.257   1.658  1.00  0.00     0.254 C 
ENDROOT
BRANCH  12  14
HETATM   14  C   UNL     1      39.210 -13.494  -0.579  1.00  0.00     0.032 A 
HETATM   15  C   UNL     1      38.279 -12.643  -1.198  1.00  0.00     0.029 A 
HETATM   16  C   UNL     1      37.711 -12.926  -2.449  1.00  0.00     0.002 A 
HETATM   17  C   UNL     1      38.059 -14.083  -3.130  1.00  0.00     0.000 A 
HETATM   18  C   UNL     1      38.974 -14.953  -2.556  1.00  0.00     0.002 A 
HETATM   19  C   UNL     1      39.535 -14.658  -1.305  1.00  0.00     0.029 A 
ENDBRANCH  12  14
BRANCH   1  20
HETATM   20  C   UNL     1      40.927 -14.343   3.963  1.00  0.00     0.230 C 
BRANCH  20  21
HETATM   21  C   UNL     1      42.304 -15.004   3.783  1.00  0.00     0.236 C 
HETATM   22  N   UNL     1      42.564 -16.046   4.649  1.00  0.00    -0.351 N 
HETATM   23  H   UNL     1      41.974 -16.173   5.461  1.00  0.00     0.163 HD
HETATM   24  O   UNL     1      43.131 -14.610   2.965  1.00  0.00    -0.272 OA
BRANCH  22  25
HETATM   25  C   UNL     1      43.861 -16.720   4.643  1.00  0.00     0.113 C 
HETATM   26  C   UNL     1      44.455 -16.645   6.057  1.00  0.00     0.037 C 
BRANCH  25  27
HETATM   27  C   UNL     1      43.782 -18.145   4.100  1.00  0.00    -0.036 A 
HETATM   28  C   UNL     1      43.482 -18.419   2.754  1.00  0.00     0.009 A 
HETATM   29  C   UNL     1      43.444 -19.732   2.272  1.00  0.00     0.001 A 
HETATM   30  C   UNL     1      43.730 -20.797   3.120  1.00  0.00     0.000 A 
HETATM   31  C   UNL     1      44.066 -20.550   4.447  1.00  0.00     0.001 A 
HETATM   32  C   UNL     1      44.100 -19.238   4.928  1.00  0.00     0.009 A 
ENDBRANCH  25  27
ENDBRANCH  22  25
ENDBRANCH  20  21
ENDBRANCH   1  20
BRANCH   8  33
HETATM   33  C   UNL     1      38.287  -7.592  -0.226  1.00  0.00     0.098 A 
HETATM   34  C   UNL     1      37.067  -8.127  -0.673  1.00  0.00     0.086 A 
HETATM   35  C   UNL     1      35.885  -7.402  -0.525  1.00  0.00     0.038 A 
HETATM   36  C   UNL     1      35.917  -6.134   0.045  1.00  0.00     0.005 A 
HETATM   37  C   UNL     1      37.125  -5.601   0.506  1.00  0.00     0.038 A 
HETATM   38  C   UNL     1      38.318  -6.329   0.391  1.00  0.00     0.086 A 
BRANCH  34  39
HETATM   39  O   UNL     1      36.968  -9.408  -1.151  1.00  0.00    -0.355 OA
HETATM   40  C   UNL     1      36.499  -9.421  -2.498  1.00  0.00     0.210 C 
ENDBRANCH  34  39
BRANCH  38  41
HETATM   41  O   UNL     1      39.526  -5.892   0.860  1.00  0.00    -0.355 OA
HETATM   42  C   UNL     1      39.635  -5.600   2.248  1.00  0.00     0.210 C 
ENDBRANCH  38  41
ENDBRANCH   8  33
TORSDOF 8
ENDMDL
MODEL 8
REMARK VINA RESULT:      -8.6      2.752      5.924
REMARK  8 active torsions:
REMARK  status: ('A' for Active; 'I' for Inactive)
REMARK    1  A    between atoms: C_2  and  N_3 
REMARK    2  A    between atoms: C_2  and  C_36 
REMARK       I    between atoms: N_3  and  C_4 
REMARK    3  A    between atoms: C_4  and  C_5 
REMARK    4  A    between atoms: C_5  and  N_6 
REMARK       I    between atoms: N_12  and  C_13 
REMARK    5  A    between atoms: C_13  and  C_14 
REMARK    6  A    between atoms: C_15  and  O_16 
REMARK    7  A    between atoms: C_21  and  O_22 
REMARK    8  A    between atoms: N_27  and  C_28 
ROOT
HETATM    1  N   UNL     1      39.689 -10.932   5.669  1.00  0.00    -0.325 N 
HETATM    2  C   UNL     1      39.817 -10.225   4.490  1.00  0.00     0.250 C 
HETATM    3  O   UNL     1      39.585  -9.032   4.348  1.00  0.00    -0.270 OA
HETATM    4  C   UNL     1      40.221 -11.224   3.386  1.00  0.00     0.118 C 
HETATM    5  C   UNL     1      41.410 -10.641   2.599  1.00  0.00     0.061 C 
HETATM    6  C   UNL     1      40.976  -9.712   1.472  1.00  0.00     0.129 C 
HETATM    7  N   UNL     1      39.869 -10.280   0.719  1.00  0.00    -0.348 N 
HETATM    8  C   UNL     1      40.136 -10.944  -0.486  1.00  0.00     0.259 C 
HETATM    9  O   UNL     1      41.274 -11.148  -0.904  1.00  0.00    -0.267 OA
HETATM   10  C   UNL     1      38.661 -10.467   1.509  1.00  0.00     0.129 C 
HETATM   11  C   UNL     1      38.924 -11.509   2.595  1.00  0.00     0.061 C 
HETATM   12  N   UNL     1      40.625 -12.412   4.192  1.00  0.00    -0.346 N 
HETATM   13  C   UNL     1      40.222 -12.259   5.582  1.00  0.00     0.254 C 
ENDROOT
BRANCH  12  14
HETATM   14  C   UNL     1      41.111 -13.626   3.738  1.00  0.00     0.032 A 
HETATM   15  C   UNL     1      40.327 -14.551   3.026  1.00  0.00     0.029 A 
HETATM   16  C   UNL     1      40.837 -15.768   2.555  1.00  0.00     0.002 A 
HETATM   17  C   UNL     1      42.163 -16.107   2.781  1.00  0.00     0.000 A 
HETATM   18  C   UNL     1      42.973 -15.224   3.480  1.00  0.00     0.002 A 
HETATM   19  C   UNL     1      42.451 -14.009   3.947  1.00  0.00     0.029 A 
ENDBRANCH  12  14
BRANCH   1  20
HETATM   20  C   UNL     1      39.387 -10.303   6.946  1.00  0.00     0.230 C 
BRANCH  20  21
HETATM   21  C   UNL     1      40.506  -9.411   7.506  1.00  0.00     0.236 C 
HETATM   22  N   UNL     1      41.400 -10.055   8.336  1.00  0.00    -0.351 N 
HETATM   23  H   UNL     1      41.165 -10.970   8.700  1.00  0.00     0.163 HD
HETATM   24  O   UNL     1      40.579  -8.206   7.274  1.00  0.00    -0.272 OA
BRANCH  22  25
HETATM   25  C   UNL     1      42.472  -9.317   9.001  1.00  0.00     0.113 C 
HETATM   26  C   UNL     1      42.347  -9.533  10.516  1.00  0.00     0.037 C 
BRANCH  25  27
HETATM   27  C   UNL     1      43.856  -9.670   8.457  1.00  0.00    -0.036 A 
HETATM   28  C   UNL     1      44.985  -8.871   8.707  1.00  0.00     0.009 A 
HETATM   29  C   UNL     1      46.248  -9.230   8.224  1.00  0.00     0.001 A 
HETATM   30  C   UNL     1      46.412 -10.409   7.502  1.00  0.00     0.000 A 
HETATM   31  C   UNL     1      45.317 -11.235   7.274  1.00  0.00     0.001 A 
HETATM   32  C   UNL     1      44.055 -10.873   7.754  1.00  0.00     0.009 A 
ENDBRANCH  25  27
ENDBRANCH  22  25
ENDBRANCH  20  21
ENDBRANCH   1  20
BRANCH   8  33
HETATM   33  C   UNL     1      38.993 -11.309  -1.357  1.00  0.00     0.098 A 
HETATM   34  C   UNL     1      38.565 -12.646  -1.363  1.00  0.00     0.086 A 
HETATM   35  C   UNL     1      37.485 -13.036  -2.155  1.00  0.00     0.038 A 
HETATM   36  C   UNL     1      36.846 -12.101  -2.963  1.00  0.00     0.005 A 
HETATM   37  C   UNL     1      37.258 -10.764  -2.951  1.00  0.00     0.038 A 
HETATM   38  C   UNL     1      38.322 -10.351  -2.138  1.00  0.00     0.086 A 
BRANCH  34  39
HETATM   39  O   UNL     1      39.096 -13.583  -0.515  1.00  0.00    -0.355 OA
HETATM   40  C   UNL     1      39.436 -14.778  -1.214  1.00  0.00     0.210 C 
ENDBRANCH  34  39
BRANCH  38  41
HETATM   41  O   UNL     1      38.749  -9.055  -2.041  1.00  0.00    -0.355 OA
HETATM   42  C   UNL     1      39.374  -8.473  -3.178  1.00  0.00     0.210 C 
ENDBRANCH  38  41
ENDBRANCH   8  33
TORSDOF 8
ENDMDL
MODEL 9
REMARK VINA RESULT:      -8.6      2.664      9.546
REMARK  8 active torsions:
REMARK  status: ('A' for Active; 'I' for Inactive)
REMARK    1  A    between atoms: C_2  and  N_3 
REMARK    2  A    between atoms: C_2  and  C_36 
REMARK       I    between atoms: N_3  and  C_4 
REMARK    3  A    between atoms: C_4  and  C_5 
REMARK    4  A    between atoms: C_5  and  N_6 
REMARK       I    between atoms: N_12  and  C_13 
REMARK    5  A    between atoms: C_13  and  C_14 
REMARK    6  A    between atoms: C_15  and  O_16 
REMARK    7  A    between atoms: C_21  and  O_22 
REMARK    8  A    between atoms: N_27  and  C_28 
ROOT
HETATM    1  N   UNL     1      43.471 -11.565   7.030  1.00  0.00    -0.325 N 
HETATM    2  C   UNL     1      43.787 -10.655   8.019  1.00  0.00     0.250 C 
HETATM    3  O   UNL     1      44.678 -10.787   8.847  1.00  0.00    -0.270 OA
HETATM    4  C   UNL     1      42.766  -9.501   7.937  1.00  0.00     0.118 C 
HETATM    5  C   UNL     1      43.527  -8.162   7.972  1.00  0.00     0.061 C 
HETATM    6  C   UNL     1      43.819  -7.683   9.388  1.00  0.00     0.129 C 
HETATM    7  N   UNL     1      42.652  -7.829  10.244  1.00  0.00    -0.348 N 
HETATM    8  C   UNL     1      41.835  -6.715  10.476  1.00  0.00     0.259 C 
HETATM    9  O   UNL     1      42.004  -5.630   9.924  1.00  0.00    -0.267 OA
HETATM   10  C   UNL     1      42.226  -9.210  10.418  1.00  0.00     0.129 C 
HETATM   11  C   UNL     1      41.754  -9.766   9.076  1.00  0.00     0.061 C 
HETATM   12  N   UNL     1      42.145  -9.746   6.604  1.00  0.00    -0.346 N 
HETATM   13  C   UNL     1      42.519 -11.054   6.088  1.00  0.00     0.254 C 
ENDROOT
BRANCH  12  14
HETATM   14  C   UNL     1      41.164  -9.003   5.971  1.00  0.00     0.032 A 
HETATM   15  C   UNL     1      39.829  -8.957   6.409  1.00  0.00     0.029 A 
HETATM   16  C   UNL     1      38.850  -8.184   5.770  1.00  0.00     0.002 A 
HETATM   17  C   UNL     1      39.175  -7.422   4.658  1.00  0.00     0.000 A 
HETATM   18  C   UNL     1      40.480  -7.438   4.190  1.00  0.00     0.002 A 
HETATM   19  C   UNL     1      41.451  -8.215   4.838  1.00  0.00     0.029 A 
ENDBRANCH  12  14
BRANCH   1  20
HETATM   20  C   UNL     1      44.264 -12.754   6.758  1.00  0.00     0.230 C 
BRANCH  20  21
HETATM   21  C   UNL     1      43.490 -14.079   6.842  1.00  0.00     0.236 C 
HETATM   22  N   UNL     1      43.139 -14.623   5.623  1.00  0.00    -0.351 N 
HETATM   23  H   UNL     1      43.200 -14.051   4.791  1.00  0.00     0.163 HD
HETATM   24  O   UNL     1      43.165 -14.596   7.908  1.00  0.00    -0.272 OA
BRANCH  22  25
HETATM   25  C   UNL     1      42.336 -15.842   5.550  1.00  0.00     0.113 C 
HETATM   26  C   UNL     1      40.892 -15.454   5.199  1.00  0.00     0.037 C 
BRANCH  25  27
HETATM   27  C   UNL     1      42.926 -16.880   4.596  1.00  0.00    -0.036 A 
HETATM   28  C   UNL     1      43.886 -17.819   5.012  1.00  0.00     0.009 A 
HETATM   29  C   UNL     1      44.391 -18.779   4.129  1.00  0.00     0.001 A 
HETATM   30  C   UNL     1      43.928 -18.836   2.818  1.00  0.00     0.000 A 
HETATM   31  C   UNL     1      42.952 -17.942   2.393  1.00  0.00     0.001 A 
HETATM   32  C   UNL     1      42.451 -16.980   3.276  1.00  0.00     0.009 A 
ENDBRANCH  25  27
ENDBRANCH  22  25
ENDBRANCH  20  21
ENDBRANCH   1  20
BRANCH   8  33
HETATM   33  C   UNL     1      40.794  -6.812  11.527  1.00  0.00     0.098 A 
HETATM   34  C   UNL     1      39.481  -7.119  11.134  1.00  0.00     0.086 A 
HETATM   35  C   UNL     1      38.470  -7.236  12.087  1.00  0.00     0.038 A 
HETATM   36  C   UNL     1      38.757  -7.020  13.431  1.00  0.00     0.005 A 
HETATM   37  C   UNL     1      40.064  -6.727  13.831  1.00  0.00     0.038 A 
HETATM   38  C   UNL     1      41.098  -6.636  12.889  1.00  0.00     0.086 A 
BRANCH  34  39
HETATM   39  O   UNL     1      39.167  -7.437   9.837  1.00  0.00    -0.355 OA
HETATM   40  C   UNL     1      38.550  -6.337   9.172  1.00  0.00     0.210 C 
ENDBRANCH  34  39
BRANCH  38  41
HETATM   41  O   UNL     1      42.406  -6.399  13.212  1.00  0.00    -0.355 OA
HETATM   42  C   UNL     1      43.118  -7.422  13.897  1.00  0.00     0.210 C 
ENDBRANCH  38  41
ENDBRANCH   8  33
TORSDOF 8
ENDMDL
MODEL 10
REMARK VINA RESULT:      -8.6      2.694      9.788
REMARK  8 active torsions:
REMARK  status: ('A' for Active; 'I' for Inactive)
REMARK    1  A    between atoms: C_2  and  N_3 
REMARK    2  A    between atoms: C_2  and  C_36 
REMARK       I    between atoms: N_3  and  C_4 
REMARK    3  A    between atoms: C_4  and  C_5 
REMARK    4  A    between atoms: C_5  and  N_6 
REMARK       I    between atoms: N_12  and  C_13 
REMARK    5  A    between atoms: C_13  and  C_14 
REMARK    6  A    between atoms: C_15  and  O_16 
REMARK    7  A    between atoms: C_21  and  O_22 
REMARK    8  A    between atoms: N_27  and  C_28 
ROOT
HETATM    1  N   UNL     1      43.544 -11.553   7.058  1.00  0.00    -0.325 N 
HETATM    2  C   UNL     1      43.864 -10.670   8.071  1.00  0.00     0.250 C 
HETATM    3  O   UNL     1      44.742 -10.836   8.906  1.00  0.00    -0.270 OA
HETATM    4  C   UNL     1      42.865  -9.496   8.001  1.00  0.00     0.118 C 
HETATM    5  C   UNL     1      43.651  -8.173   8.074  1.00  0.00     0.061 C 
HETATM    6  C   UNL     1      43.933  -7.729   9.504  1.00  0.00     0.129 C 
HETATM    7  N   UNL     1      42.752  -7.872  10.341  1.00  0.00    -0.348 N 
HETATM    8  C   UNL     1      41.953  -6.747  10.587  1.00  0.00     0.259 C 
HETATM    9  O   UNL     1      42.149  -5.654  10.061  1.00  0.00    -0.267 OA
HETATM   10  C   UNL     1      42.298  -9.247  10.480  1.00  0.00     0.129 C 
HETATM   11  C   UNL     1      41.834  -9.766   9.120  1.00  0.00     0.061 C 
HETATM   12  N   UNL     1      42.257  -9.700   6.655  1.00  0.00    -0.346 N 
HETATM   13  C   UNL     1      42.614 -11.004   6.115  1.00  0.00     0.254 C 
ENDROOT
BRANCH  12  14
HETATM   14  C   UNL     1      41.298  -8.926   6.025  1.00  0.00     0.032 A 
HETATM   15  C   UNL     1      39.968  -8.836   6.470  1.00  0.00     0.029 A 
HETATM   16  C   UNL     1      39.011  -8.032   5.834  1.00  0.00     0.002 A 
HETATM   17  C   UNL     1      39.357  -7.281   4.721  1.00  0.00     0.000 A 
HETATM   18  C   UNL     1      40.659  -7.339   4.247  1.00  0.00     0.002 A 
HETATM   19  C   UNL     1      41.606  -8.148   4.892  1.00  0.00     0.029 A 
ENDBRANCH  12  14
BRANCH   1  20
HETATM   20  C   UNL     1      44.319 -12.750   6.770  1.00  0.00     0.230 C 
BRANCH  20  21
HETATM   21  C   UNL     1      43.528 -14.066   6.854  1.00  0.00     0.236 C 
HETATM   22  N   UNL     1      43.182 -14.612   5.635  1.00  0.00    -0.351 N 
HETATM   23  H   UNL     1      43.257 -14.045   4.800  1.00  0.00     0.163 HD
HETATM   24  O   UNL     1      43.187 -14.573   7.920  1.00  0.00    -0.272 OA
BRANCH  22  25
HETATM   25  C   UNL     1      42.365 -15.822   5.560  1.00  0.00     0.113 C 
HETATM   26  C   UNL     1      40.930 -15.419   5.189  1.00  0.00     0.037 C 
BRANCH  25  27
HETATM   27  C   UNL     1      42.955 -16.874   4.622  1.00  0.00    -0.036 A 
HETATM   28  C   UNL     1      43.897 -17.822   5.058  1.00  0.00     0.009 A 
HETATM   29  C   UNL     1      44.402 -18.794   4.188  1.00  0.00     0.001 A 
HETATM   30  C   UNL     1      43.955 -18.856   2.872  1.00  0.00     0.000 A 
HETATM   31  C   UNL     1      42.996 -17.953   2.427  1.00  0.00     0.001 A 
HETATM   32  C   UNL     1      42.496 -16.978   3.297  1.00  0.00     0.009 A 
ENDBRANCH  25  27
ENDBRANCH  22  25
ENDBRANCH  20  21
ENDBRANCH   1  20
BRANCH   8  33
HETATM   33  C   UNL     1      40.897  -6.848  11.623  1.00  0.00     0.098 A 
HETATM   34  C   UNL     1      41.258  -6.623  12.962  1.00  0.00     0.086 A 
HETATM   35  C   UNL     1      40.297  -6.692  13.971  1.00  0.00     0.038 A 
HETATM   36  C   UNL     1      38.981  -7.011  13.653  1.00  0.00     0.005 A 
HETATM   37  C   UNL     1      38.612  -7.223  12.320  1.00  0.00     0.038 A 
HETATM   38  C   UNL     1      39.559  -7.127  11.292  1.00  0.00     0.086 A 
BRANCH  34  39
HETATM   39  O   UNL     1      42.516  -6.210  13.315  1.00  0.00    -0.355 OA
HETATM   40  C   UNL     1      43.159  -7.172  14.149  1.00  0.00     0.210 C 
ENDBRANCH  34  39
BRANCH  38  41
HETATM   41  O   UNL     1      39.262  -7.275   9.965  1.00  0.00    -0.355 OA
HETATM   42  C   UNL     1      38.591  -6.206   9.309  1.00  0.00     0.210 C 
ENDBRANCH  38  41
ENDBRANCH   8  33
TORSDOF 8
ENDMDL
