MODEL 1
REMARK VINA RESULT:      -7.4      0.000      0.000
REMARK  6 active torsions:
REMARK  status: ('A' for Active; 'I' for Inactive)
REMARK    1  A    between atoms: C_2  and  O_3 
REMARK    2  A    between atoms: O_3  and  C_4 
REMARK    3  A    between atoms: C_4  and  C_5 
REMARK    4  A    between atoms: C_6  and  O_7 
REMARK    5  A    between atoms: C_12  and  O_13 
REMARK    6  A    between atoms: C_17  and  C_18 
ROOT
HETATM    1  C   UNL     1      43.095 -15.398   5.580  1.00  0.00     0.133 C 
HETATM    2  C   UNL     1      43.625 -16.176   6.829  1.00  0.00     0.073 C 
HETATM    3  C   UNL     1      43.188 -15.554   8.165  1.00  0.00     0.047 C 
HETATM    4  C   UNL     1      43.249 -17.687   6.821  1.00  0.00     0.097 C 
HETATM    5  C   UNL     1      43.504 -18.249   5.473  1.00  0.00     0.042 A 
HETATM    6  C   UNL     1      43.568 -17.550   4.288  1.00  0.00     0.030 A 
HETATM    7  C   UNL     1      43.920 -18.540   3.354  1.00  0.00     0.190 A 
HETATM    8  N   UNL     1      44.043 -19.753   3.880  1.00  0.00    -0.149 NA
HETATM    9  N   UNL     1      43.793 -19.550   5.185  1.00  0.00    -0.279 N 
HETATM   10  H   UNL     1      43.859 -20.343   5.815  1.00  0.00     0.189 HD
HETATM   11  C   UNL     1      43.393 -16.070   4.203  1.00  0.00     0.074 C 
ENDROOT
BRANCH  11  12
HETATM   12  C   UNL     1      42.380 -15.803   3.095  1.00  0.00    -0.048 A 
HETATM   13  C   UNL     1      41.171 -16.522   2.984  1.00  0.00     0.011 A 
HETATM   14  C   UNL     1      40.263 -16.249   1.962  1.00  0.00     0.043 A 
HETATM   15  C   UNL     1      40.545 -15.245   1.048  1.00  0.00     0.116 A 
HETATM   16  F   UNL     1      39.672 -14.976   0.070  1.00  0.00    -0.206 F 
HETATM   17  C   UNL     1      41.721 -14.510   1.140  1.00  0.00     0.043 A 
HETATM   18  C   UNL     1      42.634 -14.784   2.161  1.00  0.00     0.011 A 
ENDBRANCH  11  12
BRANCH   1  19
HETATM   19  C   UNL     1      41.635 -15.027   5.757  1.00  0.00     0.267 C 
HETATM   20  O   UNL     1      40.741 -15.800   6.066  1.00  0.00    -0.265 OA
BRANCH  19  21
HETATM   21  O   UNL     1      41.490 -13.683   5.568  1.00  0.00    -0.316 OA
BRANCH  21  22
HETATM   22  C   UNL     1      40.149 -13.178   5.428  1.00  0.00     0.123 C 
HETATM   23  C   UNL     1      39.824 -12.991   3.953  1.00  0.00     0.040 C 
HETATM   24  C   UNL     1      40.106 -11.843   6.163  1.00  0.00     0.040 C 
ENDBRANCH  21  22
ENDBRANCH  19  21
ENDBRANCH   1  19
BRANCH   2  25
HETATM   25  O   UNL     1      45.069 -16.093   6.810  1.00  0.00    -0.389 OA
HETATM   26  H   UNL     1      45.330 -15.155   6.825  1.00  0.00     0.210 HD
ENDBRANCH   2  25
BRANCH   7  27
HETATM   27  O   UNL     1      44.140 -18.436   2.042  1.00  0.00    -0.343 OA
HETATM   28  H   UNL     1      43.311 -18.585   1.563  1.00  0.00     0.219 HD
ENDBRANCH   7  27
TORSDOF 6
ENDMDL
MODEL 2
REMARK VINA RESULT:      -7.3      2.632      4.880
REMARK  6 active torsions:
REMARK  status: ('A' for Active; 'I' for Inactive)
REMARK    1  A    between atoms: C_2  and  O_3 
REMARK    2  A    between atoms: O_3  and  C_4 
REMARK    3  A    between atoms: C_4  and  C_5 
REMARK    4  A    between atoms: C_6  and  O_7 
REMARK    5  A    between atoms: C_12  and  O_13 
REMARK    6  A    between atoms: C_17  and  C_18 
ROOT
HETATM    1  C   UNL     1      41.956 -16.372   5.140  1.00  0.00     0.133 C 
HETATM    2  C   UNL     1      42.658 -16.137   6.517  1.00  0.00     0.073 C 
HETATM    3  C   UNL     1      43.727 -17.193   6.843  1.00  0.00     0.047 C 
HETATM    4  C   UNL     1      43.281 -14.718   6.659  1.00  0.00     0.097 C 
HETATM    5  C   UNL     1      42.312 -13.705   6.176  1.00  0.00     0.042 A 
HETATM    6  C   UNL     1      41.273 -13.915   5.297  1.00  0.00     0.030 A 
HETATM    7  C   UNL     1      40.631 -12.665   5.258  1.00  0.00     0.190 A 
HETATM    8  N   UNL     1      41.214 -11.741   6.014  1.00  0.00    -0.149 NA
HETATM    9  N   UNL     1      42.239 -12.404   6.577  1.00  0.00    -0.279 N 
HETATM   10  H   UNL     1      42.829 -11.906   7.235  1.00  0.00     0.189 HD
HETATM   11  C   UNL     1      40.964 -15.249   4.700  1.00  0.00     0.074 C 
ENDROOT
BRANCH  11  12
HETATM   12  C   UNL     1      40.812 -15.040   3.197  1.00  0.00    -0.048 A 
HETATM   13  C   UNL     1      41.526 -14.047   2.493  1.00  0.00     0.011 A 
HETATM   14  C   UNL     1      41.368 -13.888   1.117  1.00  0.00     0.043 A 
HETATM   15  C   UNL     1      40.509 -14.728   0.426  1.00  0.00     0.116 A 
HETATM   16  F   UNL     1      40.361 -14.581  -0.896  1.00  0.00    -0.206 F 
HETATM   17  C   UNL     1      39.803 -15.725   1.090  1.00  0.00     0.043 A 
HETATM   18  C   UNL     1      39.956 -15.885   2.469  1.00  0.00     0.011 A 
ENDBRANCH  11  12
BRANCH   1  19
HETATM   19  C   UNL     1      42.972 -16.720   4.070  1.00  0.00     0.267 C 
HETATM   20  O   UNL     1      43.916 -16.019   3.736  1.00  0.00    -0.265 OA
BRANCH  19  21
HETATM   21  O   UNL     1      42.695 -17.962   3.578  1.00  0.00    -0.316 OA
BRANCH  21  22
HETATM   22  C   UNL     1      43.809 -18.761   3.138  1.00  0.00     0.123 C 
HETATM   23  C   UNL     1      43.341 -19.752   2.082  1.00  0.00     0.040 C 
HETATM   24  C   UNL     1      44.335 -19.493   4.368  1.00  0.00     0.040 C 
ENDBRANCH  21  22
ENDBRANCH  19  21
ENDBRANCH   1  19
BRANCH   2  25
HETATM   25  O   UNL     1      41.649 -16.268   7.546  1.00  0.00    -0.389 OA
HETATM   26  H   UNL     1      40.954 -16.872   7.230  1.00  0.00     0.210 HD
ENDBRANCH   2  25
BRANCH   7  27
HETATM   27  O   UNL     1      39.545 -12.282   4.584  1.00  0.00    -0.343 OA
HETATM   28  H   UNL     1      39.558 -11.320   4.471  1.00  0.00     0.219 HD
ENDBRANCH   7  27
TORSDOF 6
ENDMDL
MODEL 3
REMARK VINA RESULT:      -6.9      3.788      5.976
REMARK  6 active torsions:
REMARK  status: ('A' for Active; 'I' for Inactive)
REMARK    1  A    between atoms: C_2  and  O_3 
REMARK    2  A    between atoms: O_3  and  C_4 
REMARK    3  A    between atoms: C_4  and  C_5 
REMARK    4  A    between atoms: C_6  and  O_7 
REMARK    5  A    between atoms: C_12  and  O_13 
REMARK    6  A    between atoms: C_17  and  C_18 
ROOT
HETATM    1  C   UNL     1      42.989 -14.831   3.345  1.00  0.00     0.133 C 
HETATM    2  C   UNL     1      42.520 -15.688   2.123  1.00  0.00     0.073 C 
HETATM    3  C   UNL     1      42.388 -17.185   2.445  1.00  0.00     0.047 C 
HETATM    4  C   UNL     1      41.193 -15.182   1.486  1.00  0.00     0.097 C 
HETATM    5  C   UNL     1      41.249 -13.708   1.339  1.00  0.00     0.042 A 
HETATM    6  C   UNL     1      42.043 -12.840   2.054  1.00  0.00     0.030 A 
HETATM    7  C   UNL     1      41.771 -11.596   1.458  1.00  0.00     0.190 A 
HETATM    8  N   UNL     1      40.876 -11.656   0.480  1.00  0.00    -0.149 NA
HETATM    9  N   UNL     1      40.575 -12.965   0.416  1.00  0.00    -0.279 N 
HETATM   10  H   UNL     1      39.919 -13.273  -0.294  1.00  0.00     0.189 HD
HETATM   11  C   UNL     1      43.001 -13.288   3.108  1.00  0.00     0.074 C 
ENDROOT
BRANCH  11  12
HETATM   12  C   UNL     1      42.752 -12.420   4.337  1.00  0.00    -0.048 A 
HETATM   13  C   UNL     1      41.456 -12.047   4.751  1.00  0.00     0.011 A 
HETATM   14  C   UNL     1      41.263 -11.258   5.884  1.00  0.00     0.043 A 
HETATM   15  C   UNL     1      42.360 -10.843   6.623  1.00  0.00     0.116 A 
HETATM   16  F   UNL     1      42.176 -10.091   7.715  1.00  0.00    -0.206 F 
HETATM   17  C   UNL     1      43.648 -11.206   6.248  1.00  0.00     0.043 A 
HETATM   18  C   UNL     1      43.845 -11.994   5.111  1.00  0.00     0.011 A 
ENDBRANCH  11  12
BRANCH   1  19
HETATM   19  C   UNL     1      42.242 -15.233   4.602  1.00  0.00     0.267 C 
HETATM   20  O   UNL     1      41.027 -15.298   4.713  1.00  0.00    -0.265 OA
BRANCH  19  21
HETATM   21  O   UNL     1      43.144 -15.560   5.572  1.00  0.00    -0.316 OA
BRANCH  21  22
HETATM   22  C   UNL     1      42.654 -16.298   6.708  1.00  0.00     0.123 C 
HETATM   23  C   UNL     1      43.006 -15.555   7.989  1.00  0.00     0.040 C 
HETATM   24  C   UNL     1      43.333 -17.662   6.670  1.00  0.00     0.040 C 
ENDBRANCH  21  22
ENDBRANCH  19  21
ENDBRANCH   1  19
BRANCH   2  25
HETATM   25  O   UNL     1      43.547 -15.593   1.109  1.00  0.00    -0.389 OA
HETATM   26  H   UNL     1      43.596 -16.439   0.630  1.00  0.00     0.210 HD
ENDBRANCH   2  25
BRANCH   7  27
HETATM   27  O   UNL     1      42.272 -10.390   1.732  1.00  0.00    -0.343 OA
HETATM   28  H   UNL     1      43.206 -10.476   1.978  1.00  0.00     0.219 HD
ENDBRANCH   7  27
TORSDOF 6
ENDMDL
MODEL 4
REMARK VINA RESULT:      -6.8      3.026      5.018
REMARK  6 active torsions:
REMARK  status: ('A' for Active; 'I' for Inactive)
REMARK    1  A    between atoms: C_2  and  O_3 
REMARK    2  A    between atoms: O_3  and  C_4 
REMARK    3  A    between atoms: C_4  and  C_5 
REMARK    4  A    between atoms: C_6  and  O_7 
REMARK    5  A    between atoms: C_12  and  O_13 
REMARK    6  A    between atoms: C_17  and  C_18 
ROOT
HETATM    1  C   UNL     1      41.296 -14.420   4.444  1.00  0.00     0.133 C 
HETATM    2  C   UNL     1      41.043 -15.846   3.855  1.00  0.00     0.073 C 
HETATM    3  C   UNL     1      40.671 -15.831   2.363  1.00  0.00     0.047 C 
HETATM    4  C   UNL     1      42.232 -16.826   4.076  1.00  0.00     0.097 C 
HETATM    5  C   UNL     1      42.710 -16.712   5.474  1.00  0.00     0.042 A 
HETATM    6  C   UNL     1      42.542 -15.634   6.315  1.00  0.00     0.030 A 
HETATM    7  C   UNL     1      43.097 -16.085   7.526  1.00  0.00     0.190 A 
HETATM    8  N   UNL     1      43.593 -17.315   7.460  1.00  0.00    -0.149 NA
HETATM    9  N   UNL     1      43.336 -17.686   6.194  1.00  0.00    -0.279 N 
HETATM   10  H   UNL     1      43.600 -18.622   5.904  1.00  0.00     0.189 HD
HETATM   11  C   UNL     1      41.815 -14.392   5.917  1.00  0.00     0.074 C 
ENDROOT
BRANCH  11  12
HETATM   12  C   UNL     1      42.707 -13.213   6.291  1.00  0.00    -0.048 A 
HETATM   13  C   UNL     1      44.112 -13.317   6.355  1.00  0.00     0.011 A 
HETATM   14  C   UNL     1      44.899 -12.217   6.694  1.00  0.00     0.043 A 
HETATM   15  C   UNL     1      44.292 -10.999   6.959  1.00  0.00     0.116 A 
HETATM   16  F   UNL     1      45.046  -9.939   7.278  1.00  0.00    -0.206 F 
HETATM   17  C   UNL     1      42.911 -10.862   6.890  1.00  0.00     0.043 A 
HETATM   18  C   UNL     1      42.120 -11.963   6.554  1.00  0.00     0.011 A 
ENDBRANCH  11  12
BRANCH   1  19
HETATM   19  C   UNL     1      42.145 -13.591   3.501  1.00  0.00     0.267 C 
HETATM   20  O   UNL     1      43.203 -13.945   3.003  1.00  0.00    -0.265 OA
BRANCH  19  21
HETATM   21  O   UNL     1      41.512 -12.407   3.254  1.00  0.00    -0.316 OA
BRANCH  21  22
HETATM   22  C   UNL     1      40.072 -12.417   3.245  1.00  0.00     0.123 C 
HETATM   23  C   UNL     1      39.570 -12.390   1.809  1.00  0.00     0.040 C 
HETATM   24  C   UNL     1      39.621 -11.171   3.998  1.00  0.00     0.040 C 
ENDBRANCH  21  22
ENDBRANCH  19  21
ENDBRANCH   1  19
BRANCH   2  25
HETATM   25  O   UNL     1      39.896 -16.401   4.541  1.00  0.00    -0.389 OA
HETATM   26  H   UNL     1      39.318 -15.672   4.828  1.00  0.00     0.210 HD
ENDBRANCH   2  25
BRANCH   7  27
HETATM   27  O   UNL     1      43.195 -15.467   8.704  1.00  0.00    -0.343 OA
HETATM   28  H   UNL     1      42.676 -15.949   9.365  1.00  0.00     0.219 HD
ENDBRANCH   7  27
TORSDOF 6
ENDMDL
MODEL 5
REMARK VINA RESULT:      -6.4     14.055     16.132
REMARK  6 active torsions:
REMARK  status: ('A' for Active; 'I' for Inactive)
REMARK    1  A    between atoms: C_2  and  O_3 
REMARK    2  A    between atoms: O_3  and  C_4 
REMARK    3  A    between atoms: C_4  and  C_5 
REMARK    4  A    between atoms: C_6  and  O_7 
REMARK    5  A    between atoms: C_12  and  O_13 
REMARK    6  A    between atoms: C_17  and  C_18 
ROOT
HETATM    1  C   UNL     1      46.692 -29.079  -0.751  1.00  0.00     0.133 C 
HETATM    2  C   UNL     1      45.572 -29.241  -1.830  1.00  0.00     0.073 C 
HETATM    3  C   UNL     1      46.112 -29.644  -3.212  1.00  0.00     0.047 C 
HETATM    4  C   UNL     1      44.449 -30.235  -1.410  1.00  0.00     0.097 C 
HETATM    5  C   UNL     1      44.050 -29.961  -0.009  1.00  0.00     0.042 A 
HETATM    6  C   UNL     1      44.807 -29.332   0.954  1.00  0.00     0.030 A 
HETATM    7  C   UNL     1      43.929 -29.255   2.049  1.00  0.00     0.190 A 
HETATM    8  N   UNL     1      42.740 -29.803   1.821  1.00  0.00    -0.149 NA
HETATM    9  N   UNL     1      42.832 -30.221   0.546  1.00  0.00    -0.279 N 
HETATM   10  H   UNL     1      42.019 -30.655   0.124  1.00  0.00     0.189 HD
HETATM   11  C   UNL     1      46.183 -28.810   0.700  1.00  0.00     0.074 C 
ENDROOT
BRANCH  11  12
HETATM   12  C   UNL     1      47.071 -29.324   1.828  1.00  0.00    -0.048 A 
HETATM   13  C   UNL     1      47.053 -30.669   2.253  1.00  0.00     0.011 A 
HETATM   14  C   UNL     1      47.883 -31.108   3.284  1.00  0.00     0.043 A 
HETATM   15  C   UNL     1      48.750 -30.213   3.891  1.00  0.00     0.116 A 
HETATM   16  F   UNL     1      49.554 -30.634   4.875  1.00  0.00    -0.206 F 
HETATM   17  C   UNL     1      48.801 -28.885   3.483  1.00  0.00     0.043 A 
HETATM   18  C   UNL     1      47.968 -28.441   2.454  1.00  0.00     0.011 A 
ENDBRANCH  11  12
BRANCH   1  19
HETATM   19  C   UNL     1      47.685 -30.221  -0.830  1.00  0.00     0.267 C 
HETATM   20  O   UNL     1      47.398 -31.409  -0.852  1.00  0.00    -0.265 OA
BRANCH  19  21
HETATM   21  O   UNL     1      48.947 -29.711  -0.925  1.00  0.00    -0.316 OA
BRANCH  21  22
HETATM   22  C   UNL     1      50.045 -30.629  -0.762  1.00  0.00     0.123 C 
HETATM   23  C   UNL     1      50.719 -30.385   0.581  1.00  0.00     0.040 C 
HETATM   24  C   UNL     1      51.014 -30.361  -1.908  1.00  0.00     0.040 C 
ENDBRANCH  21  22
ENDBRANCH  19  21
ENDBRANCH   1  19
BRANCH   2  25
HETATM   25  O   UNL     1      44.954 -27.946  -2.012  1.00  0.00    -0.389 OA
HETATM   26  H   UNL     1      44.373 -27.765  -1.252  1.00  0.00     0.210 HD
ENDBRANCH   2  25
BRANCH   7  27
HETATM   27  O   UNL     1      44.116 -28.725   3.259  1.00  0.00    -0.343 OA
HETATM   28  H   UNL     1      44.734 -29.277   3.761  1.00  0.00     0.219 HD
ENDBRANCH   7  27
TORSDOF 6
ENDMDL
MODEL 6
REMARK VINA RESULT:      -6.4      9.291     11.230
REMARK  6 active torsions:
REMARK  status: ('A' for Active; 'I' for Inactive)
REMARK    1  A    between atoms: C_2  and  O_3 
REMARK    2  A    between atoms: O_3  and  C_4 
REMARK    3  A    between atoms: C_4  and  C_5 
REMARK    4  A    between atoms: C_6  and  O_7 
REMARK    5  A    between atoms: C_12  and  O_13 
REMARK    6  A    between atoms: C_17  and  C_18 
ROOT
HETATM    1  C   UNL     1      41.667  -7.846   9.765  1.00  0.00     0.133 C 
HETATM    2  C   UNL     1      42.383  -7.832   8.374  1.00  0.00     0.073 C 
HETATM    3  C   UNL     1      42.056  -6.586   7.535  1.00  0.00     0.047 C 
HETATM    4  C   UNL     1      43.928  -7.992   8.473  1.00  0.00     0.097 C 
HETATM    5  C   UNL     1      44.249  -9.082   9.425  1.00  0.00     0.042 A 
HETATM    6  C   UNL     1      43.443  -9.556  10.436  1.00  0.00     0.030 A 
HETATM    7  C   UNL     1      44.185 -10.630  10.958  1.00  0.00     0.190 A 
HETATM    8  N   UNL     1      45.357 -10.810  10.361  1.00  0.00    -0.149 NA
HETATM    9  N   UNL     1      45.373  -9.854   9.415  1.00  0.00    -0.279 N 
HETATM   10  H   UNL     1      46.173  -9.808   8.793  1.00  0.00     0.189 HD
HETATM   11  C   UNL     1      42.077  -9.019  10.711  1.00  0.00     0.074 C 
ENDROOT
BRANCH  11  12
HETATM   12  C   UNL     1      42.003  -8.731  12.206  1.00  0.00    -0.048 A 
HETATM   13  C   UNL     1      42.987  -7.980  12.883  1.00  0.00     0.011 A 
HETATM   14  C   UNL     1      42.886  -7.729  14.250  1.00  0.00     0.043 A 
HETATM   15  C   UNL     1      41.793  -8.212  14.954  1.00  0.00     0.116 A 
HETATM   16  F   UNL     1      41.690  -7.965  16.266  1.00  0.00    -0.206 F 
HETATM   17  C   UNL     1      40.800  -8.942  14.312  1.00  0.00     0.043 A 
HETATM   18  C   UNL     1      40.901  -9.198  12.943  1.00  0.00     0.011 A 
ENDBRANCH  11  12
BRANCH   1  19
HETATM   19  C   UNL     1      41.757  -6.488  10.431  1.00  0.00     0.267 C 
HETATM   20  O   UNL     1      42.762  -5.796  10.497  1.00  0.00    -0.265 OA
BRANCH  19  21
HETATM   21  O   UNL     1      40.523  -6.137  10.897  1.00  0.00    -0.316 OA
BRANCH  21  22
HETATM   22  C   UNL     1      39.379  -6.665  10.201  1.00  0.00     0.123 C 
HETATM   23  C   UNL     1      38.780  -5.585   9.310  1.00  0.00     0.040 C 
HETATM   24  C   UNL     1      38.380  -7.100  11.267  1.00  0.00     0.040 C 
ENDBRANCH  21  22
ENDBRANCH  19  21
ENDBRANCH   1  19
BRANCH   2  25
HETATM   25  O   UNL     1      41.882  -8.959   7.617  1.00  0.00    -0.389 OA
HETATM   26  H   UNL     1      42.635  -9.436   7.227  1.00  0.00     0.210 HD
ENDBRANCH   2  25
BRANCH   7  27
HETATM   27  O   UNL     1      43.886 -11.474  11.947  1.00  0.00    -0.343 OA
HETATM   28  H   UNL     1      43.803 -12.371  11.591  1.00  0.00     0.219 HD
ENDBRANCH   7  27
TORSDOF 6
ENDMDL
MODEL 7
REMARK VINA RESULT:      -6.4      3.516      5.675
REMARK  6 active torsions:
REMARK  status: ('A' for Active; 'I' for Inactive)
REMARK    1  A    between atoms: C_2  and  O_3 
REMARK    2  A    between atoms: O_3  and  C_4 
REMARK    3  A    between atoms: C_4  and  C_5 
REMARK    4  A    between atoms: C_6  and  O_7 
REMARK    5  A    between atoms: C_12  and  O_13 
REMARK    6  A    between atoms: C_17  and  C_18 
ROOT
HETATM    1  C   UNL     1      40.957 -14.333   4.596  1.00  0.00     0.133 C 
HETATM    2  C   UNL     1      41.257 -13.681   5.986  1.00  0.00     0.073 C 
HETATM    3  C   UNL     1      42.368 -14.400   6.768  1.00  0.00     0.047 C 
HETATM    4  C   UNL     1      41.594 -12.164   5.897  1.00  0.00     0.097 C 
HETATM    5  C   UNL     1      40.624 -11.497   4.996  1.00  0.00     0.042 A 
HETATM    6  C   UNL     1      39.876 -12.095   4.005  1.00  0.00     0.030 A 
HETATM    7  C   UNL     1      39.074 -11.042   3.533  1.00  0.00     0.190 A 
HETATM    8  N   UNL     1      39.302  -9.882   4.140  1.00  0.00    -0.149 NA
HETATM    9  N   UNL     1      40.251 -10.187   5.042  1.00  0.00    -0.279 N 
HETATM   10  H   UNL     1      40.576  -9.453   5.663  1.00  0.00     0.189 HD
HETATM   11  C   UNL     1      39.938 -13.556   3.704  1.00  0.00     0.074 C 
ENDROOT
BRANCH  11  12
HETATM   12  C   UNL     1      40.125 -13.694   2.197  1.00  0.00    -0.048 A 
HETATM   13  C   UNL     1      40.750 -12.699   1.417  1.00  0.00     0.011 A 
HETATM   14  C   UNL     1      40.911 -12.859   0.041  1.00  0.00     0.043 A 
HETATM   15  C   UNL     1      40.463 -14.022  -0.567  1.00  0.00     0.116 A 
HETATM   16  F   UNL     1      40.624 -14.182  -1.887  1.00  0.00    -0.206 F 
HETATM   17  C   UNL     1      39.857 -15.027   0.177  1.00  0.00     0.043 A 
HETATM   18  C   UNL     1      39.691 -14.867   1.555  1.00  0.00     0.011 A 
ENDBRANCH  11  12
BRANCH   1  19
HETATM   19  C   UNL     1      42.245 -14.669   3.870  1.00  0.00     0.267 C 
HETATM   20  O   UNL     1      43.136 -13.876   3.604  1.00  0.00    -0.265 OA
BRANCH  19  21
HETATM   21  O   UNL     1      42.274 -16.008   3.610  1.00  0.00    -0.316 OA
BRANCH  21  22
HETATM   22  C   UNL     1      43.362 -16.501   2.806  1.00  0.00     0.123 C 
HETATM   23  C   UNL     1      43.192 -16.028   1.369  1.00  0.00     0.040 C 
HETATM   24  C   UNL     1      43.309 -18.023   2.882  1.00  0.00     0.040 C 
ENDBRANCH  21  22
ENDBRANCH  19  21
ENDBRANCH   1  19
BRANCH   2  25
HETATM   25  O   UNL     1      40.062 -13.810   6.791  1.00  0.00    -0.389 OA
HETATM   26  H   UNL     1      40.202 -14.511   7.452  1.00  0.00     0.210 HD
ENDBRANCH   2  25
BRANCH   7  27
HETATM   27  O   UNL     1      38.138 -11.041   2.582  1.00  0.00    -0.343 OA
HETATM   28  H   UNL     1      38.210 -10.228   2.059  1.00  0.00     0.219 HD
ENDBRANCH   7  27
TORSDOF 6
ENDMDL
MODEL 8
REMARK VINA RESULT:      -6.4     14.131     15.006
REMARK  6 active torsions:
REMARK  status: ('A' for Active; 'I' for Inactive)
REMARK    1  A    between atoms: C_2  and  O_3 
REMARK    2  A    between atoms: O_3  and  C_4 
REMARK    3  A    between atoms: C_4  and  C_5 
REMARK    4  A    between atoms: C_6  and  O_7 
REMARK    5  A    between atoms: C_12  and  O_13 
REMARK    6  A    between atoms: C_17  and  C_18 
ROOT
HETATM    1  C   UNL     1      46.891 -29.113   2.111  1.00  0.00     0.133 C 
HETATM    2  C   UNL     1      48.033 -29.524   3.097  1.00  0.00     0.073 C 
HETATM    3  C   UNL     1      47.520 -29.909   4.495  1.00  0.00     0.047 C 
HETATM    4  C   UNL     1      48.939 -30.665   2.552  1.00  0.00     0.097 C 
HETATM    5  C   UNL     1      49.290 -30.383   1.140  1.00  0.00     0.042 A 
HETATM    6  C   UNL     1      48.593 -29.581   0.264  1.00  0.00     0.030 A 
HETATM    7  C   UNL     1      49.401 -29.590  -0.887  1.00  0.00     0.190 A 
HETATM    8  N   UNL     1      50.490 -30.341  -0.770  1.00  0.00    -0.149 NA
HETATM    9  N   UNL     1      50.408 -30.811   0.487  1.00  0.00    -0.279 N 
HETATM   10  H   UNL     1      51.160 -31.399   0.829  1.00  0.00     0.189 HD
HETATM   11  C   UNL     1      47.346 -28.851   0.640  1.00  0.00     0.074 C 
ENDROOT
BRANCH  11  12
HETATM   12  C   UNL     1      46.314 -29.143  -0.443  1.00  0.00    -0.048 A 
HETATM   13  C   UNL     1      46.021 -30.453  -0.878  1.00  0.00     0.011 A 
HETATM   14  C   UNL     1      45.066 -30.686  -1.867  1.00  0.00     0.043 A 
HETATM   15  C   UNL     1      44.382 -29.615  -2.421  1.00  0.00     0.116 A 
HETATM   16  F   UNL     1      43.459 -29.837  -3.366  1.00  0.00    -0.206 F 
HETATM   17  C   UNL     1      44.638 -28.314  -2.003  1.00  0.00     0.043 A 
HETATM   18  C   UNL     1      45.597 -28.077  -1.015  1.00  0.00     0.011 A 
ENDBRANCH  11  12
BRANCH   1  19
HETATM   19  C   UNL     1      45.723 -30.075   2.208  1.00  0.00     0.267 C 
HETATM   20  O   UNL     1      45.804 -31.294   2.155  1.00  0.00    -0.265 OA
BRANCH  19  21
HETATM   21  O   UNL     1      44.576 -29.367   2.416  1.00  0.00    -0.316 OA
BRANCH  21  22
HETATM   22  C   UNL     1      43.337 -29.984   2.019  1.00  0.00     0.123 C 
HETATM   23  C   UNL     1      42.653 -29.126   0.965  1.00  0.00     0.040 C 
HETATM   24  C   UNL     1      42.477 -30.085   3.274  1.00  0.00     0.040 C 
ENDBRANCH  21  22
ENDBRANCH  19  21
ENDBRANCH   1  19
BRANCH   2  25
HETATM   25  O   UNL     1      48.874 -28.363   3.293  1.00  0.00    -0.389 OA
HETATM   26  H   UNL     1      49.423 -28.235   2.500  1.00  0.00     0.210 HD
ENDBRANCH   2  25
BRANCH   7  27
HETATM   27  O   UNL     1      49.231 -28.967  -2.054  1.00  0.00    -0.343 OA
HETATM   28  H   UNL     1      49.943 -28.322  -2.182  1.00  0.00     0.219 HD
ENDBRANCH   7  27
TORSDOF 6
ENDMDL
MODEL 9
REMARK VINA RESULT:      -6.4      3.503      5.759
REMARK  6 active torsions:
REMARK  status: ('A' for Active; 'I' for Inactive)
REMARK    1  A    between atoms: C_2  and  O_3 
REMARK    2  A    between atoms: O_3  and  C_4 
REMARK    3  A    between atoms: C_4  and  C_5 
REMARK    4  A    between atoms: C_6  and  O_7 
REMARK    5  A    between atoms: C_12  and  O_13 
REMARK    6  A    between atoms: C_17  and  C_18 
ROOT
HETATM    1  C   UNL     1      41.627 -12.265   2.056  1.00  0.00     0.133 C 
HETATM    2  C   UNL     1      41.047 -10.950   2.673  1.00  0.00     0.073 C 
HETATM    3  C   UNL     1      40.056 -10.229   1.745  1.00  0.00     0.047 C 
HETATM    4  C   UNL     1      40.384 -11.161   4.066  1.00  0.00     0.097 C 
HETATM    5  C   UNL     1      41.262 -12.010   4.905  1.00  0.00     0.042 A 
HETATM    6  C   UNL     1      42.223 -12.891   4.461  1.00  0.00     0.030 A 
HETATM    7  C   UNL     1      42.808 -13.352   5.653  1.00  0.00     0.190 A 
HETATM    8  N   UNL     1      42.261 -12.839   6.750  1.00  0.00    -0.149 NA
HETATM    9  N   UNL     1      41.320 -12.010   6.267  1.00  0.00    -0.279 N 
HETATM   10  H   UNL     1      40.775 -11.466   6.928  1.00  0.00     0.189 HD
HETATM   11  C   UNL     1      42.528 -13.107   3.015  1.00  0.00     0.074 C 
ENDROOT
BRANCH  11  12
HETATM   12  C   UNL     1      42.531 -14.614   2.780  1.00  0.00    -0.048 A 
HETATM   13  C   UNL     1      43.407 -15.236   1.866  1.00  0.00     0.011 A 
HETATM   14  C   UNL     1      43.388 -16.618   1.680  1.00  0.00     0.043 A 
HETATM   15  C   UNL     1      42.505 -17.394   2.414  1.00  0.00     0.116 A 
HETATM   16  F   UNL     1      42.489 -18.722   2.242  1.00  0.00    -0.206 F 
HETATM   17  C   UNL     1      41.639 -16.811   3.332  1.00  0.00     0.043 A 
HETATM   18  C   UNL     1      41.653 -15.427   3.518  1.00  0.00     0.011 A 
ENDBRANCH  11  12
BRANCH   1  19
HETATM   19  C   UNL     1      40.531 -13.082   1.402  1.00  0.00     0.267 C 
HETATM   20  O   UNL     1      39.483 -13.417   1.934  1.00  0.00    -0.265 OA
BRANCH  19  21
HETATM   21  O   UNL     1      40.878 -13.339   0.107  1.00  0.00    -0.316 OA
BRANCH  21  22
HETATM   22  C   UNL     1      39.883 -13.091  -0.904  1.00  0.00     0.123 C 
HETATM   23  C   UNL     1      39.411 -14.414  -1.491  1.00  0.00     0.040 C 
HETATM   24  C   UNL     1      40.549 -12.234  -1.974  1.00  0.00     0.040 C 
ENDBRANCH  21  22
ENDBRANCH  19  21
ENDBRANCH   1  19
BRANCH   2  25
HETATM   25  O   UNL     1      42.152 -10.034   2.857  1.00  0.00    -0.389 OA
HETATM   26  H   UNL     1      41.963  -9.212   2.370  1.00  0.00     0.210 HD
ENDBRANCH   2  25
BRANCH   7  27
HETATM   27  O   UNL     1      43.811 -14.213   5.836  1.00  0.00    -0.343 OA
HETATM   28  H   UNL     1      43.523 -15.102   5.579  1.00  0.00     0.219 HD
ENDBRANCH   7  27
TORSDOF 6
ENDMDL
MODEL 10
REMARK VINA RESULT:      -6.1      3.150      5.279
REMARK  6 active torsions:
REMARK  status: ('A' for Active; 'I' for Inactive)
REMARK    1  A    between atoms: C_2  and  O_3 
REMARK    2  A    between atoms: O_3  and  C_4 
REMARK    3  A    between atoms: C_4  and  C_5 
REMARK    4  A    between atoms: C_6  and  O_7 
REMARK    5  A    between atoms: C_12  and  O_13 
REMARK    6  A    between atoms: C_17  and  C_18 
ROOT
HETATM    1  C   UNL     1      40.632 -13.952   3.160  1.00  0.00     0.133 C 
HETATM    2  C   UNL     1      40.495 -15.271   2.331  1.00  0.00     0.073 C 
HETATM    3  C   UNL     1      40.276 -15.027   0.829  1.00  0.00     0.047 C 
HETATM    4  C   UNL     1      41.692 -16.248   2.521  1.00  0.00     0.097 C 
HETATM    5  C   UNL     1      42.020 -16.348   3.963  1.00  0.00     0.042 A 
HETATM    6  C   UNL     1      41.726 -15.422   4.940  1.00  0.00     0.030 A 
HETATM    7  C   UNL     1      42.172 -16.048   6.117  1.00  0.00     0.190 A 
HETATM    8  N   UNL     1      42.720 -17.241   5.913  1.00  0.00    -0.149 NA
HETATM    9  N   UNL     1      42.607 -17.410   4.584  1.00  0.00    -0.279 N 
HETATM   10  H   UNL     1      42.935 -18.282   4.182  1.00  0.00     0.189 HD
HETATM   11  C   UNL     1      40.996 -14.148   4.665  1.00  0.00     0.074 C 
ENDROOT
BRANCH  11  12
HETATM   12  C   UNL     1      41.799 -13.025   5.312  1.00  0.00    -0.048 A 
HETATM   13  C   UNL     1      41.188 -11.918   5.936  1.00  0.00     0.011 A 
HETATM   14  C   UNL     1      41.952 -10.910   6.523  1.00  0.00     0.043 A 
HETATM   15  C   UNL     1      43.335 -11.006   6.507  1.00  0.00     0.116 A 
HETATM   16  F   UNL     1      44.071 -10.043   7.078  1.00  0.00    -0.206 F 
HETATM   17  C   UNL     1      43.967 -12.092   5.914  1.00  0.00     0.043 A 
HETATM   18  C   UNL     1      43.203 -13.101   5.321  1.00  0.00     0.011 A 
ENDBRANCH  11  12
BRANCH   1  19
HETATM   19  C   UNL     1      41.540 -12.964   2.453  1.00  0.00     0.267 C 
HETATM   20  O   UNL     1      42.683 -13.191   2.086  1.00  0.00    -0.265 OA
BRANCH  19  21
HETATM   21  O   UNL     1      40.858 -11.801   2.246  1.00  0.00    -0.316 OA
BRANCH  21  22
HETATM   22  C   UNL     1      41.631 -10.588   2.168  1.00  0.00     0.123 C 
HETATM   23  C   UNL     1      41.057  -9.554   3.127  1.00  0.00     0.040 C 
HETATM   24  C   UNL     1      41.534 -10.099   0.728  1.00  0.00     0.040 C 
ENDBRANCH  21  22
ENDBRANCH  19  21
ENDBRANCH   1  19
BRANCH   2  25
HETATM   25  O   UNL     1      39.306 -15.953   2.795  1.00  0.00    -0.389 OA
HETATM   26  H   UNL     1      38.638 -15.939   2.087  1.00  0.00     0.210 HD
ENDBRANCH   2  25
BRANCH   7  27
HETATM   27  O   UNL     1      42.126 -15.623   7.381  1.00  0.00    -0.343 OA
HETATM   28  H   UNL     1      42.432 -14.705   7.423  1.00  0.00     0.219 HD
ENDBRANCH   7  27
TORSDOF 6
ENDMDL
