MODEL 1
REMARK VINA RESULT:      -7.3      0.000      0.000
REMARK  7 active torsions:
REMARK  status: ('A' for Active; 'I' for Inactive)
REMARK    1  A    between atoms: C_5  and  N_6 
REMARK    2  A    between atoms: N_6  and  C_9 
REMARK    3  A    between atoms: C_9  and  C_10 
REMARK    4  A    between atoms: C_10  and  C_11 
REMARK    5  A    between atoms: C_10  and  C_13 
REMARK    6  A    between atoms: C_11  and  O_12 
REMARK    7  A    between atoms: C_13  and  C_14 
ROOT
HETATM    1  N   UNL     1      40.640 -15.273   1.597  1.00  0.00    -0.066 N 
HETATM    2  H   UNL     1      40.314 -15.535   0.647  1.00  0.00     0.278 HD
HETATM    3  H   UNL     1      39.781 -15.083   2.148  1.00  0.00     0.278 HD
ENDROOT
BRANCH   1   4
HETATM    4  C   UNL     1      41.350 -16.436   2.166  1.00  0.00     0.220 C 
HETATM    5  C   UNL     1      41.375 -16.429   3.667  1.00  0.00    -0.021 A 
HETATM    6  C   UNL     1      42.648 -16.787   4.146  1.00  0.00    -0.040 A 
HETATM    7  C   UNL     1      40.335 -16.150   4.543  1.00  0.00     0.010 A 
HETATM    8  C   UNL     1      42.921 -16.831   5.511  1.00  0.00    -0.055 A 
HETATM    9  C   UNL     1      43.576 -17.101   3.002  1.00  0.00     0.018 C 
HETATM   10  C   UNL     1      44.264 -17.223   6.052  1.00  0.00     0.049 C 
HETATM   11  C   UNL     1      41.867 -16.542   6.390  1.00  0.00     0.007 A 
HETATM   12  C   UNL     1      40.591 -16.206   5.913  1.00  0.00     0.001 A 
HETATM   13  C   UNL     1      42.855 -16.383   1.845  1.00  0.00     0.047 C 
HETATM   14  C   UNL     1      43.706 -18.601   2.763  1.00  0.00     0.015 C 
ENDBRANCH   1   4
BRANCH   1  15
HETATM   15  C   UNL     1      41.379 -13.992   1.444  1.00  0.00     0.240 C 
BRANCH  15  16
HETATM   16  C   UNL     1      41.182 -13.104   2.690  1.00  0.00     0.040 C 
BRANCH  16  17
HETATM   17  C   UNL     1      39.802 -12.426   2.639  1.00  0.00     0.170 C 
BRANCH  17  18
HETATM   18  O   UNL     1      38.786 -13.414   2.817  1.00  0.00    -0.400 OA
HETATM   19  H   UNL     1      39.172 -14.264   2.518  1.00  0.00     0.209 HD
ENDBRANCH  17  18
ENDBRANCH  16  17
BRANCH  16  20
HETATM   20  C   UNL     1      42.269 -12.021   2.886  1.00  0.00     0.067 C 
BRANCH  20  21
HETATM   21  C   UNL     1      43.018 -12.156   4.184  1.00  0.00     0.034 A 
HETATM   22  N   UNL     1      44.035 -11.269   4.379  1.00  0.00    -0.266 NA
HETATM   23  C   UNL     1      44.713 -11.377   5.549  1.00  0.00     0.117 A 
HETATM   24  C   UNL     1      44.452 -12.341   6.509  1.00  0.00     0.019 A 
HETATM   25  C   UNL     1      43.426 -13.247   6.272  1.00  0.00     0.003 A 
HETATM   26  C   UNL     1      42.694 -13.157   5.092  1.00  0.00     0.027 A 
ENDBRANCH  20  21
ENDBRANCH  16  20
ENDBRANCH  15  16
ENDBRANCH   1  15
TORSDOF 7
ENDMDL
MODEL 2
REMARK VINA RESULT:      -7.3      1.586      2.045
REMARK  7 active torsions:
REMARK  status: ('A' for Active; 'I' for Inactive)
REMARK    1  A    between atoms: C_5  and  N_6 
REMARK    2  A    between atoms: N_6  and  C_9 
REMARK    3  A    between atoms: C_9  and  C_10 
REMARK    4  A    between atoms: C_10  and  C_11 
REMARK    5  A    between atoms: C_10  and  C_13 
REMARK    6  A    between atoms: C_11  and  O_12 
REMARK    7  A    between atoms: C_13  and  C_14 
ROOT
HETATM    1  N   UNL     1      40.030 -15.708   2.224  1.00  0.00    -0.066 N 
HETATM    2  H   UNL     1      39.100 -16.168   2.255  1.00  0.00     0.278 HD
HETATM    3  H   UNL     1      39.959 -14.886   2.855  1.00  0.00     0.278 HD
ENDROOT
BRANCH   1   4
HETATM    4  C   UNL     1      41.022 -16.661   2.757  1.00  0.00     0.220 C 
HETATM    5  C   UNL     1      41.324 -16.439   4.211  1.00  0.00    -0.021 A 
HETATM    6  C   UNL     1      42.707 -16.534   4.453  1.00  0.00    -0.040 A 
HETATM    7  C   UNL     1      40.433 -16.196   5.247  1.00  0.00     0.010 A 
HETATM    8  C   UNL     1      43.232 -16.345   5.729  1.00  0.00    -0.055 A 
HETATM    9  C   UNL     1      43.446 -16.867   3.184  1.00  0.00     0.018 C 
HETATM   10  C   UNL     1      44.699 -16.455   6.021  1.00  0.00     0.049 C 
HETATM   11  C   UNL     1      42.326 -16.093   6.770  1.00  0.00     0.007 A 
HETATM   12  C   UNL     1      40.946 -16.019   6.533  1.00  0.00     0.001 A 
HETATM   13  C   UNL     1      42.410 -16.433   2.129  1.00  0.00     0.047 C 
HETATM   14  C   UNL     1      43.786 -18.349   3.088  1.00  0.00     0.015 C 
ENDBRANCH   1   4
BRANCH   1  15
HETATM   15  C   UNL     1      40.199 -15.205   0.835  1.00  0.00     0.240 C 
BRANCH  15  16
HETATM   16  C   UNL     1      40.102 -13.665   0.803  1.00  0.00     0.040 C 
BRANCH  16  17
HETATM   17  C   UNL     1      39.611 -13.199  -0.578  1.00  0.00     0.170 C 
BRANCH  17  18
HETATM   18  O   UNL     1      38.699 -14.164  -1.104  1.00  0.00    -0.400 OA
HETATM   19  H   UNL     1      37.924 -13.661  -1.433  1.00  0.00     0.209 HD
ENDBRANCH  17  18
ENDBRANCH  16  17
BRANCH  16  20
HETATM   20  C   UNL     1      41.419 -12.931   1.144  1.00  0.00     0.067 C 
BRANCH  20  21
HETATM   21  C   UNL     1      41.695 -12.856   2.621  1.00  0.00     0.034 A 
HETATM   22  N   UNL     1      40.605 -12.690   3.423  1.00  0.00    -0.266 NA
HETATM   23  C   UNL     1      40.841 -12.628   4.757  1.00  0.00     0.117 A 
HETATM   24  C   UNL     1      42.104 -12.684   5.323  1.00  0.00     0.019 A 
HETATM   25  C   UNL     1      43.199 -12.828   4.480  1.00  0.00     0.003 A 
HETATM   26  C   UNL     1      42.997 -12.916   3.106  1.00  0.00     0.027 A 
ENDBRANCH  20  21
ENDBRANCH  16  20
ENDBRANCH  15  16
ENDBRANCH   1  15
TORSDOF 7
ENDMDL
MODEL 3
REMARK VINA RESULT:      -7.2      2.636      4.132
REMARK  7 active torsions:
REMARK  status: ('A' for Active; 'I' for Inactive)
REMARK    1  A    between atoms: C_5  and  N_6 
REMARK    2  A    between atoms: N_6  and  C_9 
REMARK    3  A    between atoms: C_9  and  C_10 
REMARK    4  A    between atoms: C_10  and  C_11 
REMARK    5  A    between atoms: C_10  and  C_13 
REMARK    6  A    between atoms: C_11  and  O_12 
REMARK    7  A    between atoms: C_13  and  C_14 
ROOT
HETATM    1  N   UNL     1      43.933 -15.625   5.934  1.00  0.00    -0.066 N 
HETATM    2  H   UNL     1      44.651 -16.284   6.293  1.00  0.00     0.278 HD
HETATM    3  H   UNL     1      44.460 -14.867   5.457  1.00  0.00     0.278 HD
ENDROOT
BRANCH   1   4
HETATM    4  C   UNL     1      43.107 -16.351   4.949  1.00  0.00     0.220 C 
HETATM    5  C   UNL     1      43.427 -17.816   4.884  1.00  0.00    -0.021 A 
HETATM    6  C   UNL     1      43.478 -18.256   3.549  1.00  0.00    -0.040 A 
HETATM    7  C   UNL     1      43.632 -18.699   5.935  1.00  0.00     0.010 A 
HETATM    8  C   UNL     1      43.778 -19.580   3.235  1.00  0.00    -0.055 A 
HETATM    9  C   UNL     1      43.158 -17.127   2.606  1.00  0.00     0.018 C 
HETATM   10  C   UNL     1      43.825 -20.082   1.823  1.00  0.00     0.049 C 
HETATM   11  C   UNL     1      43.990 -20.465   4.303  1.00  0.00     0.007 A 
HETATM   12  C   UNL     1      43.919 -20.031   5.634  1.00  0.00     0.001 A 
HETATM   13  C   UNL     1      43.439 -15.912   3.511  1.00  0.00     0.047 C 
HETATM   14  C   UNL     1      41.713 -17.172   2.124  1.00  0.00     0.015 C 
ENDBRANCH   1   4
BRANCH   1  15
HETATM   15  C   UNL     1      43.270 -15.041   7.129  1.00  0.00     0.240 C 
BRANCH  15  16
HETATM   16  C   UNL     1      43.191 -13.504   7.005  1.00  0.00     0.040 C 
BRANCH  16  17
HETATM   17  C   UNL     1      42.058 -13.112   6.042  1.00  0.00     0.170 C 
BRANCH  17  18
HETATM   18  O   UNL     1      41.397 -11.949   6.542  1.00  0.00    -0.400 OA
HETATM   19  H   UNL     1      40.557 -11.872   6.041  1.00  0.00     0.209 HD
ENDBRANCH  17  18
ENDBRANCH  16  17
BRANCH  16  20
HETATM   20  C   UNL     1      44.503 -12.829   6.543  1.00  0.00     0.067 C 
BRANCH  20  21
HETATM   21  C   UNL     1      44.892 -11.643   7.382  1.00  0.00     0.034 A 
HETATM   22  N   UNL     1      44.086 -11.378   8.449  1.00  0.00    -0.266 NA
HETATM   23  C   UNL     1      44.431 -10.314   9.217  1.00  0.00     0.117 A 
HETATM   24  C   UNL     1      45.511  -9.487   8.953  1.00  0.00     0.019 A 
HETATM   25  C   UNL     1      46.300  -9.766   7.844  1.00  0.00     0.003 A 
HETATM   26  C   UNL     1      45.990 -10.860   7.043  1.00  0.00     0.027 A 
ENDBRANCH  20  21
ENDBRANCH  16  20
ENDBRANCH  15  16
ENDBRANCH   1  15
TORSDOF 7
ENDMDL
MODEL 4
REMARK VINA RESULT:      -7.2      2.188      4.465
REMARK  7 active torsions:
REMARK  status: ('A' for Active; 'I' for Inactive)
REMARK    1  A    between atoms: C_5  and  N_6 
REMARK    2  A    between atoms: N_6  and  C_9 
REMARK    3  A    between atoms: C_9  and  C_10 
REMARK    4  A    between atoms: C_10  and  C_11 
REMARK    5  A    between atoms: C_10  and  C_13 
REMARK    6  A    between atoms: C_11  and  O_12 
REMARK    7  A    between atoms: C_13  and  C_14 
ROOT
HETATM    1  N   UNL     1      41.926 -13.838   6.017  1.00  0.00    -0.066 N 
HETATM    2  H   UNL     1      41.850 -13.759   7.050  1.00  0.00     0.278 HD
HETATM    3  H   UNL     1      42.372 -12.956   5.699  1.00  0.00     0.278 HD
ENDROOT
BRANCH   1   4
HETATM    4  C   UNL     1      42.811 -14.980   5.716  1.00  0.00     0.220 C 
HETATM    5  C   UNL     1      43.020 -15.186   4.244  1.00  0.00    -0.021 A 
HETATM    6  C   UNL     1      42.945 -16.552   3.916  1.00  0.00    -0.040 A 
HETATM    7  C   UNL     1      43.285 -14.232   3.271  1.00  0.00     0.010 A 
HETATM    8  C   UNL     1      43.089 -16.989   2.601  1.00  0.00    -0.055 A 
HETATM    9  C   UNL     1      42.715 -17.382   5.152  1.00  0.00     0.018 C 
HETATM   10  C   UNL     1      43.028 -18.439   2.223  1.00  0.00     0.049 C 
HETATM   11  C   UNL     1      43.349 -16.018   1.623  1.00  0.00     0.007 A 
HETATM   12  C   UNL     1      43.446 -14.658   1.953  1.00  0.00     0.001 A 
HETATM   13  C   UNL     1      42.152 -16.315   6.111  1.00  0.00     0.047 C 
HETATM   14  C   UNL     1      44.004 -18.009   5.671  1.00  0.00     0.015 C 
ENDBRANCH   1   4
BRANCH   1  15
HETATM   15  C   UNL     1      40.533 -13.859   5.498  1.00  0.00     0.240 C 
BRANCH  15  16
HETATM   16  C   UNL     1      40.245 -12.588   4.671  1.00  0.00     0.040 C 
BRANCH  16  17
HETATM   17  C   UNL     1      39.908 -11.417   5.610  1.00  0.00     0.170 C 
BRANCH  17  18
HETATM   18  O   UNL     1      39.600 -11.928   6.908  1.00  0.00    -0.400 OA
HETATM   19  H   UNL     1      39.173 -11.194   7.399  1.00  0.00     0.209 HD
ENDBRANCH  17  18
ENDBRANCH  16  17
BRANCH  16  20
HETATM   20  C   UNL     1      39.114 -12.742   3.629  1.00  0.00     0.067 C 
BRANCH  20  21
HETATM   21  C   UNL     1      39.538 -13.489   2.394  1.00  0.00     0.034 A 
HETATM   22  N   UNL     1      39.834 -12.723   1.306  1.00  0.00    -0.266 NA
HETATM   23  C   UNL     1      40.224 -13.386   0.189  1.00  0.00     0.117 A 
HETATM   24  C   UNL     1      40.297 -14.766   0.094  1.00  0.00     0.019 A 
HETATM   25  C   UNL     1      39.964 -15.523   1.211  1.00  0.00     0.003 A 
HETATM   26  C   UNL     1      39.578 -14.879   2.382  1.00  0.00     0.027 A 
ENDBRANCH  20  21
ENDBRANCH  16  20
ENDBRANCH  15  16
ENDBRANCH   1  15
TORSDOF 7
ENDMDL
MODEL 5
REMARK VINA RESULT:      -6.8      2.252      5.149
REMARK  7 active torsions:
REMARK  status: ('A' for Active; 'I' for Inactive)
REMARK    1  A    between atoms: C_5  and  N_6 
REMARK    2  A    between atoms: N_6  and  C_9 
REMARK    3  A    between atoms: C_9  and  C_10 
REMARK    4  A    between atoms: C_10  and  C_11 
REMARK    5  A    between atoms: C_10  and  C_13 
REMARK    6  A    between atoms: C_11  and  O_12 
REMARK    7  A    between atoms: C_13  and  C_14 
ROOT
HETATM    1  N   UNL     1      41.640 -14.318   3.781  1.00  0.00    -0.066 N 
HETATM    2  H   UNL     1      41.079 -15.025   3.266  1.00  0.00     0.278 HD
HETATM    3  H   UNL     1      41.032 -13.983   4.552  1.00  0.00     0.278 HD
ENDROOT
BRANCH   1   4
HETATM    4  C   UNL     1      42.822 -15.002   4.340  1.00  0.00     0.220 C 
HETATM    5  C   UNL     1      43.100 -16.322   3.683  1.00  0.00    -0.021 A 
HETATM    6  C   UNL     1      43.428 -17.298   4.642  1.00  0.00    -0.040 A 
HETATM    7  C   UNL     1      43.088 -16.628   2.329  1.00  0.00     0.010 A 
HETATM    8  C   UNL     1      43.709 -18.611   4.271  1.00  0.00    -0.055 A 
HETATM    9  C   UNL     1      43.434 -16.701   6.025  1.00  0.00     0.018 C 
HETATM   10  C   UNL     1      44.076 -19.669   5.268  1.00  0.00     0.049 C 
HETATM   11  C   UNL     1      43.688 -18.914   2.901  1.00  0.00     0.007 A 
HETATM   12  C   UNL     1      43.382 -17.936   1.943  1.00  0.00     0.001 A 
HETATM   13  C   UNL     1      42.575 -15.443   5.795  1.00  0.00     0.047 C 
HETATM   14  C   UNL     1      44.843 -16.364   6.499  1.00  0.00     0.015 C 
ENDBRANCH   1   4
BRANCH   1  15
HETATM   15  C   UNL     1      41.850 -13.188   2.838  1.00  0.00     0.240 C 
BRANCH  15  16
HETATM   16  C   UNL     1      40.689 -13.108   1.825  1.00  0.00     0.040 C 
BRANCH  16  17
HETATM   17  C   UNL     1      39.361 -12.876   2.565  1.00  0.00     0.170 C 
BRANCH  17  18
HETATM   18  O   UNL     1      38.702 -14.130   2.754  1.00  0.00    -0.400 OA
HETATM   19  H   UNL     1      37.794 -14.021   2.399  1.00  0.00     0.209 HD
ENDBRANCH  17  18
ENDBRANCH  16  17
BRANCH  16  20
HETATM   20  C   UNL     1      40.547 -14.347   0.911  1.00  0.00     0.067 C 
BRANCH  20  21
HETATM   21  C   UNL     1      40.132 -14.007  -0.495  1.00  0.00     0.034 A 
HETATM   22  N   UNL     1      39.339 -14.924  -1.120  1.00  0.00    -0.266 NA
HETATM   23  C   UNL     1      38.953 -14.625  -2.386  1.00  0.00     0.117 A 
HETATM   24  C   UNL     1      39.345 -13.483  -3.065  1.00  0.00     0.019 A 
HETATM   25  C   UNL     1      40.174 -12.578  -2.412  1.00  0.00     0.003 A 
HETATM   26  C   UNL     1      40.576 -12.840  -1.106  1.00  0.00     0.027 A 
ENDBRANCH  20  21
ENDBRANCH  16  20
ENDBRANCH  15  16
ENDBRANCH   1  15
TORSDOF 7
ENDMDL
MODEL 6
REMARK VINA RESULT:      -6.8      1.191      2.562
REMARK  7 active torsions:
REMARK  status: ('A' for Active; 'I' for Inactive)
REMARK    1  A    between atoms: C_5  and  N_6 
REMARK    2  A    between atoms: N_6  and  C_9 
REMARK    3  A    between atoms: C_9  and  C_10 
REMARK    4  A    between atoms: C_10  and  C_11 
REMARK    5  A    between atoms: C_10  and  C_13 
REMARK    6  A    between atoms: C_11  and  O_12 
REMARK    7  A    between atoms: C_13  and  C_14 
ROOT
HETATM    1  N   UNL     1      41.275 -15.205   3.504  1.00  0.00    -0.066 N 
HETATM    2  H   UNL     1      41.001 -15.871   2.756  1.00  0.00     0.278 HD
HETATM    3  H   UNL     1      40.504 -15.229   4.200  1.00  0.00     0.278 HD
ENDROOT
BRANCH   1   4
HETATM    4  C   UNL     1      42.518 -15.707   4.122  1.00  0.00     0.220 C 
HETATM    5  C   UNL     1      42.949 -17.036   3.572  1.00  0.00    -0.021 A 
HETATM    6  C   UNL     1      43.370 -17.891   4.607  1.00  0.00    -0.040 A 
HETATM    7  C   UNL     1      42.989 -17.446   2.247  1.00  0.00     0.010 A 
HETATM    8  C   UNL     1      43.799 -19.189   4.343  1.00  0.00    -0.055 A 
HETATM    9  C   UNL     1      43.292 -17.191   5.938  1.00  0.00     0.018 C 
HETATM   10  C   UNL     1      44.267 -20.119   5.423  1.00  0.00     0.049 C 
HETATM   11  C   UNL     1      43.830 -19.599   3.001  1.00  0.00     0.007 A 
HETATM   12  C   UNL     1      43.430 -18.740   1.967  1.00  0.00     0.001 A 
HETATM   13  C   UNL     1      42.302 -16.057   5.606  1.00  0.00     0.047 C 
HETATM   14  C   UNL     1      44.648 -16.663   6.391  1.00  0.00     0.015 C 
ENDBRANCH   1   4
BRANCH   1  15
HETATM   15  C   UNL     1      41.285 -13.857   2.878  1.00  0.00     0.240 C 
BRANCH  15  16
HETATM   16  C   UNL     1      40.643 -12.818   3.822  1.00  0.00     0.040 C 
BRANCH  16  17
HETATM   17  C   UNL     1      39.268 -12.394   3.279  1.00  0.00     0.170 C 
BRANCH  17  18
HETATM   18  O   UNL     1      38.608 -13.535   2.727  1.00  0.00    -0.400 OA
HETATM   19  H   UNL     1      39.025 -14.321   3.138  1.00  0.00     0.209 HD
ENDBRANCH  17  18
ENDBRANCH  16  17
BRANCH  16  20
HETATM   20  C   UNL     1      41.501 -11.555   4.065  1.00  0.00     0.067 C 
BRANCH  20  21
HETATM   21  C   UNL     1      42.658 -11.790   4.998  1.00  0.00     0.034 A 
HETATM   22  N   UNL     1      43.838 -11.208   4.641  1.00  0.00    -0.266 NA
HETATM   23  C   UNL     1      44.886 -11.408   5.479  1.00  0.00     0.117 A 
HETATM   24  C   UNL     1      44.824 -12.182   6.625  1.00  0.00     0.019 A 
HETATM   25  C   UNL     1      43.615 -12.784   6.951  1.00  0.00     0.003 A 
HETATM   26  C   UNL     1      42.511 -12.587   6.128  1.00  0.00     0.027 A 
ENDBRANCH  20  21
ENDBRANCH  16  20
ENDBRANCH  15  16
ENDBRANCH   1  15
TORSDOF 7
ENDMDL
MODEL 7
REMARK VINA RESULT:      -6.5     14.887     16.800
REMARK  7 active torsions:
REMARK  status: ('A' for Active; 'I' for Inactive)
REMARK    1  A    between atoms: C_5  and  N_6 
REMARK    2  A    between atoms: N_6  and  C_9 
REMARK    3  A    between atoms: C_9  and  C_10 
REMARK    4  A    between atoms: C_10  and  C_11 
REMARK    5  A    between atoms: C_10  and  C_13 
REMARK    6  A    between atoms: C_11  and  O_12 
REMARK    7  A    between atoms: C_13  and  C_14 
ROOT
HETATM    1  N   UNL     1      45.647 -28.451   2.270  1.00  0.00    -0.066 N 
HETATM    2  H   UNL     1      45.540 -27.945   3.171  1.00  0.00     0.278 HD
HETATM    3  H   UNL     1      45.270 -27.814   1.542  1.00  0.00     0.278 HD
ENDROOT
BRANCH   1   4
HETATM    4  C   UNL     1      47.089 -28.668   2.044  1.00  0.00     0.220 C 
HETATM    5  C   UNL     1      47.453 -28.710   0.588  1.00  0.00    -0.021 A 
HETATM    6  C   UNL     1      48.359 -29.755   0.331  1.00  0.00    -0.040 A 
HETATM    7  C   UNL     1      47.030 -27.866  -0.429  1.00  0.00     0.010 A 
HETATM    8  C   UNL     1      48.828 -30.005  -0.957  1.00  0.00    -0.055 A 
HETATM    9  C   UNL     1      48.709 -30.479   1.604  1.00  0.00     0.018 C 
HETATM   10  C   UNL     1      49.805 -31.102  -1.259  1.00  0.00     0.049 C 
HETATM   11  C   UNL     1      48.390 -29.152  -1.981  1.00  0.00     0.007 A 
HETATM   12  C   UNL     1      47.503 -28.097  -1.721  1.00  0.00     0.001 A 
HETATM   13  C   UNL     1      47.520 -30.075   2.498  1.00  0.00     0.047 C 
HETATM   14  C   UNL     1      50.047 -30.023   2.176  1.00  0.00     0.015 C 
ENDBRANCH   1   4
BRANCH   1  15
HETATM   15  C   UNL     1      44.752 -29.635   2.350  1.00  0.00     0.240 C 
BRANCH  15  16
HETATM   16  C   UNL     1      43.987 -29.824   1.024  1.00  0.00     0.040 C 
BRANCH  16  17
HETATM   17  C   UNL     1      42.492 -30.049   1.307  1.00  0.00     0.170 C 
BRANCH  17  18
HETATM   18  O   UNL     1      41.805 -28.798   1.234  1.00  0.00    -0.400 OA
HETATM   19  H   UNL     1      40.854 -29.012   1.127  1.00  0.00     0.209 HD
ENDBRANCH  17  18
ENDBRANCH  16  17
BRANCH  16  20
HETATM   20  C   UNL     1      44.511 -30.977   0.137  1.00  0.00     0.067 C 
BRANCH  20  21
HETATM   21  C   UNL     1      44.657 -30.598  -1.311  1.00  0.00     0.034 A 
HETATM   22  N   UNL     1      45.460 -31.405  -2.061  1.00  0.00    -0.266 NA
HETATM   23  C   UNL     1      45.593 -31.077  -3.370  1.00  0.00     0.117 A 
HETATM   24  C   UNL     1      44.998 -29.971  -3.955  1.00  0.00     0.019 A 
HETATM   25  C   UNL     1      44.205 -29.151  -3.161  1.00  0.00     0.003 A 
HETATM   26  C   UNL     1      44.028 -29.466  -1.817  1.00  0.00     0.027 A 
ENDBRANCH  20  21
ENDBRANCH  16  20
ENDBRANCH  15  16
ENDBRANCH   1  15
TORSDOF 7
ENDMDL
MODEL 8
REMARK VINA RESULT:      -6.3      2.706      4.981
REMARK  7 active torsions:
REMARK  status: ('A' for Active; 'I' for Inactive)
REMARK    1  A    between atoms: C_5  and  N_6 
REMARK    2  A    between atoms: N_6  and  C_9 
REMARK    3  A    between atoms: C_9  and  C_10 
REMARK    4  A    between atoms: C_10  and  C_11 
REMARK    5  A    between atoms: C_10  and  C_13 
REMARK    6  A    between atoms: C_11  and  O_12 
REMARK    7  A    between atoms: C_13  and  C_14 
ROOT
HETATM    1  N   UNL     1      40.557 -14.455   2.028  1.00  0.00    -0.066 N 
HETATM    2  H   UNL     1      39.942 -14.539   1.195  1.00  0.00     0.278 HD
HETATM    3  H   UNL     1      39.943 -14.128   2.799  1.00  0.00     0.278 HD
ENDROOT
BRANCH   1   4
HETATM    4  C   UNL     1      41.075 -15.801   2.342  1.00  0.00     0.220 C 
HETATM    5  C   UNL     1      41.361 -15.991   3.803  1.00  0.00    -0.021 A 
HETATM    6  C   UNL     1      42.585 -16.659   3.989  1.00  0.00    -0.040 A 
HETATM    7  C   UNL     1      40.577 -15.622   4.888  1.00  0.00     0.010 A 
HETATM    8  C   UNL     1      43.073 -16.933   5.265  1.00  0.00    -0.055 A 
HETATM    9  C   UNL     1      43.207 -17.006   2.662  1.00  0.00     0.018 C 
HETATM   10  C   UNL     1      44.367 -17.655   5.494  1.00  0.00     0.049 C 
HETATM   11  C   UNL     1      42.279 -16.550   6.356  1.00  0.00     0.007 A 
HETATM   12  C   UNL     1      41.048 -15.904   6.171  1.00  0.00     0.001 A 
HETATM   13  C   UNL     1      42.476 -16.014   1.737  1.00  0.00     0.047 C 
HETATM   14  C   UNL     1      42.955 -18.458   2.272  1.00  0.00     0.015 C 
ENDBRANCH   1   4
BRANCH   1  15
HETATM   15  C   UNL     1      41.526 -13.371   1.722  1.00  0.00     0.240 C 
BRANCH  15  16
HETATM   16  C   UNL     1      40.906 -12.353   0.741  1.00  0.00     0.040 C 
BRANCH  16  17
HETATM   17  C   UNL     1      41.193 -10.920   1.220  1.00  0.00     0.170 C 
BRANCH  17  18
HETATM   18  O   UNL     1      42.450 -10.894   1.900  1.00  0.00    -0.400 OA
HETATM   19  H   UNL     1      42.512 -10.015   2.330  1.00  0.00     0.209 HD
ENDBRANCH  17  18
ENDBRANCH  16  17
BRANCH  16  20
HETATM   20  C   UNL     1      39.384 -12.516   0.524  1.00  0.00     0.067 C 
BRANCH  20  21
HETATM   21  C   UNL     1      39.032 -13.095  -0.820  1.00  0.00     0.034 A 
HETATM   22  N   UNL     1      37.885 -12.625  -1.389  1.00  0.00    -0.266 NA
HETATM   23  C   UNL     1      37.562 -13.135  -2.604  1.00  0.00     0.117 A 
HETATM   24  C   UNL     1      38.300 -14.109  -3.256  1.00  0.00     0.019 A 
HETATM   25  C   UNL     1      39.450 -14.587  -2.640  1.00  0.00     0.003 A 
HETATM   26  C   UNL     1      39.827 -14.075  -1.403  1.00  0.00     0.027 A 
ENDBRANCH  20  21
ENDBRANCH  16  20
ENDBRANCH  15  16
ENDBRANCH   1  15
TORSDOF 7
ENDMDL
MODEL 9
REMARK VINA RESULT:      -6.2      2.288      4.953
REMARK  7 active torsions:
REMARK  status: ('A' for Active; 'I' for Inactive)
REMARK    1  A    between atoms: C_5  and  N_6 
REMARK    2  A    between atoms: N_6  and  C_9 
REMARK    3  A    between atoms: C_9  and  C_10 
REMARK    4  A    between atoms: C_10  and  C_11 
REMARK    5  A    between atoms: C_10  and  C_13 
REMARK    6  A    between atoms: C_11  and  O_12 
REMARK    7  A    between atoms: C_13  and  C_14 
ROOT
HETATM    1  N   UNL     1      40.373 -14.370   3.891  1.00  0.00    -0.066 N 
HETATM    2  H   UNL     1      40.341 -14.912   3.005  1.00  0.00     0.278 HD
HETATM    3  H   UNL     1      39.512 -14.629   4.411  1.00  0.00     0.278 HD
ENDROOT
BRANCH   1   4
HETATM    4  C   UNL     1      41.563 -14.810   4.645  1.00  0.00     0.220 C 
HETATM    5  C   UNL     1      42.325 -15.901   3.951  1.00  0.00    -0.021 A 
HETATM    6  C   UNL     1      42.715 -16.897   4.865  1.00  0.00    -0.040 A 
HETATM    7  C   UNL     1      42.670 -15.989   2.609  1.00  0.00     0.010 A 
HETATM    8  C   UNL     1      43.420 -18.023   4.450  1.00  0.00    -0.055 A 
HETATM    9  C   UNL     1      42.277 -16.536   6.260  1.00  0.00     0.018 C 
HETATM   10  C   UNL     1      43.862 -19.094   5.403  1.00  0.00     0.049 C 
HETATM   11  C   UNL     1      43.759 -18.109   3.091  1.00  0.00     0.007 A 
HETATM   12  C   UNL     1      43.390 -17.106   2.183  1.00  0.00     0.001 A 
HETATM   13  C   UNL     1      41.163 -15.516   5.954  1.00  0.00     0.047 C 
HETATM   14  C   UNL     1      43.410 -15.931   7.080  1.00  0.00     0.015 C 
ENDBRANCH   1   4
BRANCH   1  15
HETATM   15  C   UNL     1      40.262 -12.938   3.506  1.00  0.00     0.240 C 
BRANCH  15  16
HETATM   16  C   UNL     1      41.076 -12.659   2.225  1.00  0.00     0.040 C 
BRANCH  16  17
HETATM   17  C   UNL     1      42.376 -11.917   2.579  1.00  0.00     0.170 C 
BRANCH  17  18
HETATM   18  O   UNL     1      42.359 -10.623   1.974  1.00  0.00    -0.400 OA
HETATM   19  H   UNL     1      41.418 -10.413   1.798  1.00  0.00     0.209 HD
ENDBRANCH  17  18
ENDBRANCH  16  17
BRANCH  16  20
HETATM   20  C   UNL     1      40.317 -11.857   1.143  1.00  0.00     0.067 C 
BRANCH  20  21
HETATM   21  C   UNL     1      40.265 -12.553  -0.190  1.00  0.00     0.034 A 
HETATM   22  N   UNL     1      39.646 -13.768  -0.205  1.00  0.00    -0.266 NA
HETATM   23  C   UNL     1      39.589 -14.400  -1.404  1.00  0.00     0.117 A 
HETATM   24  C   UNL     1      40.145 -13.902  -2.570  1.00  0.00     0.019 A 
HETATM   25  C   UNL     1      40.792 -12.673  -2.519  1.00  0.00     0.003 A 
HETATM   26  C   UNL     1      40.855 -11.983  -1.313  1.00  0.00     0.027 A 
ENDBRANCH  20  21
ENDBRANCH  16  20
ENDBRANCH  15  16
ENDBRANCH   1  15
TORSDOF 7
ENDMDL
MODEL 10
REMARK VINA RESULT:      -6.0      2.826      6.663
REMARK  7 active torsions:
REMARK  status: ('A' for Active; 'I' for Inactive)
REMARK    1  A    between atoms: C_5  and  N_6 
REMARK    2  A    between atoms: N_6  and  C_9 
REMARK    3  A    between atoms: C_9  and  C_10 
REMARK    4  A    between atoms: C_10  and  C_11 
REMARK    5  A    between atoms: C_10  and  C_13 
REMARK    6  A    between atoms: C_11  and  O_12 
REMARK    7  A    between atoms: C_13  and  C_14 
ROOT
HETATM    1  N   UNL     1      42.272 -13.280   4.924  1.00  0.00    -0.066 N 
HETATM    2  H   UNL     1      41.841 -13.420   3.990  1.00  0.00     0.278 HD
HETATM    3  H   UNL     1      43.246 -13.629   4.841  1.00  0.00     0.278 HD
ENDROOT
BRANCH   1   4
HETATM    4  C   UNL     1      42.285 -11.829   5.200  1.00  0.00     0.220 C 
HETATM    5  C   UNL     1      43.430 -11.411   6.075  1.00  0.00    -0.021 A 
HETATM    6  C   UNL     1      43.001 -10.495   7.053  1.00  0.00    -0.040 A 
HETATM    7  C   UNL     1      44.761 -11.795   5.992  1.00  0.00     0.010 A 
HETATM    8  C   UNL     1      43.886  -9.978   7.997  1.00  0.00    -0.055 A 
HETATM    9  C   UNL     1      41.535 -10.194   6.891  1.00  0.00     0.018 C 
HETATM   10  C   UNL     1      43.461  -8.989   9.042  1.00  0.00     0.049 C 
HETATM   11  C   UNL     1      45.228 -10.376   7.911  1.00  0.00     0.007 A 
HETATM   12  C   UNL     1      45.660 -11.273   6.923  1.00  0.00     0.001 A 
HETATM   13  C   UNL     1      41.082 -11.416   6.068  1.00  0.00     0.047 C 
HETATM   14  C   UNL     1      41.296  -8.879   6.157  1.00  0.00     0.015 C 
ENDBRANCH   1   4
BRANCH   1  15
HETATM   15  C   UNL     1      41.541 -14.176   5.858  1.00  0.00     0.240 C 
BRANCH  15  16
HETATM   16  C   UNL     1      42.366 -15.450   6.138  1.00  0.00     0.040 C 
BRANCH  16  17
HETATM   17  C   UNL     1      42.757 -15.507   7.625  1.00  0.00     0.170 C 
BRANCH  17  18
HETATM   18  O   UNL     1      43.195 -14.214   8.046  1.00  0.00    -0.400 OA
HETATM   19  H   UNL     1      43.148 -13.635   7.255  1.00  0.00     0.209 HD
ENDBRANCH  17  18
ENDBRANCH  16  17
BRANCH  16  20
HETATM   20  C   UNL     1      43.642 -15.592   5.276  1.00  0.00     0.067 C 
BRANCH  20  21
HETATM   21  C   UNL     1      43.625 -16.801   4.380  1.00  0.00     0.034 A 
HETATM   22  N   UNL     1      44.270 -17.904   4.856  1.00  0.00    -0.266 NA
HETATM   23  C   UNL     1      44.255 -19.002   4.059  1.00  0.00     0.117 A 
HETATM   24  C   UNL     1      43.666 -19.041   2.807  1.00  0.00     0.019 A 
HETATM   25  C   UNL     1      43.038 -17.894   2.336  1.00  0.00     0.003 A 
HETATM   26  C   UNL     1      43.014 -16.753   3.132  1.00  0.00     0.027 A 
ENDBRANCH  20  21
ENDBRANCH  16  20
ENDBRANCH  15  16
ENDBRANCH   1  15
TORSDOF 7
ENDMDL
