MODEL 1
REMARK VINA RESULT:      -7.0      0.000      0.000
REMARK  11 active torsions:
REMARK  status: ('A' for Active; 'I' for Inactive)
REMARK    1  A    between atoms: C_1  and  C_17 
REMARK    2  A    between atoms: C_1  and  S_18 
REMARK    3  A    between atoms: C_2  and  N_23 
REMARK    4  A    between atoms: C_3  and  C_13 
REMARK    5  A    between atoms: C_6  and  S_18 
REMARK    6  A    between atoms: C_6  and  S_19 
REMARK    7  A    between atoms: C_7  and  C_20 
REMARK    8  A    between atoms: C_7  and  C_21 
REMARK    9  A    between atoms: C_9  and  C_24 
REMARK   10  A    between atoms: C_16  and  C_17 
REMARK   11  A    between atoms: S_19  and  C_20 
ROOT
HETATM    1  C           1      42.662 -14.576   2.731  0.00  0.00     0.092 C 
HETATM    2  C           1      43.085 -14.317   5.086  0.00  0.00     0.156 C 
HETATM    3  C           1      41.516 -13.784   3.296  0.00  0.00     0.127 C 
HETATM    4  C           1      41.551 -14.187   4.792  0.00  0.00     0.136 C 
HETATM    5  C           1      40.888 -15.511   4.998  0.00  0.00     0.079 C 
HETATM    6  N           1      40.226 -16.462   5.069  0.00  0.00    -0.196 NA
HETATM    7  C           1      40.000 -13.818   2.837  0.00  0.00     0.248 C 
HETATM    8  C           1      39.565 -12.595   4.954  0.00  0.00     0.105 C 
HETATM    9  N           1      43.513 -14.823   3.693  0.00  0.00    -0.350 N 
HETATM   10  N           1      39.178 -12.698   3.554  0.00  0.00    -0.040 N 
HETATM   11  C           1      38.692 -11.682   5.780  0.00  0.00     0.075 C 
HETATM   12  C           1      40.634 -13.214   5.511  0.00  0.00     0.036 C 
HETATM   13  H           1      44.396 -15.327   3.533  0.00  0.00     0.163 HD
HETATM   14  H           1      38.171 -12.982   3.516  0.00  0.00     0.284 HD
HETATM   15  H           1      39.262 -11.780   3.070  0.00  0.00     0.284 HD
ENDROOT
BRANCH   2  16
HETATM   16  S           1      43.466 -15.618   6.305  0.00  0.00    -0.125 SA
BRANCH  16  17
HETATM   17  C           1      44.445 -16.804   5.336  0.00  0.00     0.077 C 
BRANCH  17  18
HETATM   18  C           1      43.625 -18.092   5.154  0.00  0.00     0.010 C 
BRANCH  18  19
HETATM   19  C           1      44.027 -18.840   3.871  0.00  0.00    -0.004 C 
HETATM   20  C           1      43.285 -18.302   2.640  0.00  0.00     0.005 C 
ENDBRANCH  18  19
ENDBRANCH  17  18
ENDBRANCH  16  17
ENDBRANCH   2  16
BRANCH   2  21
HETATM   21  S           1      43.819 -12.672   5.375  0.00  0.00    -0.125 SA
BRANCH  21  22
HETATM   22  C           1      43.946 -12.681   7.191  0.00  0.00     0.077 C 
BRANCH  22  23
HETATM   23  C           1      44.311 -11.266   7.668  0.00  0.00     0.010 C 
BRANCH  23  24
HETATM   24  C           1      45.712 -10.852   7.188  0.00  0.00    -0.004 C 
HETATM   25  C           1      46.233  -9.620   7.942  0.00  0.00     0.005 C 
ENDBRANCH  23  24
ENDBRANCH  22  23
ENDBRANCH  21  22
ENDBRANCH   2  21
BRANCH   3  26
HETATM   26  C           1      41.720 -12.323   3.116  0.00  0.00     0.105 C 
HETATM   27  N           1      42.423 -11.638   2.499  0.00  0.00    -0.151 N 
ENDBRANCH   3  26
BRANCH   1  28
HETATM   28  N           1      42.833 -14.875   1.511  0.00  0.00    -0.388 N 
HETATM   29  H           1      42.564 -14.200   0.752  0.00  0.00     0.157 HD
HETATM   30  H           1      43.244 -15.800   1.239  0.00  0.00     0.157 HD
ENDBRANCH   1  28
BRANCH   7  31
HETATM   31  C           1      39.834 -13.766   1.326  0.00  0.00    -0.026 A 
HETATM   32  C           1      39.656 -12.620   0.644  0.00  0.00     0.009 A 
HETATM   33  C           1      39.521 -12.616  -0.693  0.00  0.00     0.001 A 
HETATM   34  C           1      39.558 -13.769  -1.377  0.00  0.00     0.000 A 
HETATM   35  C           1      39.723 -14.922  -0.714  0.00  0.00     0.001 A 
HETATM   36  C           1      39.854 -14.914   0.621  0.00  0.00     0.009 A 
ENDBRANCH   7  31
TORSDOF 11
ENDMDL
MODEL 2
REMARK VINA RESULT:      -6.8      2.027      5.575
REMARK  11 active torsions:
REMARK  status: ('A' for Active; 'I' for Inactive)
REMARK    1  A    between atoms: C_1  and  C_17 
REMARK    2  A    between atoms: C_1  and  S_18 
REMARK    3  A    between atoms: C_2  and  N_23 
REMARK    4  A    between atoms: C_3  and  C_13 
REMARK    5  A    between atoms: C_6  and  S_18 
REMARK    6  A    between atoms: C_6  and  S_19 
REMARK    7  A    between atoms: C_7  and  C_20 
REMARK    8  A    between atoms: C_7  and  C_21 
REMARK    9  A    between atoms: C_9  and  C_24 
REMARK   10  A    between atoms: C_16  and  C_17 
REMARK   11  A    between atoms: S_19  and  C_20 
ROOT
HETATM    1  C           1      40.291 -14.345   3.605  0.00  0.00     0.092 C 
HETATM    2  C           1      39.778 -12.153   4.456  0.00  0.00     0.156 C 
HETATM    3  C           1      41.421 -13.954   4.515  0.00  0.00     0.127 C 
HETATM    4  C           1      41.323 -12.408   4.506  0.00  0.00     0.136 C 
HETATM    5  C           1      41.963 -11.844   3.278  0.00  0.00     0.079 C 
HETATM    6  N           1      42.611 -11.506   2.376  0.00  0.00    -0.196 NA
HETATM    7  C           1      42.954 -14.327   4.364  0.00  0.00     0.248 C 
HETATM    8  C           1      43.319 -12.575   6.086  0.00  0.00     0.105 C 
HETATM    9  N           1      39.400 -13.388   3.612  0.00  0.00    -0.350 N 
HETATM   10  N           1      43.760 -13.885   5.629  0.00  0.00    -0.040 N 
HETATM   11  C           1      44.168 -11.974   7.179  0.00  0.00     0.075 C 
HETATM   12  C           1      42.222 -11.923   5.630  0.00  0.00     0.036 C 
HETATM   13  H           1      38.518 -13.450   3.084  0.00  0.00     0.163 HD
HETATM   14  H           1      44.764 -13.808   5.344  0.00  0.00     0.284 HD
HETATM   15  H           1      43.704 -14.590   6.393  0.00  0.00     0.284 HD
ENDROOT
BRANCH   2  16
HETATM   16  S           1      39.334 -10.660   3.508  0.00  0.00    -0.125 SA
BRANCH  16  17
HETATM   17  C           1      38.393 -11.335   2.109  0.00  0.00     0.077 C 
BRANCH  17  18
HETATM   18  C           1      39.218 -11.157   0.824  0.00  0.00     0.010 C 
BRANCH  18  19
HETATM   19  C           1      39.157 -12.411  -0.065  0.00  0.00    -0.004 C 
HETATM   20  C           1      40.436 -13.252   0.045  0.00  0.00     0.005 C 
ENDBRANCH  18  19
ENDBRANCH  17  18
ENDBRANCH  16  17
ENDBRANCH   2  16
BRANCH   2  21
HETATM   21  S           1      39.050 -12.323   6.120  0.00  0.00    -0.125 SA
BRANCH  21  22
HETATM   22  C           1      38.626 -10.588   6.474  0.00  0.00     0.077 C 
BRANCH  22  23
HETATM   23  C           1      39.421 -10.127   7.708  0.00  0.00     0.010 C 
BRANCH  23  24
HETATM   24  C           1      40.510  -9.110   7.332  0.00  0.00    -0.004 C 
HETATM   25  C           1      41.750  -9.244   8.226  0.00  0.00     0.005 C 
ENDBRANCH  23  24
ENDBRANCH  22  23
ENDBRANCH  21  22
ENDBRANCH   2  21
BRANCH   3  26
HETATM   26  C           1      41.241 -14.508   5.881  0.00  0.00     0.105 C 
HETATM   27  N           1      40.576 -15.313   6.385  0.00  0.00    -0.151 N 
ENDBRANCH   3  26
BRANCH   1  28
HETATM   28  N           1      40.165 -15.455   3.005  0.00  0.00    -0.388 N 
HETATM   29  H           1      39.416 -16.134   3.289  0.00  0.00     0.157 HD
HETATM   30  H           1      40.806 -15.713   2.216  0.00  0.00     0.157 HD
ENDBRANCH   1  28
BRANCH   7  31
HETATM   31  C           1      43.181 -15.793   4.029  0.00  0.00    -0.026 A 
HETATM   32  C           1      43.431 -16.731   4.961  0.00  0.00     0.009 A 
HETATM   33  C           1      43.618 -18.018   4.624  0.00  0.00     0.001 A 
HETATM   34  C           1      43.561 -18.393   3.338  0.00  0.00     0.000 A 
HETATM   35  C           1      43.324 -17.471   2.394  0.00  0.00     0.001 A 
HETATM   36  C           1      43.142 -16.188   2.742  0.00  0.00     0.009 A 
ENDBRANCH   7  31
TORSDOF 11
ENDMDL
MODEL 3
REMARK VINA RESULT:      -6.7      2.311      4.891
REMARK  11 active torsions:
REMARK  status: ('A' for Active; 'I' for Inactive)
REMARK    1  A    between atoms: C_1  and  C_17 
REMARK    2  A    between atoms: C_1  and  S_18 
REMARK    3  A    between atoms: C_2  and  N_23 
REMARK    4  A    between atoms: C_3  and  C_13 
REMARK    5  A    between atoms: C_6  and  S_18 
REMARK    6  A    between atoms: C_6  and  S_19 
REMARK    7  A    between atoms: C_7  and  C_20 
REMARK    8  A    between atoms: C_7  and  C_21 
REMARK    9  A    between atoms: C_9  and  C_24 
REMARK   10  A    between atoms: C_16  and  C_17 
REMARK   11  A    between atoms: S_19  and  C_20 
ROOT
HETATM    1  C           1      39.639 -13.432   2.797  0.00  0.00     0.092 C 
HETATM    2  C           1      41.041 -14.978   3.995  0.00  0.00     0.156 C 
HETATM    3  C           1      40.750 -12.628   3.411  0.00  0.00     0.127 C 
HETATM    4  C           1      41.194 -13.536   4.586  0.00  0.00     0.136 C 
HETATM    5  C           1      40.276 -13.374   5.755  0.00  0.00     0.079 C 
HETATM    6  N           1      39.601 -13.065   6.647  0.00  0.00    -0.196 NA
HETATM    7  C           1      40.677 -11.146   3.966  0.00  0.00     0.248 C 
HETATM    8  C           1      42.876 -11.662   4.999  0.00  0.00     0.105 C 
HETATM    9  N           1      39.827 -14.694   3.086  0.00  0.00    -0.350 N 
HETATM   10  N           1      42.101 -10.621   4.337  0.00  0.00    -0.040 N 
HETATM   11  C           1      44.191 -11.196   5.574  0.00  0.00     0.075 C 
HETATM   12  C           1      42.510 -12.964   5.084  0.00  0.00     0.036 C 
HETATM   13  H           1      39.205 -15.438   2.743  0.00  0.00     0.163 HD
HETATM   14  H           1      41.974  -9.833   5.014  0.00  0.00     0.284 HD
HETATM   15  H           1      42.607 -10.243   3.509  0.00  0.00     0.284 HD
ENDROOT
BRANCH   2  16
HETATM   16  S           1      40.540 -16.209   5.244  0.00  0.00    -0.125 SA
BRANCH  16  17
HETATM   17  C           1      41.953 -16.222   6.386  0.00  0.00     0.077 C 
BRANCH  17  18
HETATM   18  C           1      42.744 -17.524   6.180  0.00  0.00     0.010 C 
BRANCH  18  19
HETATM   19  C           1      44.250 -17.251   6.022  0.00  0.00    -0.004 C 
HETATM   20  C           1      44.603 -15.793   6.343  0.00  0.00     0.005 C 
ENDBRANCH  18  19
ENDBRANCH  17  18
ENDBRANCH  16  17
ENDBRANCH   2  16
BRANCH   2  21
HETATM   21  S           1      42.480 -15.396   2.954  0.00  0.00    -0.125 SA
BRANCH  21  22
HETATM   22  C           1      42.180 -17.170   2.672  0.00  0.00     0.077 C 
BRANCH  22  23
HETATM   23  C           1      43.524 -17.856   2.372  0.00  0.00     0.010 C 
BRANCH  23  24
HETATM   24  C           1      43.553 -19.299   2.901  0.00  0.00    -0.004 C 
HETATM   25  C           1      43.349 -20.324   1.777  0.00  0.00     0.005 C 
ENDBRANCH  23  24
ENDBRANCH  22  23
ENDBRANCH  21  22
ENDBRANCH   2  21
BRANCH   3  26
HETATM   26  C           1      41.857 -12.399   2.446  0.00  0.00     0.105 C 
HETATM   27  N           1      42.017 -12.510   1.304  0.00  0.00    -0.151 N 
ENDBRANCH   3  26
BRANCH   1  28
HETATM   28  N           1      38.723 -12.986   2.043  0.00  0.00    -0.388 N 
HETATM   29  H           1      38.866 -12.931   1.004  0.00  0.00     0.157 HD
HETATM   30  H           1      37.808 -12.663   2.443  0.00  0.00     0.157 HD
ENDBRANCH   1  28
BRANCH   7  31
HETATM   31  C           1      39.946 -10.195   3.030  0.00  0.00    -0.026 A 
HETATM   32  C           1      40.550  -9.557   2.011  0.00  0.00     0.009 A 
HETATM   33  C           1      39.867  -8.730   1.202  0.00  0.00     0.001 A 
HETATM   34  C           1      38.558  -8.523   1.400  0.00  0.00     0.000 A 
HETATM   35  C           1      37.941  -9.141   2.417  0.00  0.00     0.001 A 
HETATM   36  C           1      38.634  -9.962   3.221  0.00  0.00     0.009 A 
ENDBRANCH   7  31
TORSDOF 11
ENDMDL
MODEL 4
REMARK VINA RESULT:      -6.5      1.726      5.086
REMARK  11 active torsions:
REMARK  status: ('A' for Active; 'I' for Inactive)
REMARK    1  A    between atoms: C_1  and  C_17 
REMARK    2  A    between atoms: C_1  and  S_18 
REMARK    3  A    between atoms: C_2  and  N_23 
REMARK    4  A    between atoms: C_3  and  C_13 
REMARK    5  A    between atoms: C_6  and  S_18 
REMARK    6  A    between atoms: C_6  and  S_19 
REMARK    7  A    between atoms: C_7  and  C_20 
REMARK    8  A    between atoms: C_7  and  C_21 
REMARK    9  A    between atoms: C_9  and  C_24 
REMARK   10  A    between atoms: C_16  and  C_17 
REMARK   11  A    between atoms: S_19  and  C_20 
ROOT
HETATM    1  C           1      40.537 -11.846   3.986  0.00  0.00     0.092 C 
HETATM    2  C           1      41.927 -13.183   5.425  0.00  0.00     0.156 C 
HETATM    3  C           1      41.168 -12.903   3.125  0.00  0.00     0.127 C 
HETATM    4  C           1      42.429 -13.278   3.944  0.00  0.00     0.136 C 
HETATM    5  C           1      43.521 -12.280   3.721  0.00  0.00     0.079 C 
HETATM    6  N           1      44.342 -11.542   3.365  0.00  0.00    -0.196 NA
HETATM    7  C           1      41.615 -12.773   1.610  0.00  0.00     0.248 C 
HETATM    8  C           1      42.826 -14.903   2.018  0.00  0.00     0.105 C 
HETATM    9  N           1      40.923 -12.030   5.223  0.00  0.00    -0.350 N 
HETATM   10  N           1      42.045 -14.163   1.037  0.00  0.00    -0.040 N 
HETATM   11  C           1      43.456 -16.170   1.492  0.00  0.00     0.075 C 
HETATM   12  C           1      42.975 -14.549   3.318  0.00  0.00     0.036 C 
HETATM   13  H           1      40.589 -11.443   5.999  0.00  0.00     0.163 HD
HETATM   14  H           1      42.657 -13.979   0.208  0.00  0.00     0.284 HD
HETATM   15  H           1      41.229 -14.719   0.707  0.00  0.00     0.284 HD
ENDROOT
BRANCH   2  16
HETATM   16  S           1      43.220 -12.614   6.578  0.00  0.00    -0.125 SA
BRANCH  16  17
HETATM   17  C           1      42.822 -10.854   6.794  0.00  0.00     0.077 C 
BRANCH  17  18
HETATM   18  C           1      43.798 -10.246   7.814  0.00  0.00     0.010 C 
BRANCH  18  19
HETATM   19  C           1      45.262 -10.478   7.402  0.00  0.00    -0.004 C 
HETATM   20  C           1      46.202  -9.434   8.021  0.00  0.00     0.005 C 
ENDBRANCH  18  19
ENDBRANCH  17  18
ENDBRANCH  16  17
ENDBRANCH   2  16
BRANCH   2  21
HETATM   21  S           1      41.016 -14.695   5.886  0.00  0.00    -0.125 SA
BRANCH  21  22
HETATM   22  C           1      42.182 -15.435   7.074  0.00  0.00     0.077 C 
BRANCH  22  23
HETATM   23  C           1      42.605 -16.819   6.553  0.00  0.00     0.010 C 
BRANCH  23  24
HETATM   24  C           1      44.063 -16.818   6.066  0.00  0.00    -0.004 C 
HETATM   25  C           1      44.259 -17.732   4.849  0.00  0.00     0.005 C 
ENDBRANCH  23  24
ENDBRANCH  22  23
ENDBRANCH  21  22
ENDBRANCH   2  21
BRANCH   3  26
HETATM   26  C           1      40.266 -14.070   2.941  0.00  0.00     0.105 C 
HETATM   27  N           1      39.128 -14.275   3.010  0.00  0.00    -0.151 N 
ENDBRANCH   3  26
BRANCH   1  28
HETATM   28  N           1      39.695 -10.978   3.607  0.00  0.00    -0.388 N 
HETATM   29  H           1      38.666 -11.129   3.759  0.00  0.00     0.157 HD
HETATM   30  H           1      40.009 -10.096   3.135  0.00  0.00     0.157 HD
ENDBRANCH   1  28
BRANCH   7  31
HETATM   31  C           1      40.571 -12.096   0.736  0.00  0.00    -0.026 A 
HETATM   32  C           1      40.498 -10.762   0.576  0.00  0.00     0.009 A 
HETATM   33  C           1      39.564 -10.204  -0.212  0.00  0.00     0.001 A 
HETATM   34  C           1      38.677 -10.975  -0.856  0.00  0.00     0.000 A 
HETATM   35  C           1      38.727 -12.305  -0.701  0.00  0.00     0.001 A 
HETATM   36  C           1      39.662 -12.852   0.091  0.00  0.00     0.009 A 
ENDBRANCH   7  31
TORSDOF 11
ENDMDL
MODEL 5
REMARK VINA RESULT:      -6.4      2.463      6.366
REMARK  11 active torsions:
REMARK  status: ('A' for Active; 'I' for Inactive)
REMARK    1  A    between atoms: C_1  and  C_17 
REMARK    2  A    between atoms: C_1  and  S_18 
REMARK    3  A    between atoms: C_2  and  N_23 
REMARK    4  A    between atoms: C_3  and  C_13 
REMARK    5  A    between atoms: C_6  and  S_18 
REMARK    6  A    between atoms: C_6  and  S_19 
REMARK    7  A    between atoms: C_7  and  C_20 
REMARK    8  A    between atoms: C_7  and  C_21 
REMARK    9  A    between atoms: C_9  and  C_24 
REMARK   10  A    between atoms: C_16  and  C_17 
REMARK   11  A    between atoms: S_19  and  C_20 
ROOT
HETATM    1  C           1      41.594 -13.055   5.387  0.00  0.00     0.092 C 
HETATM    2  C           1      41.770 -13.759   3.093  0.00  0.00     0.156 C 
HETATM    3  C           1      41.316 -11.847   4.537  0.00  0.00     0.127 C 
HETATM    4  C           1      42.023 -12.217   3.208  0.00  0.00     0.136 C 
HETATM    5  C           1      43.492 -11.957   3.300  0.00  0.00     0.079 C 
HETATM    6  N           1      44.583 -11.581   3.424  0.00  0.00    -0.196 NA
HETATM    7  C           1      41.679 -10.338   4.856  0.00  0.00     0.248 C 
HETATM    8  C           1      41.150  -9.939   2.462  0.00  0.00     0.105 C 
HETATM    9  N           1      41.799 -14.080   4.601  0.00  0.00    -0.350 N 
HETATM   10  N           1      41.038  -9.378   3.801  0.00  0.00    -0.040 N 
HETATM   11  C           1      40.741  -9.001   1.353  0.00  0.00     0.075 C 
HETATM   12  C           1      41.545 -11.205   2.182  0.00  0.00     0.036 C 
HETATM   13  H           1      41.977 -15.027   4.963  0.00  0.00     0.163 HD
HETATM   14  H           1      41.584  -8.485   3.824  0.00  0.00     0.284 HD
HETATM   15  H           1      40.050  -9.147   4.033  0.00  0.00     0.284 HD
ENDROOT
BRANCH   2  16
HETATM   16  S           1      43.148 -14.648   2.296  0.00  0.00    -0.125 SA
BRANCH  16  17
HETATM   17  C           1      43.248 -16.185   3.260  0.00  0.00     0.077 C 
BRANCH  17  18
HETATM   18  C           1      43.027 -17.377   2.315  0.00  0.00     0.010 C 
BRANCH  18  19
HETATM   19  C           1      43.760 -18.635   2.813  0.00  0.00    -0.004 C 
HETATM   20  C           1      43.288 -19.899   2.081  0.00  0.00     0.005 C 
ENDBRANCH  18  19
ENDBRANCH  17  18
ENDBRANCH  16  17
ENDBRANCH   2  16
BRANCH   2  21
HETATM   21  S           1      40.094 -14.083   2.446  0.00  0.00    -0.125 SA
BRANCH  21  22
HETATM   22  C           1      40.499 -14.955   0.900  0.00  0.00     0.077 C 
BRANCH  22  23
HETATM   23  C           1      40.249 -14.004  -0.283  0.00  0.00     0.010 C 
BRANCH  23  24
HETATM   24  C           1      39.323 -14.639  -1.333  0.00  0.00    -0.004 C 
HETATM   25  C           1      39.583 -14.078  -2.738  0.00  0.00     0.005 C 
ENDBRANCH  23  24
ENDBRANCH  22  23
ENDBRANCH  21  22
ENDBRANCH   2  21
BRANCH   3  26
HETATM   26  C           1      39.858 -11.638   4.344  0.00  0.00     0.105 C 
HETATM   27  N           1      38.877 -12.059   4.797  0.00  0.00    -0.151 N 
ENDBRANCH   3  26
BRANCH   1  28
HETATM   28  N           1      41.545 -13.104   6.652  0.00  0.00    -0.388 N 
HETATM   29  H           1      42.226 -12.557   7.236  0.00  0.00     0.157 HD
HETATM   30  H           1      40.825 -13.692   7.138  0.00  0.00     0.157 HD
ENDBRANCH   1  28
BRANCH   7  31
HETATM   31  C           1      41.334  -9.930   6.279  0.00  0.00    -0.026 A 
HETATM   32  C           1      42.244  -9.874   7.270  0.00  0.00     0.009 A 
HETATM   33  C           1      41.900  -9.501   8.513  0.00  0.00     0.001 A 
HETATM   34  C           1      40.629  -9.177   8.793  0.00  0.00     0.000 A 
HETATM   35  C           1      39.706  -9.237   7.822  0.00  0.00     0.001 A 
HETATM   36  C           1      40.061  -9.615   6.584  0.00  0.00     0.009 A 
ENDBRANCH   7  31
TORSDOF 11
ENDMDL
MODEL 6
REMARK VINA RESULT:      -6.3      2.278      7.095
REMARK  11 active torsions:
REMARK  status: ('A' for Active; 'I' for Inactive)
REMARK    1  A    between atoms: C_1  and  C_17 
REMARK    2  A    between atoms: C_1  and  S_18 
REMARK    3  A    between atoms: C_2  and  N_23 
REMARK    4  A    between atoms: C_3  and  C_13 
REMARK    5  A    between atoms: C_6  and  S_18 
REMARK    6  A    between atoms: C_6  and  S_19 
REMARK    7  A    between atoms: C_7  and  C_20 
REMARK    8  A    between atoms: C_7  and  C_21 
REMARK    9  A    between atoms: C_9  and  C_24 
REMARK   10  A    between atoms: C_16  and  C_17 
REMARK   11  A    between atoms: S_19  and  C_20 
ROOT
HETATM    1  C           1      42.002 -10.691   4.458  0.00  0.00     0.092 C 
HETATM    2  C           1      41.349 -12.714   3.331  0.00  0.00     0.156 C 
HETATM    3  C           1      42.559 -11.836   5.258  0.00  0.00     0.127 C 
HETATM    4  C           1      41.624 -13.002   4.846  0.00  0.00     0.136 C 
HETATM    5  C           1      40.339 -12.943   5.608  0.00  0.00     0.079 C 
HETATM    6  N           1      39.450 -12.895   6.353  0.00  0.00    -0.196 NA
HETATM    7  C           1      42.743 -11.915   6.829  0.00  0.00     0.248 C 
HETATM    8  C           1      43.098 -14.342   6.440  0.00  0.00     0.105 C 
HETATM    9  N           1      41.389 -11.174   3.409  0.00  0.00    -0.350 N 
HETATM   10  N           1      43.537 -13.201   7.231  0.00  0.00    -0.040 N 
HETATM   11  C           1      43.661 -15.669   6.888  0.00  0.00     0.075 C 
HETATM   12  C           1      42.285 -14.269   5.358  0.00  0.00     0.036 C 
HETATM   13  H           1      40.955 -10.572   2.696  0.00  0.00     0.163 HD
HETATM   14  H           1      43.317 -13.399   8.235  0.00  0.00     0.284 HD
HETATM   15  H           1      44.566 -13.063   7.157  0.00  0.00     0.284 HD
ENDROOT
BRANCH   2  16
HETATM   16  S           1      39.676 -13.214   2.806  0.00  0.00    -0.125 SA
BRANCH  16  17
HETATM   17  C           1      39.310 -12.046   1.463  0.00  0.00     0.077 C 
BRANCH  17  18
HETATM   18  C           1      38.111 -11.177   1.875  0.00  0.00     0.010 C 
BRANCH  18  19
HETATM   19  C           1      37.000 -11.204   0.810  0.00  0.00    -0.004 C 
HETATM   20  C           1      37.571 -11.346  -0.607  0.00  0.00     0.005 C 
ENDBRANCH  18  19
ENDBRANCH  17  18
ENDBRANCH  16  17
ENDBRANCH   2  16
BRANCH   2  21
HETATM   21  S           1      42.745 -13.296   2.309  0.00  0.00    -0.125 SA
BRANCH  21  22
HETATM   22  C           1      42.025 -14.809   1.596  0.00  0.00     0.077 C 
BRANCH  22  23
HETATM   23  C           1      43.088 -15.919   1.619  0.00  0.00     0.010 C 
BRANCH  23  24
HETATM   24  C           1      42.949 -16.811   2.863  0.00  0.00    -0.004 C 
HETATM   25  C           1      43.572 -18.197   2.645  0.00  0.00     0.005 C 
ENDBRANCH  23  24
ENDBRANCH  22  23
ENDBRANCH  21  22
ENDBRANCH   2  21
BRANCH   3  26
HETATM   26  C           1      43.974 -12.114   4.902  0.00  0.00     0.105 C 
HETATM   27  N           1      44.817 -11.580   4.312  0.00  0.00    -0.151 N 
ENDBRANCH   3  26
BRANCH   1  28
HETATM   28  N           1      42.176  -9.459   4.698  0.00  0.00    -0.388 N 
HETATM   29  H           1      43.105  -9.004   4.515  0.00  0.00     0.157 HD
HETATM   30  H           1      41.396  -8.872   5.083  0.00  0.00     0.157 HD
ENDBRANCH   1  28
BRANCH   7  31
HETATM   31  C           1      43.361 -10.658   7.421  0.00  0.00    -0.026 A 
HETATM   32  C           1      44.685 -10.503   7.602  0.00  0.00     0.009 A 
HETATM   33  C           1      45.192  -9.373   8.121  0.00  0.00     0.001 A 
HETATM   34  C           1      44.376  -8.369   8.476  0.00  0.00     0.000 A 
HETATM   35  C           1      43.053  -8.508   8.313  0.00  0.00     0.001 A 
HETATM   36  C           1      42.558  -9.644   7.797  0.00  0.00     0.009 A 
ENDBRANCH   7  31
TORSDOF 11
ENDMDL
MODEL 7
REMARK VINA RESULT:      -6.2      2.244      6.324
REMARK  11 active torsions:
REMARK  status: ('A' for Active; 'I' for Inactive)
REMARK    1  A    between atoms: C_1  and  C_17 
REMARK    2  A    between atoms: C_1  and  S_18 
REMARK    3  A    between atoms: C_2  and  N_23 
REMARK    4  A    between atoms: C_3  and  C_13 
REMARK    5  A    between atoms: C_6  and  S_18 
REMARK    6  A    between atoms: C_6  and  S_19 
REMARK    7  A    between atoms: C_7  and  C_20 
REMARK    8  A    between atoms: C_7  and  C_21 
REMARK    9  A    between atoms: C_9  and  C_24 
REMARK   10  A    between atoms: C_16  and  C_17 
REMARK   11  A    between atoms: S_19  and  C_20 
ROOT
HETATM    1  C           1      43.013 -14.522   2.227  0.00  0.00     0.092 C 
HETATM    2  C           1      41.794 -12.620   3.057  0.00  0.00     0.156 C 
HETATM    3  C           1      42.192 -15.002   3.390  0.00  0.00     0.127 C 
HETATM    4  C           1      41.961 -13.693   4.186  0.00  0.00     0.136 C 
HETATM    5  C           1      43.158 -13.361   5.019  0.00  0.00     0.079 C 
HETATM    6  N           1      44.068 -13.278   5.734  0.00  0.00    -0.196 NA
HETATM    7  C           1      42.573 -16.127   4.440  0.00  0.00     0.248 C 
HETATM    8  C           1      40.664 -15.232   5.753  0.00  0.00     0.105 C 
HETATM    9  N           1      42.762 -13.252   2.036  0.00  0.00    -0.350 N 
HETATM   10  N           1      41.358 -16.454   5.368  0.00  0.00    -0.040 N 
HETATM   11  C           1      39.600 -15.422   6.807  0.00  0.00     0.075 C 
HETATM   12  C           1      40.889 -14.010   5.214  0.00  0.00     0.036 C 
HETATM   13  H           1      43.187 -12.714   1.268  0.00  0.00     0.163 HD
HETATM   14  H           1      41.742 -16.895   6.236  0.00  0.00     0.284 HD
HETATM   15  H           1      40.705 -17.137   4.932  0.00  0.00     0.284 HD
ENDROOT
BRANCH   2  16
HETATM   16  S           1      42.452 -10.986   3.527  0.00  0.00    -0.125 SA
BRANCH  16  17
HETATM   17  C           1      40.997 -10.151   4.226  0.00  0.00     0.077 C 
BRANCH  17  18
HETATM   18  C           1      41.219  -9.947   5.733  0.00  0.00     0.010 C 
BRANCH  18  19
HETATM   19  C           1      40.177 -10.713   6.566  0.00  0.00    -0.004 C 
HETATM   20  C           1      38.817 -10.781   5.859  0.00  0.00     0.005 C 
ENDBRANCH  18  19
ENDBRANCH  17  18
ENDBRANCH  16  17
ENDBRANCH   2  16
BRANCH   2  21
HETATM   21  S           1      40.100 -12.665   2.381  0.00  0.00    -0.125 SA
BRANCH  21  22
HETATM   22  C           1      40.447 -12.454   0.606  0.00  0.00     0.077 C 
BRANCH  22  23
HETATM   23  C           1      39.300 -13.086  -0.200  0.00  0.00     0.010 C 
BRANCH  23  24
HETATM   24  C           1      39.805 -14.216  -1.111  0.00  0.00    -0.004 C 
HETATM   25  C           1      40.098 -13.717  -2.532  0.00  0.00     0.005 C 
ENDBRANCH  23  24
ENDBRANCH  22  23
ENDBRANCH  21  22
ENDBRANCH   2  21
BRANCH   3  26
HETATM   26  C           1      40.911 -15.607   2.943  0.00  0.00     0.105 C 
HETATM   27  N           1      40.413 -15.878   1.932  0.00  0.00    -0.151 N 
ENDBRANCH   3  26
BRANCH   1  28
HETATM   28  N           1      43.752 -15.238   1.487  0.00  0.00    -0.388 N 
HETATM   29  H           1      44.255 -14.818   0.667  0.00  0.00     0.157 HD
HETATM   30  H           1      43.873 -16.262   1.681  0.00  0.00     0.157 HD
ENDBRANCH   1  28
BRANCH   7  31
HETATM   31  C           1      43.145 -17.378   3.791  0.00  0.00    -0.026 A 
HETATM   32  C           1      44.279 -17.970   4.208  0.00  0.00     0.009 A 
HETATM   33  C           1      44.747 -19.080   3.613  0.00  0.00     0.001 A 
HETATM   34  C           1      44.086 -19.620   2.580  0.00  0.00     0.000 A 
HETATM   35  C           1      42.960 -19.039   2.143  0.00  0.00     0.001 A 
HETATM   36  C           1      42.504 -17.929   2.743  0.00  0.00     0.009 A 
ENDBRANCH   7  31
TORSDOF 11
ENDMDL
MODEL 8
REMARK VINA RESULT:      -6.1      1.854      2.599
REMARK  11 active torsions:
REMARK  status: ('A' for Active; 'I' for Inactive)
REMARK    1  A    between atoms: C_1  and  C_17 
REMARK    2  A    between atoms: C_1  and  S_18 
REMARK    3  A    between atoms: C_2  and  N_23 
REMARK    4  A    between atoms: C_3  and  C_13 
REMARK    5  A    between atoms: C_6  and  S_18 
REMARK    6  A    between atoms: C_6  and  S_19 
REMARK    7  A    between atoms: C_7  and  C_20 
REMARK    8  A    between atoms: C_7  and  C_21 
REMARK    9  A    between atoms: C_9  and  C_24 
REMARK   10  A    between atoms: C_16  and  C_17 
REMARK   11  A    between atoms: S_19  and  C_20 
ROOT
HETATM    1  C           1      41.459 -13.138   0.640  0.00  0.00     0.092 C 
HETATM    2  C           1      42.403 -13.614   2.801  0.00  0.00     0.156 C 
HETATM    3  C           1      40.597 -12.442   1.656  0.00  0.00     0.127 C 
HETATM    4  C           1      40.882 -13.264   2.939  0.00  0.00     0.136 C 
HETATM    5  C           1      40.078 -14.524   2.950  0.00  0.00     0.079 C 
HETATM    6  N           1      39.305 -15.389   2.931  0.00  0.00    -0.196 NA
HETATM    7  C           1      39.033 -12.201   1.592  0.00  0.00     0.248 C 
HETATM    8  C           1      39.251 -11.611   3.994  0.00  0.00     0.105 C 
HETATM    9  N           1      42.444 -13.731   1.264  0.00  0.00    -0.350 N 
HETATM   10  N           1      38.566 -11.268   2.755  0.00  0.00    -0.040 N 
HETATM   11  C           1      38.726 -10.901   5.218  0.00  0.00     0.075 C 
HETATM   12  C           1      40.302 -12.460   4.089  0.00  0.00     0.036 C 
HETATM   13  H           1      43.182 -14.246   0.766  0.00  0.00     0.163 HD
HETATM   14  H           1      37.542 -11.435   2.895  0.00  0.00     0.284 HD
HETATM   15  H           1      38.690 -10.261   2.522  0.00  0.00     0.284 HD
ENDROOT
BRANCH   2  16
HETATM   16  S           1      42.824 -15.242   3.507  0.00  0.00    -0.125 SA
BRANCH  16  17
HETATM   17  C           1      43.177 -16.241   2.031  0.00  0.00     0.077 C 
BRANCH  17  18
HETATM   18  C           1      42.551 -17.634   2.213  0.00  0.00     0.010 C 
BRANCH  18  19
HETATM   19  C           1      43.602 -18.676   2.631  0.00  0.00    -0.004 C 
HETATM   20  C           1      43.286 -20.066   2.063  0.00  0.00     0.005 C 
ENDBRANCH  18  19
ENDBRANCH  17  18
ENDBRANCH  16  17
ENDBRANCH   2  16
BRANCH   2  21
HETATM   21  S           1      43.432 -12.198   3.319  0.00  0.00    -0.125 SA
BRANCH  21  22
HETATM   22  C           1      43.615 -12.555   5.095  0.00  0.00     0.077 C 
BRANCH  22  23
HETATM   23  C           1      44.209 -11.317   5.789  0.00  0.00     0.010 C 
BRANCH  23  24
HETATM   24  C           1      44.964 -11.697   7.073  0.00  0.00    -0.004 C 
HETATM   25  C           1      46.111 -10.722   7.370  0.00  0.00     0.005 C 
ENDBRANCH  23  24
ENDBRANCH  22  23
ENDBRANCH  21  22
ENDBRANCH   2  21
BRANCH   3  26
HETATM   26  C           1      40.986 -11.017   1.818  0.00  0.00     0.105 C 
HETATM   27  N           1      41.634 -10.248   1.242  0.00  0.00    -0.151 N 
ENDBRANCH   3  26
BRANCH   1  28
HETATM   28  N           1      41.320 -13.085  -0.619  0.00  0.00    -0.388 N 
HETATM   29  H           1      41.726 -13.833  -1.234  0.00  0.00     0.157 HD
HETATM   30  H           1      40.798 -12.293  -1.068  0.00  0.00     0.157 HD
ENDBRANCH   1  28
BRANCH   7  31
HETATM   31  C           1      38.562 -11.699   0.236  0.00  0.00    -0.026 A 
HETATM   32  C           1      38.308 -12.514  -0.804  0.00  0.00     0.009 A 
HETATM   33  C           1      37.886 -12.030  -1.984  0.00  0.00     0.001 A 
HETATM   34  C           1      37.711 -10.711  -2.148  0.00  0.00     0.000 A 
HETATM   35  C           1      37.970  -9.882  -1.127  0.00  0.00     0.001 A 
HETATM   36  C           1      38.394 -10.376   0.046  0.00  0.00     0.009 A 
ENDBRANCH   7  31
TORSDOF 11
ENDMDL
MODEL 9
REMARK VINA RESULT:      -6.1      2.746      6.207
REMARK  11 active torsions:
REMARK  status: ('A' for Active; 'I' for Inactive)
REMARK    1  A    between atoms: C_1  and  C_17 
REMARK    2  A    between atoms: C_1  and  S_18 
REMARK    3  A    between atoms: C_2  and  N_23 
REMARK    4  A    between atoms: C_3  and  C_13 
REMARK    5  A    between atoms: C_6  and  S_18 
REMARK    6  A    between atoms: C_6  and  S_19 
REMARK    7  A    between atoms: C_7  and  C_20 
REMARK    8  A    between atoms: C_7  and  C_21 
REMARK    9  A    between atoms: C_9  and  C_24 
REMARK   10  A    between atoms: C_16  and  C_17 
REMARK   11  A    between atoms: S_19  and  C_20 
ROOT
HETATM    1  C           1      38.890 -11.621   2.659  0.00  0.00     0.092 C 
HETATM    2  C           1      40.230 -13.588   2.300  0.00  0.00     0.156 C 
HETATM    3  C           1      40.234 -11.352   3.275  0.00  0.00     0.127 C 
HETATM    4  C           1      40.762 -12.785   3.536  0.00  0.00     0.136 C 
HETATM    5  C           1      40.172 -13.347   4.790  0.00  0.00     0.079 C 
HETATM    6  N           1      39.777 -13.626   5.845  0.00  0.00    -0.196 NA
HETATM    7  C           1      40.548 -10.494   4.569  0.00  0.00     0.248 C 
HETATM    8  C           1      42.796 -11.542   4.446  0.00  0.00     0.105 C 
HETATM    9  N           1      38.913 -12.807   2.108  0.00  0.00    -0.350 N 
HETATM   10  N           1      42.089 -10.306   4.751  0.00  0.00    -0.040 N 
HETATM   11  C           1      44.267 -11.523   4.782  0.00  0.00     0.075 C 
HETATM   12  C           1      42.235 -12.635   3.873  0.00  0.00     0.036 C 
HETATM   13  H           1      38.109 -13.194   1.595  0.00  0.00     0.163 HD
HETATM   14  H           1      42.256 -10.077   5.758  0.00  0.00     0.284 HD
HETATM   15  H           1      42.455  -9.513   4.185  0.00  0.00     0.284 HD
ENDROOT
BRANCH   2  16
HETATM   16  S           1      39.812 -15.316   2.703  0.00  0.00    -0.125 SA
BRANCH  16  17
HETATM   17  C           1      41.352 -16.202   2.321  0.00  0.00     0.077 C 
BRANCH  17  18
HETATM   18  C           1      42.117 -16.453   3.631  0.00  0.00     0.010 C 
BRANCH  18  19
HETATM   19  C           1      43.356 -17.335   3.402  0.00  0.00    -0.004 C 
HETATM   20  C           1      43.110 -18.396   2.321  0.00  0.00     0.005 C 
ENDBRANCH  18  19
ENDBRANCH  17  18
ENDBRANCH  16  17
ENDBRANCH   2  16
BRANCH   2  21
HETATM   21  S           1      41.304 -13.312   0.851  0.00  0.00    -0.125 SA
BRANCH  21  22
HETATM   22  C           1      40.051 -13.031  -0.440  0.00  0.00     0.077 C 
BRANCH  22  23
HETATM   23  C           1      39.689 -14.382  -1.079  0.00  0.00     0.010 C 
BRANCH  23  24
HETATM   24  C           1      39.762 -14.320  -2.613  0.00  0.00    -0.004 C 
HETATM   25  C           1      38.414 -14.659  -3.263  0.00  0.00     0.005 C 
ENDBRANCH  23  24
ENDBRANCH  22  23
ENDBRANCH  21  22
ENDBRANCH   2  21
BRANCH   3  26
HETATM   26  C           1      41.120 -10.600   2.349  0.00  0.00     0.105 C 
HETATM   27  N           1      40.995  -9.988   1.373  0.00  0.00    -0.151 N 
ENDBRANCH   3  26
BRANCH   1  28
HETATM   28  N           1      37.922 -10.805   2.593  0.00  0.00    -0.388 N 
HETATM   29  H           1      37.253 -10.703   3.397  0.00  0.00     0.157 HD
HETATM   30  H           1      37.772 -10.219   1.736  0.00  0.00     0.157 HD
ENDBRANCH   1  28
BRANCH   7  31
HETATM   31  C           1      39.806  -9.167   4.599  0.00  0.00    -0.026 A 
HETATM   32  C           1      40.300  -8.035   4.064  0.00  0.00     0.009 A 
HETATM   33  C           1      39.609  -6.884   4.104  0.00  0.00     0.001 A 
HETATM   34  C           1      38.403  -6.842   4.687  0.00  0.00     0.000 A 
HETATM   35  C           1      37.898  -7.956   5.236  0.00  0.00     0.001 A 
HETATM   36  C           1      38.599  -9.100   5.193  0.00  0.00     0.009 A 
ENDBRANCH   7  31
TORSDOF 11
ENDMDL
MODEL 10
REMARK VINA RESULT:      -6.0      3.027      5.987
REMARK  11 active torsions:
REMARK  status: ('A' for Active; 'I' for Inactive)
REMARK    1  A    between atoms: C_1  and  C_17 
REMARK    2  A    between atoms: C_1  and  S_18 
REMARK    3  A    between atoms: C_2  and  N_23 
REMARK    4  A    between atoms: C_3  and  C_13 
REMARK    5  A    between atoms: C_6  and  S_18 
REMARK    6  A    between atoms: C_6  and  S_19 
REMARK    7  A    between atoms: C_7  and  C_20 
REMARK    8  A    between atoms: C_7  and  C_21 
REMARK    9  A    between atoms: C_9  and  C_24 
REMARK   10  A    between atoms: C_16  and  C_17 
REMARK   11  A    between atoms: S_19  and  C_20 
ROOT
HETATM    1  C           1      41.207 -11.338   6.276  0.00  0.00     0.092 C 
HETATM    2  C           1      41.768 -13.258   4.938  0.00  0.00     0.156 C 
HETATM    3  C           1      41.242 -10.879   4.846  0.00  0.00     0.127 C 
HETATM    4  C           1      42.160 -11.940   4.188  0.00  0.00     0.136 C 
HETATM    5  C           1      43.599 -11.627   4.444  0.00  0.00     0.079 C 
HETATM    6  N           1      44.676 -11.214   4.572  0.00  0.00    -0.196 NA
HETATM    7  C           1      41.695  -9.463   4.298  0.00  0.00     0.248 C 
HETATM    8  C           1      41.713 -10.576   2.078  0.00  0.00     0.105 C 
HETATM    9  N           1      41.454 -12.623   6.308  0.00  0.00    -0.350 N 
HETATM   10  N           1      41.392  -9.335   2.770  0.00  0.00    -0.040 N 
HETATM   11  C           1      41.644 -10.491   0.573  0.00  0.00     0.075 C 
HETATM   12  C           1      42.015 -11.748   2.688  0.00  0.00     0.036 C 
HETATM   13  H           1      41.449 -13.164   7.183  0.00  0.00     0.163 HD
HETATM   14  H           1      42.016  -8.584   2.393  0.00  0.00     0.284 HD
HETATM   15  H           1      40.409  -9.045   2.589  0.00  0.00     0.284 HD
ENDROOT
BRANCH   2  16
HETATM   16  S           1      43.174 -14.399   5.150  0.00  0.00    -0.125 SA
BRANCH  16  17
HETATM   17  C           1      42.941 -15.017   6.843  0.00  0.00     0.077 C 
BRANCH  17  18
HETATM   18  C           1      43.821 -16.261   7.043  0.00  0.00     0.010 C 
BRANCH  18  19
HETATM   19  C           1      43.167 -17.518   6.445  0.00  0.00    -0.004 C 
HETATM   20  C           1      43.979 -18.082   5.272  0.00  0.00     0.005 C 
ENDBRANCH  18  19
ENDBRANCH  17  18
ENDBRANCH  16  17
ENDBRANCH   2  16
BRANCH   2  21
HETATM   21  S           1      40.234 -13.957   4.238  0.00  0.00    -0.125 SA
BRANCH  21  22
HETATM   22  C           1      40.726 -15.699   4.040  0.00  0.00     0.077 C 
BRANCH  22  23
HETATM   23  C           1      40.907 -15.993   2.541  0.00  0.00     0.010 C 
BRANCH  23  24
HETATM   24  C           1      42.168 -16.832   2.278  0.00  0.00    -0.004 C 
HETATM   25  C           1      43.282 -16.000   1.627  0.00  0.00     0.005 C 
ENDBRANCH  23  24
ENDBRANCH  22  23
ENDBRANCH  21  22
ENDBRANCH   2  21
BRANCH   3  26
HETATM   26  C           1      39.885 -10.873   4.239  0.00  0.00     0.105 C 
HETATM   27  N           1      38.791 -10.883   4.620  0.00  0.00    -0.151 N 
ENDBRANCH   3  26
BRANCH   1  28
HETATM   28  N           1      40.895 -10.631   7.280  0.00  0.00    -0.388 N 
HETATM   29  H           1      39.899 -10.337   7.439  0.00  0.00     0.157 HD
HETATM   30  H           1      41.625 -10.326   7.969  0.00  0.00     0.157 HD
ENDBRANCH   1  28
BRANCH   7  31
HETATM   31  C           1      41.114  -8.303   5.092  0.00  0.00    -0.026 A 
HETATM   32  C           1      39.935  -7.725   4.795  0.00  0.00     0.009 A 
HETATM   33  C           1      39.453  -6.707   5.526  0.00  0.00     0.001 A 
HETATM   34  C           1      40.147  -6.242   6.574  0.00  0.00     0.000 A 
HETATM   35  C           1      41.328  -6.797   6.880  0.00  0.00     0.001 A 
HETATM   36  C           1      41.802  -7.811   6.140  0.00  0.00     0.009 A 
ENDBRANCH   7  31
TORSDOF 11
ENDMDL
