MODEL 1
REMARK VINA RESULT:      -9.6      0.000      0.000
REMARK  7 active torsions:
REMARK  status: ('A' for Active; 'I' for Inactive)
REMARK    1  A    between atoms: C_5  and  N_6 
REMARK    2  A    between atoms: C_7  and  S_8 
REMARK    3  A    between atoms: S_8  and  C_9 
REMARK    4  A    between atoms: C_9  and  C_10 
REMARK       I    between atoms: C_10  and  N_11 
REMARK    5  A    between atoms: C_13  and  C_14 
REMARK    6  A    between atoms: C_14  and  N_15 
REMARK       I    between atoms: N_15  and  C_16 
REMARK       I    between atoms: C_16  and  N_17 
REMARK    7  A    between atoms: N_17  and  C_18 
ROOT
HETATM    1  C   UNL     1      41.746 -14.315   6.331  1.00  0.00     0.229 C 
HETATM    2  N   UNL     1      42.345 -13.065   6.130  1.00  0.00    -0.351 N 
HETATM    3  C   UNL     1      43.499 -12.751   6.971  1.00  0.00     0.132 C 
HETATM    4  C   UNL     1      44.472 -11.772   6.295  1.00  0.00     0.021 C 
HETATM    5  C   UNL     1      43.720 -10.534   5.788  1.00  0.00     0.009 C 
HETATM    6  C   UNL     1      42.552 -10.941   4.891  1.00  0.00     0.020 C 
HETATM    7  C   UNL     1      41.618 -11.909   5.604  1.00  0.00     0.126 C 
HETATM    8  O   UNL     1      42.154 -15.077   7.213  1.00  0.00    -0.273 OA
ENDROOT
BRANCH   1   9
HETATM    9  C   UNL     1      40.538 -14.705   5.487  1.00  0.00     0.185 C 
BRANCH   9  10
HETATM   10  S   UNL     1      40.787 -16.242   4.549  1.00  0.00    -0.082 SA
BRANCH  10  11
HETATM   11  C   UNL     1      41.913 -15.735   3.328  1.00  0.00     0.173 A 
HETATM   12  N   UNL     1      42.921 -16.540   2.812  1.00  0.00    -0.299 N 
HETATM   13  C   UNL     1      43.666 -15.711   1.994  1.00  0.00     0.118 A 
HETATM   14  C   UNL     1      43.076 -14.474   2.060  1.00  0.00     0.137 A 
HETATM   15  N   UNL     1      42.004 -14.495   2.901  1.00  0.00    -0.235 NA
BRANCH  12  16
HETATM   16  C   UNL     1      43.140 -17.940   2.967  1.00  0.00     0.047 A 
HETATM   17  C   UNL     1      43.742 -18.477   4.134  1.00  0.00    -0.029 A 
HETATM   18  C   UNL     1      44.055 -19.859   4.159  1.00  0.00    -0.054 A 
HETATM   19  C   UNL     1      44.021 -17.638   5.359  1.00  0.00     0.051 C 
HETATM   20  C   UNL     1      44.722 -20.507   5.345  1.00  0.00     0.049 C 
HETATM   21  C   UNL     1      43.697 -20.676   3.075  1.00  0.00     0.007 A 
HETATM   22  C   UNL     1      43.070 -20.143   1.954  1.00  0.00     0.003 A 
HETATM   23  C   UNL     1      42.802 -18.779   1.892  1.00  0.00     0.030 A 
ENDBRANCH  12  16
ENDBRANCH  10  11
ENDBRANCH   9  10
ENDBRANCH   1   9
BRANCH   4  24
HETATM   24  C   UNL     1      45.601 -11.423   7.275  1.00  0.00     0.130 C 
BRANCH  24  25
HETATM   25  N   UNL     1      45.697  -9.995   7.532  1.00  0.00    -0.342 N 
HETATM   26  C   UNL     1      45.054  -9.188   8.423  1.00  0.00     0.320 C 
HETATM   27  N   UNL     1      44.254  -9.815   9.335  1.00  0.00    -0.309 N 
HETATM   28  O   UNL     1      45.243  -7.980   8.326  1.00  0.00    -0.247 OA
HETATM   29  H   UNL     1      44.309 -10.818   9.364  1.00  0.00     0.170 HD
HETATM   30  H   UNL     1      46.254  -9.448   6.885  1.00  0.00     0.164 HD
BRANCH  27  31
HETATM   31  C   UNL     1      43.430  -9.218  10.313  1.00  0.00     0.039 A 
HETATM   32  C   UNL     1      42.085  -8.904  10.117  1.00  0.00     0.071 A 
HETATM   33  C   UNL     1      41.353  -8.322  11.148  1.00  0.00     0.118 A 
HETATM   34  F   UNL     1      40.061  -8.024  10.953  1.00  0.00    -0.206 F 
HETATM   35  C   UNL     1      41.933  -8.045  12.381  1.00  0.00     0.042 A 
HETATM   36  C   UNL     1      43.271  -8.357  12.588  1.00  0.00     0.005 A 
HETATM   37  C   UNL     1      44.015  -8.942  11.560  1.00  0.00     0.030 A 
ENDBRANCH  27  31
ENDBRANCH  24  25
ENDBRANCH   4  24
TORSDOF 7
ENDMDL
MODEL 2
REMARK VINA RESULT:      -9.6      2.440      3.333
REMARK  7 active torsions:
REMARK  status: ('A' for Active; 'I' for Inactive)
REMARK    1  A    between atoms: C_5  and  N_6 
REMARK    2  A    between atoms: C_7  and  S_8 
REMARK    3  A    between atoms: S_8  and  C_9 
REMARK    4  A    between atoms: C_9  and  C_10 
REMARK       I    between atoms: C_10  and  N_11 
REMARK    5  A    between atoms: C_13  and  C_14 
REMARK    6  A    between atoms: C_14  and  N_15 
REMARK       I    between atoms: N_15  and  C_16 
REMARK       I    between atoms: C_16  and  N_17 
REMARK    7  A    between atoms: N_17  and  C_18 
ROOT
HETATM    1  C   UNL     1      42.458 -10.849   4.354  1.00  0.00     0.229 C 
HETATM    2  N   UNL     1      43.353 -10.966   5.425  1.00  0.00    -0.351 N 
HETATM    3  C   UNL     1      42.995 -10.263   6.656  1.00  0.00     0.132 C 
HETATM    4  C   UNL     1      43.577 -10.936   7.909  1.00  0.00     0.021 C 
HETATM    5  C   UNL     1      45.086 -11.162   7.743  1.00  0.00     0.009 C 
HETATM    6  C   UNL     1      45.378 -11.930   6.456  1.00  0.00     0.020 C 
HETATM    7  C   UNL     1      44.781 -11.226   5.244  1.00  0.00     0.126 C 
HETATM    8  O   UNL     1      41.450 -10.143   4.448  1.00  0.00    -0.273 OA
ENDROOT
BRANCH   1   9
HETATM    9  C   UNL     1      42.772 -11.557   3.042  1.00  0.00     0.185 C 
BRANCH   9  10
HETATM   10  S   UNL     1      43.114 -13.330   3.249  1.00  0.00    -0.082 SA
BRANCH  10  11
HETATM   11  C   UNL     1      41.569 -14.035   2.885  1.00  0.00     0.173 A 
HETATM   12  N   UNL     1      41.317 -15.402   2.880  1.00  0.00    -0.299 N 
HETATM   13  C   UNL     1      40.027 -15.531   2.396  1.00  0.00     0.118 A 
HETATM   14  C   UNL     1      39.581 -14.258   2.143  1.00  0.00     0.137 A 
HETATM   15  N   UNL     1      40.549 -13.342   2.431  1.00  0.00    -0.235 NA
BRANCH  12  16
HETATM   16  C   UNL     1      42.121 -16.481   3.348  1.00  0.00     0.047 A 
HETATM   17  C   UNL     1      42.276 -16.750   4.732  1.00  0.00    -0.029 A 
HETATM   18  C   UNL     1      43.200 -17.750   5.128  1.00  0.00    -0.054 A 
HETATM   19  C   UNL     1      41.463 -16.041   5.790  1.00  0.00     0.051 C 
HETATM   20  C   UNL     1      43.449 -18.081   6.577  1.00  0.00     0.049 C 
HETATM   21  C   UNL     1      43.878 -18.499   4.153  1.00  0.00     0.007 A 
HETATM   22  C   UNL     1      43.685 -18.252   2.798  1.00  0.00     0.003 A 
HETATM   23  C   UNL     1      42.820 -17.239   2.395  1.00  0.00     0.030 A 
ENDBRANCH  12  16
ENDBRANCH  10  11
ENDBRANCH   9  10
ENDBRANCH   1   9
BRANCH   4  24
HETATM   24  C   UNL     1      43.235 -10.088   9.143  1.00  0.00     0.130 C 
BRANCH  24  25
HETATM   25  N   UNL     1      43.356 -10.834  10.385  1.00  0.00    -0.342 N 
HETATM   26  C   UNL     1      43.198 -10.462  11.687  1.00  0.00     0.320 C 
HETATM   27  N   UNL     1      42.728  -9.197  11.899  1.00  0.00    -0.309 N 
HETATM   28  O   UNL     1      43.495 -11.284  12.547  1.00  0.00    -0.247 OA
HETATM   29  H   UNL     1      42.410  -8.696  11.088  1.00  0.00     0.170 HD
HETATM   30  H   UNL     1      43.721 -11.778  10.320  1.00  0.00     0.164 HD
BRANCH  27  31
HETATM   31  C   UNL     1      42.542  -8.543  13.135  1.00  0.00     0.039 A 
HETATM   32  C   UNL     1      41.588  -8.915  14.082  1.00  0.00     0.071 A 
HETATM   33  C   UNL     1      41.487  -8.208  15.277  1.00  0.00     0.118 A 
HETATM   34  F   UNL     1      40.569  -8.572  16.183  1.00  0.00    -0.206 F 
HETATM   35  C   UNL     1      42.323  -7.133  15.556  1.00  0.00     0.042 A 
HETATM   36  C   UNL     1      43.280  -6.756  14.620  1.00  0.00     0.005 A 
HETATM   37  C   UNL     1      43.390  -7.459  13.417  1.00  0.00     0.030 A 
ENDBRANCH  27  31
ENDBRANCH  24  25
ENDBRANCH   4  24
TORSDOF 7
ENDMDL
MODEL 3
REMARK VINA RESULT:      -9.5      3.839     10.336
REMARK  7 active torsions:
REMARK  status: ('A' for Active; 'I' for Inactive)
REMARK    1  A    between atoms: C_5  and  N_6 
REMARK    2  A    between atoms: C_7  and  S_8 
REMARK    3  A    between atoms: S_8  and  C_9 
REMARK    4  A    between atoms: C_9  and  C_10 
REMARK       I    between atoms: C_10  and  N_11 
REMARK    5  A    between atoms: C_13  and  C_14 
REMARK    6  A    between atoms: C_14  and  N_15 
REMARK       I    between atoms: N_15  and  C_16 
REMARK       I    between atoms: C_16  and  N_17 
REMARK    7  A    between atoms: N_17  and  C_18 
ROOT
HETATM    1  C   UNL     1      39.437 -10.372   7.173  1.00  0.00     0.229 C 
HETATM    2  N   UNL     1      40.452 -10.820   6.320  1.00  0.00    -0.351 N 
HETATM    3  C   UNL     1      40.131 -11.961   5.464  1.00  0.00     0.132 C 
HETATM    4  C   UNL     1      40.943 -11.967   4.159  1.00  0.00     0.021 C 
HETATM    5  C   UNL     1      42.441 -11.823   4.461  1.00  0.00     0.009 C 
HETATM    6  C   UNL     1      42.701 -10.593   5.328  1.00  0.00     0.020 C 
HETATM    7  C   UNL     1      41.875 -10.632   6.606  1.00  0.00     0.126 C 
HETATM    8  O   UNL     1      38.350 -10.956   7.224  1.00  0.00    -0.273 OA
ENDROOT
BRANCH   1   9
HETATM    9  C   UNL     1      39.707  -9.186   8.092  1.00  0.00     0.185 C 
BRANCH   9  10
HETATM   10  S   UNL     1      39.489  -9.580   9.853  1.00  0.00    -0.082 SA
BRANCH  10  11
HETATM   11  C   UNL     1      39.963  -8.092  10.612  1.00  0.00     0.173 A 
HETATM   12  N   UNL     1      41.243  -7.829  11.082  1.00  0.00    -0.299 N 
HETATM   13  C   UNL     1      41.147  -6.615  11.739  1.00  0.00     0.118 A 
HETATM   14  C   UNL     1      39.838  -6.221  11.629  1.00  0.00     0.137 A 
HETATM   15  N   UNL     1      39.109  -7.149  10.946  1.00  0.00    -0.235 NA
BRANCH  12  16
HETATM   16  C   UNL     1      42.455  -8.552  10.883  1.00  0.00     0.047 A 
HETATM   17  C   UNL     1      43.363  -8.216   9.847  1.00  0.00    -0.029 A 
HETATM   18  C   UNL     1      44.477  -9.064   9.622  1.00  0.00    -0.054 A 
HETATM   19  C   UNL     1      43.207  -6.970   9.007  1.00  0.00     0.051 C 
HETATM   20  C   UNL     1      45.475  -8.800   8.524  1.00  0.00     0.049 C 
HETATM   21  C   UNL     1      44.701 -10.162  10.469  1.00  0.00     0.007 A 
HETATM   22  C   UNL     1      43.824 -10.455  11.507  1.00  0.00     0.003 A 
HETATM   23  C   UNL     1      42.698  -9.662  11.709  1.00  0.00     0.030 A 
ENDBRANCH  12  16
ENDBRANCH  10  11
ENDBRANCH   9  10
ENDBRANCH   1   9
BRANCH   4  24
HETATM   24  C   UNL     1      40.616 -13.240   3.366  1.00  0.00     0.130 C 
BRANCH  24  25
HETATM   25  N   UNL     1      40.287 -14.367   4.225  1.00  0.00    -0.342 N 
HETATM   26  C   UNL     1      40.847 -15.602   4.356  1.00  0.00     0.320 C 
HETATM   27  N   UNL     1      41.999 -15.819   3.654  1.00  0.00    -0.309 N 
HETATM   28  O   UNL     1      40.271 -16.407   5.080  1.00  0.00    -0.247 OA
HETATM   29  H   UNL     1      42.411 -15.017   3.212  1.00  0.00     0.170 HD
HETATM   30  H   UNL     1      39.432 -14.298   4.765  1.00  0.00     0.164 HD
BRANCH  27  31
HETATM   31  C   UNL     1      42.736 -17.018   3.557  1.00  0.00     0.039 A 
HETATM   32  C   UNL     1      42.648 -17.906   2.486  1.00  0.00     0.071 A 
HETATM   33  C   UNL     1      43.424 -19.062   2.479  1.00  0.00     0.118 A 
HETATM   34  F   UNL     1      43.335 -19.911   1.445  1.00  0.00    -0.206 F 
HETATM   35  C   UNL     1      44.295 -19.356   3.522  1.00  0.00     0.042 A 
HETATM   36  C   UNL     1      44.393 -18.475   4.594  1.00  0.00     0.005 A 
HETATM   37  C   UNL     1      43.619 -17.312   4.610  1.00  0.00     0.030 A 
ENDBRANCH  27  31
ENDBRANCH  24  25
ENDBRANCH   4  24
TORSDOF 7
ENDMDL
MODEL 4
REMARK VINA RESULT:      -9.5      3.622     10.143
REMARK  7 active torsions:
REMARK  status: ('A' for Active; 'I' for Inactive)
REMARK    1  A    between atoms: C_5  and  N_6 
REMARK    2  A    between atoms: C_7  and  S_8 
REMARK    3  A    between atoms: S_8  and  C_9 
REMARK    4  A    between atoms: C_9  and  C_10 
REMARK       I    between atoms: C_10  and  N_11 
REMARK    5  A    between atoms: C_13  and  C_14 
REMARK    6  A    between atoms: C_14  and  N_15 
REMARK       I    between atoms: N_15  and  C_16 
REMARK       I    between atoms: C_16  and  N_17 
REMARK    7  A    between atoms: N_17  and  C_18 
ROOT
HETATM    1  C   UNL     1      42.667 -10.963   4.452  1.00  0.00     0.229 C 
HETATM    2  N   UNL     1      41.485 -11.535   3.965  1.00  0.00    -0.351 N 
HETATM    3  C   UNL     1      41.612 -12.404   2.796  1.00  0.00     0.132 C 
HETATM    4  C   UNL     1      40.513 -13.476   2.736  1.00  0.00     0.021 C 
HETATM    5  C   UNL     1      39.127 -12.831   2.878  1.00  0.00     0.009 C 
HETATM    6  C   UNL     1      39.061 -11.967   4.137  1.00  0.00     0.020 C 
HETATM    7  C   UNL     1      40.169 -10.923   4.151  1.00  0.00     0.126 C 
HETATM    8  O   UNL     1      43.744 -11.155   3.880  1.00  0.00    -0.273 OA
ENDROOT
BRANCH   1   9
HETATM    9  C   UNL     1      42.604 -10.047   5.668  1.00  0.00     0.185 C 
BRANCH   9  10
HETATM   10  S   UNL     1      42.917 -10.914   7.235  1.00  0.00    -0.082 SA
BRANCH  10  11
HETATM   11  C   UNL     1      44.600 -10.577   7.497  1.00  0.00     0.173 A 
HETATM   12  N   UNL     1      45.074  -9.530   8.278  1.00  0.00    -0.299 N 
HETATM   13  C   UNL     1      46.445  -9.530   8.095  1.00  0.00     0.118 A 
HETATM   14  C   UNL     1      46.717 -10.560   7.230  1.00  0.00     0.137 A 
HETATM   15  N   UNL     1      45.568 -11.189   6.852  1.00  0.00    -0.235 NA
BRANCH  12  16
HETATM   16  C   UNL     1      44.374  -8.669   9.173  1.00  0.00     0.047 A 
HETATM   17  C   UNL     1      44.046  -9.072  10.493  1.00  0.00    -0.029 A 
HETATM   18  C   UNL     1      43.229  -8.220  11.278  1.00  0.00    -0.054 A 
HETATM   19  C   UNL     1      44.569 -10.352  11.101  1.00  0.00     0.051 C 
HETATM   20  C   UNL     1      42.808  -8.582  12.678  1.00  0.00     0.049 C 
HETATM   21  C   UNL     1      42.830  -6.973  10.770  1.00  0.00     0.007 A 
HETATM   22  C   UNL     1      43.194  -6.573   9.489  1.00  0.00     0.003 A 
HETATM   23  C   UNL     1      43.952  -7.421   8.687  1.00  0.00     0.030 A 
ENDBRANCH  12  16
ENDBRANCH  10  11
ENDBRANCH   9  10
ENDBRANCH   1   9
BRANCH   4  24
HETATM   24  C   UNL     1      40.662 -14.282   1.438  1.00  0.00     0.130 C 
BRANCH  24  25
HETATM   25  N   UNL     1      42.048 -14.603   1.136  1.00  0.00    -0.342 N 
HETATM   26  C   UNL     1      42.870 -15.594   1.586  1.00  0.00     0.320 C 
HETATM   27  N   UNL     1      42.289 -16.545   2.375  1.00  0.00    -0.309 N 
HETATM   28  O   UNL     1      44.049 -15.542   1.252  1.00  0.00    -0.247 OA
HETATM   29  H   UNL     1      41.288 -16.516   2.448  1.00  0.00     0.170 HD
HETATM   30  H   UNL     1      42.562 -13.935   0.572  1.00  0.00     0.164 HD
BRANCH  27  31
HETATM   31  C   UNL     1      42.919 -17.628   3.024  1.00  0.00     0.039 A 
HETATM   32  C   UNL     1      43.197 -18.851   2.414  1.00  0.00     0.071 A 
HETATM   33  C   UNL     1      43.830 -19.858   3.139  1.00  0.00     0.118 A 
HETATM   34  F   UNL     1      44.095 -21.031   2.545  1.00  0.00    -0.206 F 
HETATM   35  C   UNL     1      44.198 -19.673   4.466  1.00  0.00     0.042 A 
HETATM   36  C   UNL     1      43.929 -18.456   5.083  1.00  0.00     0.005 A 
HETATM   37  C   UNL     1      43.295 -17.439   4.364  1.00  0.00     0.030 A 
ENDBRANCH  27  31
ENDBRANCH  24  25
ENDBRANCH   4  24
TORSDOF 7
ENDMDL
MODEL 5
REMARK VINA RESULT:      -9.5      3.672     10.321
REMARK  7 active torsions:
REMARK  status: ('A' for Active; 'I' for Inactive)
REMARK    1  A    between atoms: C_5  and  N_6 
REMARK    2  A    between atoms: C_7  and  S_8 
REMARK    3  A    between atoms: S_8  and  C_9 
REMARK    4  A    between atoms: C_9  and  C_10 
REMARK       I    between atoms: C_10  and  N_11 
REMARK    5  A    between atoms: C_13  and  C_14 
REMARK    6  A    between atoms: C_14  and  N_15 
REMARK       I    between atoms: N_15  and  C_16 
REMARK       I    between atoms: C_16  and  N_17 
REMARK    7  A    between atoms: N_17  and  C_18 
ROOT
HETATM    1  C   UNL     1      41.484  -9.242   5.317  1.00  0.00     0.229 C 
HETATM    2  N   UNL     1      42.256 -10.386   5.550  1.00  0.00    -0.351 N 
HETATM    3  C   UNL     1      41.986 -11.543   4.696  1.00  0.00     0.132 C 
HETATM    4  C   UNL     1      43.218 -12.444   4.517  1.00  0.00     0.021 C 
HETATM    5  C   UNL     1      43.816 -12.810   5.882  1.00  0.00     0.009 C 
HETATM    6  C   UNL     1      44.103 -11.552   6.700  1.00  0.00     0.020 C 
HETATM    7  C   UNL     1      42.855 -10.692   6.850  1.00  0.00     0.126 C 
HETATM    8  O   UNL     1      40.590  -9.245   4.465  1.00  0.00    -0.273 OA
ENDROOT
BRANCH   1   9
HETATM    9  C   UNL     1      41.715  -8.002   6.172  1.00  0.00     0.185 C 
BRANCH   9  10
HETATM   10  S   UNL     1      40.650  -7.938   7.643  1.00  0.00    -0.082 SA
BRANCH  10  11
HETATM   11  C   UNL     1      41.379  -6.652   8.554  1.00  0.00     0.173 A 
HETATM   12  N   UNL     1      42.466  -6.816   9.404  1.00  0.00    -0.299 N 
HETATM   13  C   UNL     1      42.623  -5.596  10.035  1.00  0.00     0.118 A 
HETATM   14  C   UNL     1      41.640  -4.777   9.539  1.00  0.00     0.137 A 
HETATM   15  N   UNL     1      40.865  -5.445   8.638  1.00  0.00    -0.235 NA
BRANCH  12  16
HETATM   16  C   UNL     1      43.337  -7.933   9.566  1.00  0.00     0.047 A 
HETATM   17  C   UNL     1      43.062  -8.964  10.500  1.00  0.00    -0.029 A 
HETATM   18  C   UNL     1      44.040  -9.969  10.706  1.00  0.00    -0.054 A 
HETATM   19  C   UNL     1      41.752  -9.050  11.247  1.00  0.00     0.051 C 
HETATM   20  C   UNL     1      43.844 -11.085  11.700  1.00  0.00     0.049 C 
HETATM   21  C   UNL     1      45.214  -9.970   9.936  1.00  0.00     0.007 A 
HETATM   22  C   UNL     1      45.452  -8.975   8.994  1.00  0.00     0.003 A 
HETATM   23  C   UNL     1      44.525  -7.952   8.817  1.00  0.00     0.030 A 
ENDBRANCH  12  16
ENDBRANCH  10  11
ENDBRANCH   9  10
ENDBRANCH   1   9
BRANCH   4  24
HETATM   24  C   UNL     1      42.826 -13.677   3.690  1.00  0.00     0.130 C 
BRANCH  24  25
HETATM   25  N   UNL     1      42.067 -14.649   4.460  1.00  0.00    -0.342 N 
HETATM   26  C   UNL     1      42.142 -16.008   4.532  1.00  0.00     0.320 C 
HETATM   27  N   UNL     1      43.182 -16.590   3.866  1.00  0.00    -0.309 N 
HETATM   28  O   UNL     1      41.274 -16.586   5.178  1.00  0.00    -0.247 OA
HETATM   29  H   UNL     1      43.879 -15.969   3.493  1.00  0.00     0.170 HD
HETATM   30  H   UNL     1      41.260 -14.303   4.968  1.00  0.00     0.164 HD
BRANCH  27  31
HETATM   31  C   UNL     1      43.450 -17.968   3.720  1.00  0.00     0.039 A 
HETATM   32  C   UNL     1      43.950 -18.779   4.739  1.00  0.00     0.071 A 
HETATM   33  C   UNL     1      44.175 -20.132   4.498  1.00  0.00     0.118 A 
HETATM   34  F   UNL     1      44.654 -20.906   5.483  1.00  0.00    -0.206 F 
HETATM   35  C   UNL     1      43.909 -20.701   3.258  1.00  0.00     0.042 A 
HETATM   36  C   UNL     1      43.407 -19.902   2.237  1.00  0.00     0.005 A 
HETATM   37  C   UNL     1      43.177 -18.543   2.468  1.00  0.00     0.030 A 
ENDBRANCH  27  31
ENDBRANCH  24  25
ENDBRANCH   4  24
TORSDOF 7
ENDMDL
MODEL 6
REMARK VINA RESULT:      -9.1      2.500      3.639
REMARK  7 active torsions:
REMARK  status: ('A' for Active; 'I' for Inactive)
REMARK    1  A    between atoms: C_5  and  N_6 
REMARK    2  A    between atoms: C_7  and  S_8 
REMARK    3  A    between atoms: S_8  and  C_9 
REMARK    4  A    between atoms: C_9  and  C_10 
REMARK       I    between atoms: C_10  and  N_11 
REMARK    5  A    between atoms: C_13  and  C_14 
REMARK    6  A    between atoms: C_14  and  N_15 
REMARK       I    between atoms: N_15  and  C_16 
REMARK       I    between atoms: C_16  and  N_17 
REMARK    7  A    between atoms: N_17  and  C_18 
ROOT
HETATM    1  C   UNL     1      42.682 -10.983   4.537  1.00  0.00     0.229 C 
HETATM    2  N   UNL     1      41.468 -10.798   5.209  1.00  0.00    -0.351 N 
HETATM    3  C   UNL     1      41.547 -10.275   6.572  1.00  0.00     0.132 C 
HETATM    4  C   UNL     1      40.292  -9.485   6.975  1.00  0.00     0.021 C 
HETATM    5  C   UNL     1      39.028 -10.313   6.704  1.00  0.00     0.009 C 
HETATM    6  C   UNL     1      39.000 -10.794   5.254  1.00  0.00     0.020 C 
HETATM    7  C   UNL     1      40.263 -11.569   4.902  1.00  0.00     0.126 C 
HETATM    8  O   UNL     1      43.757 -10.759   5.102  1.00  0.00    -0.273 OA
ENDROOT
BRANCH   1   9
HETATM    9  C   UNL     1      42.670 -11.525   3.113  1.00  0.00     0.185 C 
BRANCH   9  10
HETATM   10  S   UNL     1      43.204 -13.259   3.003  1.00  0.00    -0.082 SA
BRANCH  10  11
HETATM   11  C   UNL     1      41.693 -14.083   2.770  1.00  0.00     0.173 A 
HETATM   12  N   UNL     1      41.405 -15.343   3.281  1.00  0.00    -0.299 N 
HETATM   13  C   UNL     1      40.178 -15.682   2.741  1.00  0.00     0.118 A 
HETATM   14  C   UNL     1      39.801 -14.626   1.949  1.00  0.00     0.137 A 
HETATM   15  N   UNL     1      40.753 -13.650   1.960  1.00  0.00    -0.235 NA
BRANCH  12  16
HETATM   16  C   UNL     1      42.118 -16.127   4.233  1.00  0.00     0.047 A 
HETATM   17  C   UNL     1      42.988 -17.175   3.836  1.00  0.00    -0.029 A 
HETATM   18  C   UNL     1      43.555 -18.001   4.839  1.00  0.00    -0.054 A 
HETATM   19  C   UNL     1      43.362 -17.411   2.391  1.00  0.00     0.051 C 
HETATM   20  C   UNL     1      44.465 -19.155   4.505  1.00  0.00     0.049 C 
HETATM   21  C   UNL     1      43.310 -17.723   6.193  1.00  0.00     0.007 A 
HETATM   22  C   UNL     1      42.488 -16.666   6.569  1.00  0.00     0.003 A 
HETATM   23  C   UNL     1      41.883 -15.878   5.595  1.00  0.00     0.030 A 
ENDBRANCH  12  16
ENDBRANCH  10  11
ENDBRANCH   9  10
ENDBRANCH   1   9
BRANCH   4  24
HETATM   24  C   UNL     1      40.416  -9.053   8.443  1.00  0.00     0.130 C 
BRANCH  24  25
HETATM   25  N   UNL     1      41.505  -9.724   9.134  1.00  0.00    -0.342 N 
HETATM   26  C   UNL     1      42.029  -9.557  10.381  1.00  0.00     0.320 C 
HETATM   27  N   UNL     1      41.363  -8.694  11.204  1.00  0.00    -0.309 N 
HETATM   28  O   UNL     1      43.047 -10.185  10.653  1.00  0.00    -0.247 OA
HETATM   29  H   UNL     1      40.474  -8.360  10.876  1.00  0.00     0.170 HD
HETATM   30  H   UNL     1      42.068 -10.367   8.588  1.00  0.00     0.164 HD
BRANCH  27  31
HETATM   31  C   UNL     1      41.726  -8.290  12.506  1.00  0.00     0.039 A 
HETATM   32  C   UNL     1      41.017  -8.630  13.657  1.00  0.00     0.071 A 
HETATM   33  C   UNL     1      41.461  -8.187  14.900  1.00  0.00     0.118 A 
HETATM   34  F   UNL     1      40.775  -8.520  16.003  1.00  0.00    -0.206 F 
HETATM   35  C   UNL     1      42.607  -7.409  15.025  1.00  0.00     0.042 A 
HETATM   36  C   UNL     1      43.323  -7.067  13.884  1.00  0.00     0.005 A 
HETATM   37  C   UNL     1      42.886  -7.507  12.631  1.00  0.00     0.030 A 
ENDBRANCH  27  31
ENDBRANCH  24  25
ENDBRANCH   4  24
TORSDOF 7
ENDMDL
MODEL 7
REMARK VINA RESULT:      -9.0      4.753      8.659
REMARK  7 active torsions:
REMARK  status: ('A' for Active; 'I' for Inactive)
REMARK    1  A    between atoms: C_5  and  N_6 
REMARK    2  A    between atoms: C_7  and  S_8 
REMARK    3  A    between atoms: S_8  and  C_9 
REMARK    4  A    between atoms: C_9  and  C_10 
REMARK       I    between atoms: C_10  and  N_11 
REMARK    5  A    between atoms: C_13  and  C_14 
REMARK    6  A    between atoms: C_14  and  N_15 
REMARK       I    between atoms: N_15  and  C_16 
REMARK       I    between atoms: C_16  and  N_17 
REMARK    7  A    between atoms: N_17  and  C_18 
ROOT
HETATM    1  C   UNL     1      39.409 -11.376   3.305  1.00  0.00     0.229 C 
HETATM    2  N   UNL     1      40.488 -11.219   4.184  1.00  0.00    -0.351 N 
HETATM    3  C   UNL     1      41.148 -12.443   4.635  1.00  0.00     0.132 C 
HETATM    4  C   UNL     1      42.627 -12.220   4.989  1.00  0.00     0.021 C 
HETATM    5  C   UNL     1      42.773 -11.044   5.964  1.00  0.00     0.009 C 
HETATM    6  C   UNL     1      42.090  -9.796   5.410  1.00  0.00     0.020 C 
HETATM    7  C   UNL     1      40.629 -10.066   5.074  1.00  0.00     0.126 C 
HETATM    8  O   UNL     1      39.018 -12.501   2.981  1.00  0.00    -0.273 OA
ENDROOT
BRANCH   1   9
HETATM    9  C   UNL     1      38.678 -10.140   2.797  1.00  0.00     0.185 C 
BRANCH   9  10
HETATM   10  S   UNL     1      38.174 -10.272   1.056  1.00  0.00    -0.082 SA
BRANCH  10  11
HETATM   11  C   UNL     1      39.658  -9.917   0.228  1.00  0.00     0.173 A 
HETATM   12  N   UNL     1      40.429 -10.864  -0.434  1.00  0.00    -0.299 N 
HETATM   13  C   UNL     1      41.580 -10.198  -0.812  1.00  0.00     0.118 A 
HETATM   14  C   UNL     1      41.442  -8.907  -0.365  1.00  0.00     0.137 A 
HETATM   15  N   UNL     1      40.258  -8.749   0.293  1.00  0.00    -0.235 NA
BRANCH  12  16
HETATM   16  C   UNL     1      40.122 -12.214  -0.775  1.00  0.00     0.047 A 
HETATM   17  C   UNL     1      39.372 -12.539  -1.934  1.00  0.00    -0.029 A 
HETATM   18  C   UNL     1      38.987 -13.889  -2.134  1.00  0.00    -0.054 A 
HETATM   19  C   UNL     1      39.007 -11.509  -2.976  1.00  0.00     0.051 C 
HETATM   20  C   UNL     1      38.164 -14.318  -3.321  1.00  0.00     0.049 C 
HETATM   21  C   UNL     1      39.417 -14.878  -1.235  1.00  0.00     0.007 A 
HETATM   22  C   UNL     1      40.187 -14.550  -0.126  1.00  0.00     0.003 A 
HETATM   23  C   UNL     1      40.530 -13.223   0.113  1.00  0.00     0.030 A 
ENDBRANCH  12  16
ENDBRANCH  10  11
ENDBRANCH   9  10
ENDBRANCH   1   9
BRANCH   4  24
HETATM   24  C   UNL     1      43.218 -13.526   5.539  1.00  0.00     0.130 C 
BRANCH  24  25
HETATM   25  N   UNL     1      42.211 -14.556   5.738  1.00  0.00    -0.342 N 
HETATM   26  C   UNL     1      42.169 -15.868   5.368  1.00  0.00     0.320 C 
HETATM   27  N   UNL     1      43.309 -16.374   4.812  1.00  0.00    -0.309 N 
HETATM   28  O   UNL     1      41.119 -16.473   5.559  1.00  0.00    -0.247 OA
HETATM   29  H   UNL     1      44.122 -15.785   4.844  1.00  0.00     0.170 HD
HETATM   30  H   UNL     1      41.322 -14.261   6.125  1.00  0.00     0.164 HD
BRANCH  27  31
HETATM   31  C   UNL     1      43.510 -17.666   4.283  1.00  0.00     0.039 A 
HETATM   32  C   UNL     1      43.979 -18.750   5.024  1.00  0.00     0.071 A 
HETATM   33  C   UNL     1      44.138 -19.991   4.412  1.00  0.00     0.118 A 
HETATM   34  F   UNL     1      44.588 -21.029   5.131  1.00  0.00    -0.206 F 
HETATM   35  C   UNL     1      43.834 -20.179   3.069  1.00  0.00     0.042 A 
HETATM   36  C   UNL     1      43.362 -19.106   2.321  1.00  0.00     0.005 A 
HETATM   37  C   UNL     1      43.199 -17.857   2.926  1.00  0.00     0.030 A 
ENDBRANCH  27  31
ENDBRANCH  24  25
ENDBRANCH   4  24
TORSDOF 7
ENDMDL
MODEL 8
REMARK VINA RESULT:      -9.0      3.977     11.574
REMARK  7 active torsions:
REMARK  status: ('A' for Active; 'I' for Inactive)
REMARK    1  A    between atoms: C_5  and  N_6 
REMARK    2  A    between atoms: C_7  and  S_8 
REMARK    3  A    between atoms: S_8  and  C_9 
REMARK    4  A    between atoms: C_9  and  C_10 
REMARK       I    between atoms: C_10  and  N_11 
REMARK    5  A    between atoms: C_13  and  C_14 
REMARK    6  A    between atoms: C_14  and  N_15 
REMARK       I    between atoms: N_15  and  C_16 
REMARK       I    between atoms: C_16  and  N_17 
REMARK    7  A    between atoms: N_17  and  C_18 
ROOT
HETATM    1  C   UNL     1      44.332 -10.370   8.770  1.00  0.00     0.229 C 
HETATM    2  N   UNL     1      43.582 -10.894   7.710  1.00  0.00    -0.351 N 
HETATM    3  C   UNL     1      44.043 -12.163   7.148  1.00  0.00     0.132 C 
HETATM    4  C   UNL     1      42.899 -12.984   6.531  1.00  0.00     0.021 C 
HETATM    5  C   UNL     1      42.095 -12.126   5.545  1.00  0.00     0.009 C 
HETATM    6  C   UNL     1      41.621 -10.837   6.213  1.00  0.00     0.020 C 
HETATM    7  C   UNL     1      42.787 -10.060   6.809  1.00  0.00     0.126 C 
HETATM    8  O   UNL     1      45.356 -10.938   9.161  1.00  0.00    -0.273 OA
ENDROOT
BRANCH   1   9
HETATM    9  C   UNL     1      43.907  -9.050   9.402  1.00  0.00     0.185 C 
BRANCH   9  10
HETATM   10  S   UNL     1      43.727  -9.146  11.208  1.00  0.00    -0.082 SA
BRANCH  10  11
HETATM   11  C   UNL     1      42.004  -9.044  11.400  1.00  0.00     0.173 A 
HETATM   12  N   UNL     1      41.291  -7.853  11.425  1.00  0.00    -0.299 N 
HETATM   13  C   UNL     1      39.994  -8.211  11.747  1.00  0.00     0.118 A 
HETATM   14  C   UNL     1      39.998  -9.576  11.894  1.00  0.00     0.137 A 
HETATM   15  N   UNL     1      41.249 -10.079  11.696  1.00  0.00    -0.235 NA
BRANCH  12  16
HETATM   16  C   UNL     1      41.711  -6.530  11.102  1.00  0.00     0.047 A 
HETATM   17  C   UNL     1      42.154  -5.623  12.099  1.00  0.00    -0.029 A 
HETATM   18  C   UNL     1      42.424  -4.283  11.723  1.00  0.00    -0.054 A 
HETATM   19  C   UNL     1      42.386  -6.045  13.531  1.00  0.00     0.051 C 
HETATM   20  C   UNL     1      42.869  -3.246  12.722  1.00  0.00     0.049 C 
HETATM   21  C   UNL     1      42.325  -3.902  10.375  1.00  0.00     0.007 A 
HETATM   22  C   UNL     1      41.930  -4.813   9.402  1.00  0.00     0.003 A 
HETATM   23  C   UNL     1      41.611  -6.119   9.763  1.00  0.00     0.030 A 
ENDBRANCH  12  16
ENDBRANCH  10  11
ENDBRANCH   9  10
ENDBRANCH   1   9
BRANCH   4  24
HETATM   24  C   UNL     1      43.478 -14.250   5.884  1.00  0.00     0.130 C 
BRANCH  24  25
HETATM   25  N   UNL     1      42.585 -14.829   4.892  1.00  0.00    -0.342 N 
HETATM   26  C   UNL     1      42.538 -16.068   4.327  1.00  0.00     0.320 C 
HETATM   27  N   UNL     1      43.394 -16.999   4.845  1.00  0.00    -0.309 N 
HETATM   28  O   UNL     1      41.744 -16.238   3.408  1.00  0.00    -0.247 OA
HETATM   29  H   UNL     1      43.886 -16.738   5.681  1.00  0.00     0.170 HD
HETATM   30  H   UNL     1      41.932 -14.200   4.440  1.00  0.00     0.164 HD
BRANCH  27  31
HETATM   31  C   UNL     1      43.596 -18.324   4.402  1.00  0.00     0.039 A 
HETATM   32  C   UNL     1      43.569 -18.714   3.064  1.00  0.00     0.071 A 
HETATM   33  C   UNL     1      43.788 -20.047   2.727  1.00  0.00     0.118 A 
HETATM   34  F   UNL     1      43.761 -20.415   1.438  1.00  0.00    -0.206 F 
HETATM   35  C   UNL     1      44.039 -21.008   3.700  1.00  0.00     0.042 A 
HETATM   36  C   UNL     1      44.073 -20.629   5.037  1.00  0.00     0.005 A 
HETATM   37  C   UNL     1      43.854 -19.293   5.386  1.00  0.00     0.030 A 
ENDBRANCH  27  31
ENDBRANCH  24  25
ENDBRANCH   4  24
TORSDOF 7
ENDMDL
MODEL 9
REMARK VINA RESULT:      -8.9      3.805     11.240
REMARK  7 active torsions:
REMARK  status: ('A' for Active; 'I' for Inactive)
REMARK    1  A    between atoms: C_5  and  N_6 
REMARK    2  A    between atoms: C_7  and  S_8 
REMARK    3  A    between atoms: S_8  and  C_9 
REMARK    4  A    between atoms: C_9  and  C_10 
REMARK       I    between atoms: C_10  and  N_11 
REMARK    5  A    between atoms: C_13  and  C_14 
REMARK    6  A    between atoms: C_14  and  N_15 
REMARK       I    between atoms: N_15  and  C_16 
REMARK       I    between atoms: C_16  and  N_17 
REMARK    7  A    between atoms: N_17  and  C_18 
ROOT
HETATM    1  C   UNL     1      42.860  -8.970   7.658  1.00  0.00     0.229 C 
HETATM    2  N   UNL     1      43.319 -10.183   7.131  1.00  0.00    -0.351 N 
HETATM    3  C   UNL     1      42.392 -10.916   6.270  1.00  0.00     0.132 C 
HETATM    4  C   UNL     1      43.114 -11.792   5.236  1.00  0.00     0.021 C 
HETATM    5  C   UNL     1      44.155 -12.686   5.925  1.00  0.00     0.009 C 
HETATM    6  C   UNL     1      45.107 -11.848   6.776  1.00  0.00     0.020 C 
HETATM    7  C   UNL     1      44.345 -10.997   7.784  1.00  0.00     0.126 C 
HETATM    8  O   UNL     1      41.709  -8.581   7.437  1.00  0.00    -0.273 OA
ENDROOT
BRANCH   1   9
HETATM    9  C   UNL     1      43.777  -8.157   8.563  1.00  0.00     0.185 C 
BRANCH   9  10
HETATM   10  S   UNL     1      42.946  -7.545  10.060  1.00  0.00    -0.082 SA
BRANCH  10  11
HETATM   11  C   UNL     1      42.918  -8.967  11.057  1.00  0.00     0.173 A 
HETATM   12  N   UNL     1      42.226  -9.064  12.258  1.00  0.00    -0.299 N 
HETATM   13  C   UNL     1      42.592 -10.287  12.790  1.00  0.00     0.118 A 
HETATM   14  C   UNL     1      43.467 -10.850  11.896  1.00  0.00     0.137 A 
HETATM   15  N   UNL     1      43.676 -10.018  10.836  1.00  0.00    -0.235 NA
BRANCH  12  16
HETATM   16  C   UNL     1      41.261  -8.185  12.829  1.00  0.00     0.047 A 
HETATM   17  C   UNL     1      41.608  -7.246  13.834  1.00  0.00    -0.029 A 
HETATM   18  C   UNL     1      40.572  -6.503  14.453  1.00  0.00    -0.054 A 
HETATM   19  C   UNL     1      43.041  -6.983  14.234  1.00  0.00     0.051 C 
HETATM   20  C   UNL     1      40.847  -5.507  15.550  1.00  0.00     0.049 C 
HETATM   21  C   UNL     1      39.247  -6.652  14.012  1.00  0.00     0.007 A 
HETATM   22  C   UNL     1      38.927  -7.546  12.998  1.00  0.00     0.003 A 
HETATM   23  C   UNL     1      39.925  -8.320  12.415  1.00  0.00     0.030 A 
ENDBRANCH  12  16
ENDBRANCH  10  11
ENDBRANCH   9  10
ENDBRANCH   1   9
BRANCH   4  24
HETATM   24  C   UNL     1      42.076 -12.595   4.438  1.00  0.00     0.130 C 
BRANCH  24  25
HETATM   25  N   UNL     1      42.614 -13.128   3.197  1.00  0.00    -0.342 N 
HETATM   26  C   UNL     1      43.033 -14.379   2.853  1.00  0.00     0.320 C 
HETATM   27  N   UNL     1      42.815 -15.362   3.775  1.00  0.00    -0.309 N 
HETATM   28  O   UNL     1      43.570 -14.511   1.758  1.00  0.00    -0.247 OA
HETATM   29  H   UNL     1      42.248 -15.115   4.567  1.00  0.00     0.170 HD
HETATM   30  H   UNL     1      42.828 -12.460   2.465  1.00  0.00     0.164 HD
BRANCH  27  31
HETATM   31  C   UNL     1      43.210 -16.715   3.703  1.00  0.00     0.039 A 
HETATM   32  C   UNL     1      42.950 -17.548   2.615  1.00  0.00     0.071 A 
HETATM   33  C   UNL     1      43.388 -18.870   2.636  1.00  0.00     0.118 A 
HETATM   34  F   UNL     1      43.136 -19.665   1.586  1.00  0.00    -0.206 F 
HETATM   35  C   UNL     1      44.087 -19.384   3.722  1.00  0.00     0.042 A 
HETATM   36  C   UNL     1      44.355 -18.561   4.810  1.00  0.00     0.005 A 
HETATM   37  C   UNL     1      43.920 -17.233   4.799  1.00  0.00     0.030 A 
ENDBRANCH  27  31
ENDBRANCH  24  25
ENDBRANCH   4  24
TORSDOF 7
ENDMDL
MODEL 10
REMARK VINA RESULT:      -8.9      2.656      3.545
REMARK  7 active torsions:
REMARK  status: ('A' for Active; 'I' for Inactive)
REMARK    1  A    between atoms: C_5  and  N_6 
REMARK    2  A    between atoms: C_7  and  S_8 
REMARK    3  A    between atoms: S_8  and  C_9 
REMARK    4  A    between atoms: C_9  and  C_10 
REMARK       I    between atoms: C_10  and  N_11 
REMARK    5  A    between atoms: C_13  and  C_14 
REMARK    6  A    between atoms: C_14  and  N_15 
REMARK       I    between atoms: N_15  and  C_16 
REMARK       I    between atoms: C_16  and  N_17 
REMARK    7  A    between atoms: N_17  and  C_18 
ROOT
HETATM    1  C   UNL     1      42.961 -11.855   5.374  1.00  0.00     0.229 C 
HETATM    2  N   UNL     1      41.637 -11.504   5.666  1.00  0.00    -0.351 N 
HETATM    3  C   UNL     1      41.420 -10.161   6.203  1.00  0.00     0.132 C 
HETATM    4  C   UNL     1      40.026  -9.610   5.867  1.00  0.00     0.021 C 
HETATM    5  C   UNL     1      38.940 -10.619   6.268  1.00  0.00     0.009 C 
HETATM    6  C   UNL     1      39.216 -11.985   5.642  1.00  0.00     0.020 C 
HETATM    7  C   UNL     1      40.608 -12.488   6.003  1.00  0.00     0.126 C 
HETATM    8  O   UNL     1      43.888 -11.076   5.613  1.00  0.00    -0.273 OA
ENDROOT
BRANCH   1   9
HETATM    9  C   UNL     1      43.256 -13.240   4.812  1.00  0.00     0.185 C 
BRANCH   9  10
HETATM   10  S   UNL     1      43.125 -13.320   3.001  1.00  0.00    -0.082 SA
BRANCH  10  11
HETATM   11  C   UNL     1      41.554 -14.029   2.788  1.00  0.00     0.173 A 
HETATM   12  N   UNL     1      41.296 -15.392   2.866  1.00  0.00    -0.299 N 
HETATM   13  C   UNL     1      39.973 -15.534   2.488  1.00  0.00     0.118 A 
HETATM   14  C   UNL     1      39.515 -14.271   2.209  1.00  0.00     0.137 A 
HETATM   15  N   UNL     1      40.505 -13.349   2.380  1.00  0.00    -0.235 NA
BRANCH  12  16
HETATM   16  C   UNL     1      42.129 -16.455   3.323  1.00  0.00     0.047 A 
HETATM   17  C   UNL     1      42.257 -16.763   4.701  1.00  0.00    -0.029 A 
HETATM   18  C   UNL     1      43.208 -17.740   5.091  1.00  0.00    -0.054 A 
HETATM   19  C   UNL     1      41.389 -16.120   5.758  1.00  0.00     0.051 C 
HETATM   20  C   UNL     1      43.431 -18.108   6.535  1.00  0.00     0.049 C 
HETATM   21  C   UNL     1      43.940 -18.430   4.112  1.00  0.00     0.007 A 
HETATM   22  C   UNL     1      43.774 -18.146   2.762  1.00  0.00     0.003 A 
HETATM   23  C   UNL     1      42.882 -17.154   2.366  1.00  0.00     0.030 A 
ENDBRANCH  12  16
ENDBRANCH  10  11
ENDBRANCH   9  10
ENDBRANCH   1   9
BRANCH   4  24
HETATM   24  C   UNL     1      39.845  -8.243   6.543  1.00  0.00     0.130 C 
BRANCH  24  25
HETATM   25  N   UNL     1      39.140  -8.335   7.811  1.00  0.00    -0.342 N 
HETATM   26  C   UNL     1      39.589  -8.439   9.094  1.00  0.00     0.320 C 
HETATM   27  N   UNL     1      40.938  -8.321   9.271  1.00  0.00    -0.309 N 
HETATM   28  O   UNL     1      38.752  -8.633   9.969  1.00  0.00    -0.247 OA
HETATM   29  H   UNL     1      41.472  -8.035   8.470  1.00  0.00     0.170 HD
HETATM   30  H   UNL     1      38.133  -8.448   7.769  1.00  0.00     0.164 HD
BRANCH  27  31
HETATM   31  C   UNL     1      41.665  -8.459  10.473  1.00  0.00     0.039 A 
HETATM   32  C   UNL     1      42.175  -9.668  10.945  1.00  0.00     0.071 A 
HETATM   33  C   UNL     1      42.886  -9.699  12.142  1.00  0.00     0.118 A 
HETATM   34  F   UNL     1      43.375 -10.865  12.588  1.00  0.00    -0.206 F 
HETATM   35  C   UNL     1      43.105  -8.544  12.884  1.00  0.00     0.042 A 
HETATM   36  C   UNL     1      42.604  -7.333  12.421  1.00  0.00     0.005 A 
HETATM   37  C   UNL     1      41.889  -7.291  11.221  1.00  0.00     0.030 A 
ENDBRANCH  27  31
ENDBRANCH  24  25
ENDBRANCH   4  24
TORSDOF 7
ENDMDL
