MODEL 1
REMARK VINA RESULT:      -9.2      0.000      0.000
REMARK  5 active torsions:
REMARK  status: ('A' for Active; 'I' for Inactive)
REMARK    1  A    between atoms: C_7  and  C_8 
REMARK    2  A    between atoms: C_16  and  C_17 
REMARK    3  A    between atoms: C_19  and  O_20 
REMARK    4  A    between atoms: C_24  and  C_25 
REMARK       I    between atoms: C_25  and  N_26 
REMARK    5  A    between atoms: N_26  and  C_27 
ROOT
HETATM    1  C   UNL     1      40.809 -12.200  -0.164  1.00  0.00     0.070 C 
HETATM    2  C   UNL     1      41.225 -13.040   1.019  1.00  0.00     0.037 C 
HETATM    3  N   UNL     1      41.998 -14.161   0.721  1.00  0.00    -0.192 N 
HETATM    4  C   UNL     1      42.246 -15.132   1.623  1.00  0.00     0.726 A 
HETATM    5  N   UNL     1      41.902 -14.931   2.927  1.00  0.00    -0.083 N 
HETATM    6  N   UNL     1      42.168 -16.009   3.687  1.00  0.00    -0.135 NA
HETATM    7  C   UNL     1      42.700 -16.845   2.775  1.00  0.00     0.200 A 
HETATM    8  N   UNL     1      42.775 -16.321   1.498  1.00  0.00    -0.041 NA
HETATM    9  C   UNL     1      41.351 -13.676   3.443  1.00  0.00     0.202 C 
HETATM   10  C   UNL     1      40.886 -12.771   2.307  1.00  0.00     0.062 C 
HETATM   11  H   UNL     1      42.129 -14.385  -0.263  1.00  0.00     0.184 HD
ENDROOT
BRANCH  10  12
HETATM   12  C   UNL     1      39.871 -11.722   2.621  1.00  0.00     0.256 C 
HETATM   13  N   UNL     1      40.400 -10.499   2.967  1.00  0.00    -0.323 N 
HETATM   14  H   UNL     1      41.405 -10.385   2.950  1.00  0.00     0.169 HD
HETATM   15  O   UNL     1      38.682 -12.018   2.586  1.00  0.00    -0.267 OA
BRANCH  13  16
HETATM   16  C   UNL     1      39.695  -9.341   3.362  1.00  0.00     0.035 A 
HETATM   17  C   UNL     1      39.515  -8.218   2.552  1.00  0.00     0.029 A 
HETATM   18  C   UNL     1      38.803  -7.111   3.027  1.00  0.00     0.002 A 
HETATM   19  C   UNL     1      38.257  -7.122   4.308  1.00  0.00     0.000 A 
HETATM   20  C   UNL     1      38.430  -8.237   5.122  1.00  0.00     0.002 A 
HETATM   21  C   UNL     1      39.152  -9.338   4.654  1.00  0.00     0.029 A 
ENDBRANCH  13  16
ENDBRANCH  10  12
BRANCH   9  22
HETATM   22  C   UNL     1      42.399 -13.025   4.349  1.00  0.00    -0.025 A 
HETATM   23  C   UNL     1      42.421 -13.256   5.738  1.00  0.00     0.046 A 
HETATM   24  C   UNL     1      43.400 -12.660   6.527  1.00  0.00     0.066 A 
HETATM   25  C   UNL     1      44.357 -11.825   5.966  1.00  0.00     0.036 A 
HETATM   26  C   UNL     1      44.334 -11.570   4.597  1.00  0.00     0.003 A 
HETATM   27  C   UNL     1      43.361 -12.165   3.791  1.00  0.00     0.010 A 
BRANCH  24  28
HETATM   28  O   UNL     1      43.458 -12.875   7.872  1.00  0.00    -0.361 OA
HETATM   29  H   UNL     1      43.190 -13.791   8.059  1.00  0.00     0.217 HD
ENDBRANCH  24  28
ENDBRANCH   9  22
BRANCH   7  30
HETATM   30  C   UNL     1      43.236 -18.153   3.128  1.00  0.00     0.036 A 
HETATM   31  C   UNL     1      43.918 -18.405   4.327  1.00  0.00     0.048 A 
HETATM   32 CL   UNL     1      44.265 -17.174   5.494  1.00  0.00    -0.083 Cl
HETATM   33  C   UNL     1      44.398 -19.691   4.607  1.00  0.00     0.025 A 
HETATM   34  C   UNL     1      44.206 -20.734   3.699  1.00  0.00     0.002 A 
HETATM   35  C   UNL     1      43.539 -20.495   2.502  1.00  0.00     0.001 A 
HETATM   36  C   UNL     1      43.060 -19.215   2.218  1.00  0.00     0.017 A 
ENDBRANCH   7  30
TORSDOF 5
ENDMDL
MODEL 2
REMARK VINA RESULT:      -9.0      3.138      6.814
REMARK  5 active torsions:
REMARK  status: ('A' for Active; 'I' for Inactive)
REMARK    1  A    between atoms: C_7  and  C_8 
REMARK    2  A    between atoms: C_16  and  C_17 
REMARK    3  A    between atoms: C_19  and  O_20 
REMARK    4  A    between atoms: C_24  and  C_25 
REMARK       I    between atoms: C_25  and  N_26 
REMARK    5  A    between atoms: N_26  and  C_27 
ROOT
HETATM    1  C   UNL     1      38.241 -10.543   2.576  1.00  0.00     0.070 C 
HETATM    2  C   UNL     1      39.543 -11.011   3.181  1.00  0.00     0.037 C 
HETATM    3  N   UNL     1      39.779 -10.606   4.494  1.00  0.00    -0.192 N 
HETATM    4  C   UNL     1      40.982 -10.735   5.088  1.00  0.00     0.726 A 
HETATM    5  N   UNL     1      41.955 -11.461   4.467  1.00  0.00    -0.083 N 
HETATM    6  N   UNL     1      43.106 -11.452   5.163  1.00  0.00    -0.135 NA
HETATM    7  C   UNL     1      42.762 -10.703   6.228  1.00  0.00     0.200 A 
HETATM    8  N   UNL     1      41.450 -10.264   6.214  1.00  0.00    -0.041 NA
HETATM    9  C   UNL     1      41.754 -12.197   3.217  1.00  0.00     0.202 C 
HETATM   10  C   UNL     1      40.463 -11.768   2.528  1.00  0.00     0.062 C 
HETATM   11  H   UNL     1      39.118  -9.947   4.900  1.00  0.00     0.184 HD
ENDROOT
BRANCH  10  12
HETATM   12  C   UNL     1      40.342 -12.010   1.059  1.00  0.00     0.256 C 
HETATM   13  N   UNL     1      39.346 -12.892   0.704  1.00  0.00    -0.323 N 
HETATM   14  H   UNL     1      38.759 -13.276   1.433  1.00  0.00     0.169 HD
HETATM   15  O   UNL     1      41.130 -11.456   0.300  1.00  0.00    -0.267 OA
BRANCH  13  16
HETATM   16  C   UNL     1      39.031 -13.351  -0.594  1.00  0.00     0.035 A 
HETATM   17  C   UNL     1      39.546 -14.518  -1.159  1.00  0.00     0.029 A 
HETATM   18  C   UNL     1      39.181 -14.897  -2.456  1.00  0.00     0.002 A 
HETATM   19  C   UNL     1      38.290 -14.119  -3.191  1.00  0.00     0.000 A 
HETATM   20  C   UNL     1      37.768 -12.955  -2.635  1.00  0.00     0.002 A 
HETATM   21  C   UNL     1      38.143 -12.569  -1.345  1.00  0.00     0.029 A 
ENDBRANCH  13  16
ENDBRANCH  10  12
BRANCH   9  22
HETATM   22  C   UNL     1      41.811 -13.695   3.524  1.00  0.00    -0.025 A 
HETATM   23  C   UNL     1      40.784 -14.342   4.238  1.00  0.00     0.046 A 
HETATM   24  C   UNL     1      40.862 -15.710   4.483  1.00  0.00     0.066 A 
HETATM   25  C   UNL     1      41.950 -16.452   4.042  1.00  0.00     0.036 A 
HETATM   26  C   UNL     1      42.983 -15.821   3.355  1.00  0.00     0.003 A 
HETATM   27  C   UNL     1      42.917 -14.451   3.096  1.00  0.00     0.010 A 
BRANCH  24  28
HETATM   28  O   UNL     1      39.878 -16.368   5.158  1.00  0.00    -0.361 OA
HETATM   29  H   UNL     1      39.517 -15.783   5.845  1.00  0.00     0.217 HD
ENDBRANCH  24  28
ENDBRANCH   9  22
BRANCH   7  30
HETATM   30  C   UNL     1      43.667 -10.460   7.343  1.00  0.00     0.036 A 
HETATM   31  C   UNL     1      45.044 -10.720   7.283  1.00  0.00     0.048 A 
HETATM   32 CL   UNL     1      45.815 -11.427   5.904  1.00  0.00    -0.083 Cl
HETATM   33  C   UNL     1      45.860 -10.451   8.391  1.00  0.00     0.025 A 
HETATM   34  C   UNL     1      45.314  -9.926   9.564  1.00  0.00     0.002 A 
HETATM   35  C   UNL     1      43.948  -9.672   9.638  1.00  0.00     0.001 A 
HETATM   36  C   UNL     1      43.132  -9.939   8.538  1.00  0.00     0.017 A 
ENDBRANCH   7  30
TORSDOF 5
ENDMDL
MODEL 3
REMARK VINA RESULT:      -8.9      6.003     10.128
REMARK  5 active torsions:
REMARK  status: ('A' for Active; 'I' for Inactive)
REMARK    1  A    between atoms: C_7  and  C_8 
REMARK    2  A    between atoms: C_16  and  C_17 
REMARK    3  A    between atoms: C_19  and  O_20 
REMARK    4  A    between atoms: C_24  and  C_25 
REMARK       I    between atoms: C_25  and  N_26 
REMARK    5  A    between atoms: N_26  and  C_27 
ROOT
HETATM    1  C   UNL     1      46.393 -10.818   7.497  1.00  0.00     0.070 C 
HETATM    2  C   UNL     1      45.141 -10.388   8.222  1.00  0.00     0.037 C 
HETATM    3  N   UNL     1      45.341  -9.665   9.397  1.00  0.00    -0.192 N 
HETATM    4  C   UNL     1      44.349  -9.418  10.275  1.00  0.00     0.726 A 
HETATM    5  N   UNL     1      43.063  -9.706   9.924  1.00  0.00    -0.083 N 
HETATM    6  N   UNL     1      42.202  -9.449  10.924  1.00  0.00    -0.135 NA
HETATM    7  C   UNL     1      43.035  -8.980  11.872  1.00  0.00     0.200 A 
HETATM    8  N   UNL     1      44.363  -8.934  11.489  1.00  0.00    -0.041 NA
HETATM    9  C   UNL     1      42.667 -10.195   8.601  1.00  0.00     0.202 C 
HETATM   10  C   UNL     1      43.879 -10.671   7.805  1.00  0.00     0.062 C 
HETATM   11  H   UNL     1      46.300  -9.578   9.729  1.00  0.00     0.184 HD
ENDROOT
BRANCH  10  12
HETATM   12  C   UNL     1      43.646 -11.638   6.691  1.00  0.00     0.256 C 
HETATM   13  N   UNL     1      43.215 -12.882   7.095  1.00  0.00    -0.323 N 
HETATM   14  H   UNL     1      43.055 -13.041   8.081  1.00  0.00     0.169 HD
HETATM   15  O   UNL     1      43.880 -11.285   5.541  1.00  0.00    -0.267 OA
BRANCH  13  16
HETATM   16  C   UNL     1      42.963 -14.008   6.280  1.00  0.00     0.035 A 
HETATM   17  C   UNL     1      41.858 -14.134   5.437  1.00  0.00     0.029 A 
HETATM   18  C   UNL     1      41.686 -15.288   4.664  1.00  0.00     0.002 A 
HETATM   19  C   UNL     1      42.622 -16.318   4.721  1.00  0.00     0.000 A 
HETATM   20  C   UNL     1      43.728 -16.201   5.557  1.00  0.00     0.002 A 
HETATM   21  C   UNL     1      43.894 -15.054   6.338  1.00  0.00     0.029 A 
ENDBRANCH  13  16
ENDBRANCH  10  12
BRANCH   9  22
HETATM   22  C   UNL     1      41.872  -9.094   7.898  1.00  0.00    -0.025 A 
HETATM   23  C   UNL     1      40.506  -9.251   7.590  1.00  0.00     0.046 A 
HETATM   24  C   UNL     1      39.811  -8.220   6.965  1.00  0.00     0.066 A 
HETATM   25  C   UNL     1      40.448  -7.033   6.626  1.00  0.00     0.036 A 
HETATM   26  C   UNL     1      41.803  -6.874   6.904  1.00  0.00     0.003 A 
HETATM   27  C   UNL     1      42.513  -7.896   7.536  1.00  0.00     0.010 A 
BRANCH  24  28
HETATM   28  O   UNL     1      38.486  -8.334   6.666  1.00  0.00    -0.361 OA
HETATM   29  H   UNL     1      38.076  -7.453   6.694  1.00  0.00     0.217 HD
ENDBRANCH  24  28
ENDBRANCH   9  22
BRANCH   7  30
HETATM   30  C   UNL     1      42.561  -8.477  13.154  1.00  0.00     0.036 A 
HETATM   31  C   UNL     1      41.443  -9.001  13.819  1.00  0.00     0.048 A 
HETATM   32 CL   UNL     1      40.455 -10.260  13.159  1.00  0.00    -0.083 Cl
HETATM   33  C   UNL     1      41.050  -8.475  15.057  1.00  0.00     0.025 A 
HETATM   34  C   UNL     1      41.761  -7.425  15.641  1.00  0.00     0.002 A 
HETATM   35  C   UNL     1      42.866  -6.890  14.987  1.00  0.00     0.001 A 
HETATM   36  C   UNL     1      43.261  -7.410  13.753  1.00  0.00     0.017 A 
ENDBRANCH   7  30
TORSDOF 5
ENDMDL
MODEL 4
REMARK VINA RESULT:      -8.9      3.401      8.330
REMARK  5 active torsions:
REMARK  status: ('A' for Active; 'I' for Inactive)
REMARK    1  A    between atoms: C_7  and  C_8 
REMARK    2  A    between atoms: C_16  and  C_17 
REMARK    3  A    between atoms: C_19  and  O_20 
REMARK    4  A    between atoms: C_24  and  C_25 
REMARK       I    between atoms: C_25  and  N_26 
REMARK    5  A    between atoms: N_26  and  C_27 
ROOT
HETATM    1  C   UNL     1      39.790 -15.214  -0.061  1.00  0.00     0.070 C 
HETATM    2  C   UNL     1      40.270 -13.889   0.480  1.00  0.00     0.037 C 
HETATM    3  N   UNL     1      40.149 -12.804  -0.387  1.00  0.00    -0.192 N 
HETATM    4  C   UNL     1      40.742 -11.617  -0.150  1.00  0.00     0.726 A 
HETATM    5  N   UNL     1      41.319 -11.393   1.065  1.00  0.00    -0.083 N 
HETATM    6  N   UNL     1      41.909 -10.185   1.124  1.00  0.00    -0.135 NA
HETATM    7  C   UNL     1      41.639  -9.703  -0.104  1.00  0.00     0.200 A 
HETATM    8  N   UNL     1      40.904 -10.560  -0.902  1.00  0.00    -0.041 NA
HETATM    9  C   UNL     1      41.262 -12.336   2.184  1.00  0.00     0.202 C 
HETATM   10  C   UNL     1      40.802 -13.714   1.718  1.00  0.00     0.062 C 
HETATM   11  H   UNL     1      39.854 -13.004  -1.340  1.00  0.00     0.184 HD
ENDROOT
BRANCH  10  12
HETATM   12  C   UNL     1      41.158 -14.892   2.564  1.00  0.00     0.256 C 
HETATM   13  N   UNL     1      42.458 -15.323   2.426  1.00  0.00    -0.323 N 
HETATM   14  H   UNL     1      43.075 -14.809   1.811  1.00  0.00     0.169 HD
HETATM   15  O   UNL     1      40.293 -15.399   3.270  1.00  0.00    -0.267 OA
BRANCH  13  16
HETATM   16  C   UNL     1      43.063 -16.435   3.053  1.00  0.00     0.035 A 
HETATM   17  C   UNL     1      43.542 -16.431   4.364  1.00  0.00     0.029 A 
HETATM   18  C   UNL     1      44.131 -17.580   4.905  1.00  0.00     0.002 A 
HETATM   19  C   UNL     1      44.235 -18.741   4.144  1.00  0.00     0.000 A 
HETATM   20  C   UNL     1      43.759 -18.756   2.837  1.00  0.00     0.002 A 
HETATM   21  C   UNL     1      43.183 -17.606   2.291  1.00  0.00     0.029 A 
ENDBRANCH  13  16
ENDBRANCH  10  12
BRANCH   9  22
HETATM   22  C   UNL     1      40.375 -11.737   3.277  1.00  0.00    -0.025 A 
HETATM   23  C   UNL     1      40.471 -12.156   4.618  1.00  0.00     0.046 A 
HETATM   24  C   UNL     1      39.660 -11.575   5.588  1.00  0.00     0.066 A 
HETATM   25  C   UNL     1      38.741 -10.589   5.252  1.00  0.00     0.036 A 
HETATM   26  C   UNL     1      38.619 -10.182   3.926  1.00  0.00     0.003 A 
HETATM   27  C   UNL     1      39.430 -10.751   2.943  1.00  0.00     0.010 A 
BRANCH  24  28
HETATM   28  O   UNL     1      39.738 -11.947   6.897  1.00  0.00    -0.361 OA
HETATM   29  H   UNL     1      40.312 -12.729   6.971  1.00  0.00     0.217 HD
ENDBRANCH  24  28
ENDBRANCH   9  22
BRANCH   7  30
HETATM   30  C   UNL     1      42.007  -8.355  -0.516  1.00  0.00     0.036 A 
HETATM   31  C   UNL     1      41.364  -7.204  -0.040  1.00  0.00     0.048 A 
HETATM   32 CL   UNL     1      40.011  -7.255   1.040  1.00  0.00    -0.083 Cl
HETATM   33  C   UNL     1      41.778  -5.936  -0.471  1.00  0.00     0.025 A 
HETATM   34  C   UNL     1      42.830  -5.804  -1.379  1.00  0.00     0.002 A 
HETATM   35  C   UNL     1      43.470  -6.939  -1.867  1.00  0.00     0.001 A 
HETATM   36  C   UNL     1      43.060  -8.204  -1.441  1.00  0.00     0.017 A 
ENDBRANCH   7  30
TORSDOF 5
ENDMDL
MODEL 5
REMARK VINA RESULT:      -8.9      3.370      6.480
REMARK  5 active torsions:
REMARK  status: ('A' for Active; 'I' for Inactive)
REMARK    1  A    between atoms: C_7  and  C_8 
REMARK    2  A    between atoms: C_16  and  C_17 
REMARK    3  A    between atoms: C_19  and  O_20 
REMARK    4  A    between atoms: C_24  and  C_25 
REMARK       I    between atoms: C_25  and  N_26 
REMARK    5  A    between atoms: N_26  and  C_27 
ROOT
HETATM    1  C   UNL     1      43.210 -14.710   5.082  1.00  0.00     0.070 C 
HETATM    2  C   UNL     1      42.389 -13.889   4.118  1.00  0.00     0.037 C 
HETATM    3  N   UNL     1      41.564 -14.613   3.258  1.00  0.00    -0.192 N 
HETATM    4  C   UNL     1      40.957 -14.054   2.192  1.00  0.00     0.726 A 
HETATM    5  N   UNL     1      40.981 -12.698   2.050  1.00  0.00    -0.083 N 
HETATM    6  N   UNL     1      40.378 -12.304   0.914  1.00  0.00    -0.135 NA
HETATM    7  C   UNL     1      39.982 -13.486   0.405  1.00  0.00     0.200 A 
HETATM    8  N   UNL     1      40.312 -14.580   1.184  1.00  0.00    -0.041 NA
HETATM    9  C   UNL     1      41.557 -11.782   3.037  1.00  0.00     0.202 C 
HETATM   10  C   UNL     1      42.422 -12.533   4.044  1.00  0.00     0.062 C 
HETATM   11  H   UNL     1      41.659 -15.627   3.271  1.00  0.00     0.184 HD
ENDROOT
BRANCH  10  12
HETATM   12  C   UNL     1      43.464 -11.758   4.783  1.00  0.00     0.256 C 
HETATM   13  N   UNL     1      43.171 -11.525   6.108  1.00  0.00    -0.323 N 
HETATM   14  H   UNL     1      42.317 -11.911   6.489  1.00  0.00     0.169 HD
HETATM   15  O   UNL     1      44.455 -11.367   4.176  1.00  0.00    -0.267 OA
BRANCH  13  16
HETATM   16  C   UNL     1      43.934 -10.784   7.037  1.00  0.00     0.035 A 
HETATM   17  C   UNL     1      45.206 -11.152   7.477  1.00  0.00     0.029 A 
HETATM   18  C   UNL     1      45.891 -10.357   8.404  1.00  0.00     0.002 A 
HETATM   19  C   UNL     1      45.315  -9.185   8.887  1.00  0.00     0.000 A 
HETATM   20  C   UNL     1      44.048  -8.808   8.452  1.00  0.00     0.002 A 
HETATM   21  C   UNL     1      43.357  -9.607   7.537  1.00  0.00     0.029 A 
ENDBRANCH  13  16
ENDBRANCH  10  12
BRANCH   9  22
HETATM   22  C   UNL     1      40.418 -10.992   3.684  1.00  0.00    -0.025 A 
HETATM   23  C   UNL     1      39.792 -11.432   4.867  1.00  0.00     0.046 A 
HETATM   24  C   UNL     1      38.771 -10.677   5.436  1.00  0.00     0.066 A 
HETATM   25  C   UNL     1      38.346  -9.493   4.847  1.00  0.00     0.036 A 
HETATM   26  C   UNL     1      38.941  -9.058   3.666  1.00  0.00     0.003 A 
HETATM   27  C   UNL     1      39.970  -9.801   3.085  1.00  0.00     0.010 A 
BRANCH  24  28
HETATM   28  O   UNL     1      38.156 -11.067   6.588  1.00  0.00    -0.361 OA
HETATM   29  H   UNL     1      37.348 -11.561   6.365  1.00  0.00     0.217 HD
ENDBRANCH  24  28
ENDBRANCH   9  22
BRANCH   7  30
HETATM   30  C   UNL     1      39.191 -13.591  -0.814  1.00  0.00     0.036 A 
HETATM   31  C   UNL     1      38.149 -12.707  -1.131  1.00  0.00     0.048 A 
HETATM   32 CL   UNL     1      37.636 -11.433  -0.077  1.00  0.00    -0.083 Cl
HETATM   33  C   UNL     1      37.436 -12.859  -2.328  1.00  0.00     0.025 A 
HETATM   34  C   UNL     1      37.750 -13.891  -3.215  1.00  0.00     0.002 A 
HETATM   35  C   UNL     1      38.775 -14.779  -2.907  1.00  0.00     0.001 A 
HETATM   36  C   UNL     1      39.488 -14.632  -1.716  1.00  0.00     0.017 A 
ENDBRANCH   7  30
TORSDOF 5
ENDMDL
MODEL 6
REMARK VINA RESULT:      -8.8      2.896      8.386
REMARK  5 active torsions:
REMARK  status: ('A' for Active; 'I' for Inactive)
REMARK    1  A    between atoms: C_7  and  C_8 
REMARK    2  A    between atoms: C_16  and  C_17 
REMARK    3  A    between atoms: C_19  and  O_20 
REMARK    4  A    between atoms: C_24  and  C_25 
REMARK       I    between atoms: C_25  and  N_26 
REMARK    5  A    between atoms: N_26  and  C_27 
ROOT
HETATM    1  C   UNL     1      39.891 -15.790   0.756  1.00  0.00     0.070 C 
HETATM    2  C   UNL     1      40.522 -14.481   1.165  1.00  0.00     0.037 C 
HETATM    3  N   UNL     1      39.793 -13.335   0.851  1.00  0.00    -0.192 N 
HETATM    4  C   UNL     1      40.318 -12.096   0.931  1.00  0.00     0.726 A 
HETATM    5  N   UNL     1      41.535 -11.927   1.523  1.00  0.00    -0.083 N 
HETATM    6  N   UNL     1      41.939 -10.645   1.478  1.00  0.00    -0.135 NA
HETATM    7  C   UNL     1      40.899 -10.065   0.850  1.00  0.00     0.200 A 
HETATM    8  N   UNL     1      39.878 -10.937   0.518  1.00  0.00    -0.041 NA
HETATM    9  C   UNL     1      42.287 -13.005   2.168  1.00  0.00     0.202 C 
HETATM   10  C   UNL     1      41.723 -14.372   1.790  1.00  0.00     0.062 C 
HETATM   11  H   UNL     1      38.957 -13.460   0.283  1.00  0.00     0.184 HD
ENDROOT
BRANCH  10  12
HETATM   12  C   UNL     1      42.622 -15.558   1.919  1.00  0.00     0.256 C 
HETATM   13  N   UNL     1      42.217 -16.483   2.855  1.00  0.00    -0.323 N 
HETATM   14  H   UNL     1      41.349 -16.322   3.349  1.00  0.00     0.169 HD
HETATM   15  O   UNL     1      43.639 -15.608   1.236  1.00  0.00    -0.267 OA
BRANCH  13  16
HETATM   16  C   UNL     1      42.885 -17.669   3.232  1.00  0.00     0.035 A 
HETATM   17  C   UNL     1      43.493 -17.866   4.472  1.00  0.00     0.029 A 
HETATM   18  C   UNL     1      44.137 -19.075   4.761  1.00  0.00     0.002 A 
HETATM   19  C   UNL     1      44.166 -20.098   3.817  1.00  0.00     0.000 A 
HETATM   20  C   UNL     1      43.560 -19.913   2.579  1.00  0.00     0.002 A 
HETATM   21  C   UNL     1      42.929 -18.701   2.284  1.00  0.00     0.029 A 
ENDBRANCH  13  16
ENDBRANCH  10  12
BRANCH   9  22
HETATM   22  C   UNL     1      42.300 -12.750   3.677  1.00  0.00    -0.025 A 
HETATM   23  C   UNL     1      41.172 -13.011   4.480  1.00  0.00     0.046 A 
HETATM   24  C   UNL     1      41.228 -12.783   5.852  1.00  0.00     0.066 A 
HETATM   25  C   UNL     1      42.381 -12.287   6.446  1.00  0.00     0.036 A 
HETATM   26  C   UNL     1      43.495 -12.003   5.661  1.00  0.00     0.003 A 
HETATM   27  C   UNL     1      43.457 -12.232   4.284  1.00  0.00     0.010 A 
BRANCH  24  28
HETATM   28  O   UNL     1      40.159 -13.039   6.659  1.00  0.00    -0.361 OA
HETATM   29  H   UNL     1      39.413 -12.480   6.384  1.00  0.00     0.217 HD
ENDBRANCH  24  28
ENDBRANCH   9  22
BRANCH   7  30
HETATM   30  C   UNL     1      40.818  -8.628   0.626  1.00  0.00     0.036 A 
HETATM   31  C   UNL     1      41.506  -7.973  -0.406  1.00  0.00     0.048 A 
HETATM   32 CL   UNL     1      42.586  -8.785  -1.488  1.00  0.00    -0.083 Cl
HETATM   33  C   UNL     1      41.374  -6.587  -0.570  1.00  0.00     0.025 A 
HETATM   34  C   UNL     1      40.562  -5.844   0.289  1.00  0.00     0.002 A 
HETATM   35  C   UNL     1      39.882  -6.482   1.322  1.00  0.00     0.001 A 
HETATM   36  C   UNL     1      40.011  -7.861   1.490  1.00  0.00     0.017 A 
ENDBRANCH   7  30
TORSDOF 5
ENDMDL
MODEL 7
REMARK VINA RESULT:      -8.8      2.591      3.371
REMARK  5 active torsions:
REMARK  status: ('A' for Active; 'I' for Inactive)
REMARK    1  A    between atoms: C_7  and  C_8 
REMARK    2  A    between atoms: C_16  and  C_17 
REMARK    3  A    between atoms: C_19  and  O_20 
REMARK    4  A    between atoms: C_24  and  C_25 
REMARK       I    between atoms: C_25  and  N_26 
REMARK    5  A    between atoms: N_26  and  C_27 
ROOT
HETATM    1  C   UNL     1      39.592 -10.272   3.693  1.00  0.00     0.070 C 
HETATM    2  C   UNL     1      40.521 -11.319   4.257  1.00  0.00     0.037 C 
HETATM    3  N   UNL     1      40.947 -12.296   3.358  1.00  0.00    -0.192 N 
HETATM    4  C   UNL     1      41.575 -13.421   3.752  1.00  0.00     0.726 A 
HETATM    5  N   UNL     1      41.991 -13.531   5.046  1.00  0.00    -0.083 N 
HETATM    6  N   UNL     1      42.553 -14.728   5.291  1.00  0.00    -0.135 NA
HETATM    7  C   UNL     1      42.466 -15.310   4.080  1.00  0.00     0.200 A 
HETATM    8  N   UNL     1      41.883 -14.517   3.109  1.00  0.00    -0.041 NA
HETATM    9  C   UNL     1      41.877 -12.458   6.036  1.00  0.00     0.202 C 
HETATM   10  C   UNL     1      40.936 -11.360   5.550  1.00  0.00     0.062 C 
HETATM   11  H   UNL     1      40.519 -12.292   2.433  1.00  0.00     0.184 HD
ENDROOT
BRANCH  10  12
HETATM   12  C   UNL     1      40.310 -10.473   6.576  1.00  0.00     0.256 C 
HETATM   13  N   UNL     1      40.978  -9.289   6.793  1.00  0.00    -0.323 N 
HETATM   14  H   UNL     1      41.799  -9.088   6.237  1.00  0.00     0.169 HD
HETATM   15  O   UNL     1      39.303 -10.860   7.159  1.00  0.00    -0.267 OA
BRANCH  13  16
HETATM   16  C   UNL     1      40.656  -8.283   7.730  1.00  0.00     0.035 A 
HETATM   17  C   UNL     1      39.745  -7.253   7.494  1.00  0.00     0.029 A 
HETATM   18  C   UNL     1      39.488  -6.295   8.481  1.00  0.00     0.002 A 
HETATM   19  C   UNL     1      40.131  -6.366   9.714  1.00  0.00     0.000 A 
HETATM   20  C   UNL     1      41.039  -7.390   9.961  1.00  0.00     0.002 A 
HETATM   21  C   UNL     1      41.307  -8.340   8.971  1.00  0.00     0.029 A 
ENDBRANCH  13  16
ENDBRANCH  10  12
BRANCH   9  22
HETATM   22  C   UNL     1      43.284 -11.951   6.363  1.00  0.00    -0.025 A 
HETATM   23  C   UNL     1      43.673 -11.653   7.683  1.00  0.00     0.046 A 
HETATM   24  C   UNL     1      44.967 -11.212   7.944  1.00  0.00     0.066 A 
HETATM   25  C   UNL     1      45.885 -11.047   6.915  1.00  0.00     0.036 A 
HETATM   26  C   UNL     1      45.507 -11.316   5.602  1.00  0.00     0.003 A 
HETATM   27  C   UNL     1      44.214 -11.766   5.325  1.00  0.00     0.010 A 
BRANCH  24  28
HETATM   28  O   UNL     1      45.380 -10.929   9.212  1.00  0.00    -0.361 OA
HETATM   29  H   UNL     1      44.747 -10.315   9.622  1.00  0.00     0.217 HD
ENDBRANCH  24  28
ENDBRANCH   9  22
BRANCH   7  30
HETATM   30  C   UNL     1      43.025 -16.625   3.798  1.00  0.00     0.036 A 
HETATM   31  C   UNL     1      43.956 -17.258   4.635  1.00  0.00     0.048 A 
HETATM   32 CL   UNL     1      44.601 -16.520   6.062  1.00  0.00    -0.083 Cl
HETATM   33  C   UNL     1      44.445 -18.531   4.308  1.00  0.00     0.025 A 
HETATM   34  C   UNL     1      44.017 -19.180   3.149  1.00  0.00     0.002 A 
HETATM   35  C   UNL     1      43.101 -18.559   2.306  1.00  0.00     0.001 A 
HETATM   36  C   UNL     1      42.612 -17.291   2.627  1.00  0.00     0.017 A 
ENDBRANCH   7  30
TORSDOF 5
ENDMDL
MODEL 8
REMARK VINA RESULT:      -8.7     16.544     18.922
REMARK  5 active torsions:
REMARK  status: ('A' for Active; 'I' for Inactive)
REMARK    1  A    between atoms: C_7  and  C_8 
REMARK    2  A    between atoms: C_16  and  C_17 
REMARK    3  A    between atoms: C_19  and  O_20 
REMARK    4  A    between atoms: C_24  and  C_25 
REMARK       I    between atoms: C_25  and  N_26 
REMARK    5  A    between atoms: N_26  and  C_27 
ROOT
HETATM    1  C   UNL     1      45.386 -27.387  -4.055  1.00  0.00     0.070 C 
HETATM    2  C   UNL     1      45.645 -28.306  -2.886  1.00  0.00     0.037 C 
HETATM    3  N   UNL     1      46.553 -27.836  -1.938  1.00  0.00    -0.192 N 
HETATM    4  C   UNL     1      47.069 -28.624  -0.973  1.00  0.00     0.726 A 
HETATM    5  N   UNL     1      46.548 -29.870  -0.784  1.00  0.00    -0.083 N 
HETATM    6  N   UNL     1      47.202 -30.545   0.177  1.00  0.00    -0.135 NA
HETATM    7  C   UNL     1      48.119 -29.636   0.557  1.00  0.00     0.200 A 
HETATM    8  N   UNL     1      48.046 -28.435  -0.126  1.00  0.00    -0.041 NA
HETATM    9  C   UNL     1      45.388 -30.390  -1.511  1.00  0.00     0.202 C 
HETATM   10  C   UNL     1      45.067 -29.525  -2.727  1.00  0.00     0.062 C 
HETATM   11  H   UNL     1      47.046 -26.973  -2.158  1.00  0.00     0.184 HD
ENDROOT
BRANCH  10  12
HETATM   12  C   UNL     1      44.284 -30.145  -3.837  1.00  0.00     0.256 C 
HETATM   13  N   UNL     1      44.985 -31.061  -4.589  1.00  0.00    -0.323 N 
HETATM   14  H   UNL     1      45.938 -31.274  -4.326  1.00  0.00     0.169 HD
HETATM   15  O   UNL     1      43.127 -29.784  -4.020  1.00  0.00    -0.267 OA
BRANCH  13  16
HETATM   16  C   UNL     1      44.529 -31.764  -5.725  1.00  0.00     0.035 A 
HETATM   17  C   UNL     1      44.260 -31.170  -6.959  1.00  0.00     0.029 A 
HETATM   18  C   UNL     1      43.807 -31.944  -8.034  1.00  0.00     0.002 A 
HETATM   19  C   UNL     1      43.633 -33.318  -7.886  1.00  0.00     0.000 A 
HETATM   20  C   UNL     1      43.901 -33.921  -6.661  1.00  0.00     0.002 A 
HETATM   21  C   UNL     1      44.340 -33.146  -5.583  1.00  0.00     0.029 A 
ENDBRANCH  13  16
ENDBRANCH  10  12
BRANCH   9  22
HETATM   22  C   UNL     1      44.220 -30.517  -0.531  1.00  0.00    -0.025 A 
HETATM   23  C   UNL     1      43.611 -29.384   0.042  1.00  0.00     0.046 A 
HETATM   24  C   UNL     1      42.539 -29.538   0.917  1.00  0.00     0.066 A 
HETATM   25  C   UNL     1      42.063 -30.801   1.247  1.00  0.00     0.036 A 
HETATM   26  C   UNL     1      42.672 -31.930   0.705  1.00  0.00     0.003 A 
HETATM   27  C   UNL     1      43.744 -31.792  -0.178  1.00  0.00     0.010 A 
BRANCH  24  28
HETATM   28  O   UNL     1      41.917 -28.462   1.476  1.00  0.00    -0.361 OA
HETATM   29  H   UNL     1      40.958 -28.616   1.483  1.00  0.00     0.217 HD
ENDBRANCH  24  28
ENDBRANCH   9  22
BRANCH   7  30
HETATM   30  C   UNL     1      49.044 -29.865   1.659  1.00  0.00     0.036 A 
HETATM   31  C   UNL     1      50.341 -30.369   1.479  1.00  0.00     0.048 A 
HETATM   32 CL   UNL     1      50.966 -30.842  -0.065  1.00  0.00    -0.083 Cl
HETATM   33  C   UNL     1      51.184 -30.555   2.583  1.00  0.00     0.025 A 
HETATM   34  C   UNL     1      50.744 -30.246   3.872  1.00  0.00     0.002 A 
HETATM   35  C   UNL     1      49.457 -29.755   4.064  1.00  0.00     0.001 A 
HETATM   36  C   UNL     1      48.614 -29.569   2.967  1.00  0.00     0.017 A 
ENDBRANCH   7  30
TORSDOF 5
ENDMDL
MODEL 9
REMARK VINA RESULT:      -8.4      2.126      2.434
REMARK  5 active torsions:
REMARK  status: ('A' for Active; 'I' for Inactive)
REMARK    1  A    between atoms: C_7  and  C_8 
REMARK    2  A    between atoms: C_16  and  C_17 
REMARK    3  A    between atoms: C_19  and  O_20 
REMARK    4  A    between atoms: C_24  and  C_25 
REMARK       I    between atoms: C_25  and  N_26 
REMARK    5  A    between atoms: N_26  and  C_27 
ROOT
HETATM    1  C   UNL     1      41.759 -10.612   1.498  1.00  0.00     0.070 C 
HETATM    2  C   UNL     1      42.107 -11.533   2.642  1.00  0.00     0.037 C 
HETATM    3  N   UNL     1      42.654 -12.764   2.282  1.00  0.00    -0.192 N 
HETATM    4  C   UNL     1      42.794 -13.780   3.156  1.00  0.00     0.726 A 
HETATM    5  N   UNL     1      42.583 -13.548   4.483  1.00  0.00    -0.083 N 
HETATM    6  N   UNL     1      42.713 -14.669   5.214  1.00  0.00    -0.135 NA
HETATM    7  C   UNL     1      43.028 -15.567   4.261  1.00  0.00     0.200 A 
HETATM    8  N   UNL     1      43.102 -15.038   2.985  1.00  0.00    -0.041 NA
HETATM    9  C   UNL     1      42.292 -12.228   5.046  1.00  0.00     0.202 C 
HETATM   10  C   UNL     1      41.910 -11.235   3.952  1.00  0.00     0.062 C 
HETATM   11  H   UNL     1      42.675 -12.988   1.288  1.00  0.00     0.184 HD
ENDROOT
BRANCH  10  12
HETATM   12  C   UNL     1      41.114 -10.035   4.346  1.00  0.00     0.256 C 
HETATM   13  N   UNL     1      41.841  -8.869   4.432  1.00  0.00    -0.323 N 
HETATM   14  H   UNL     1      42.824  -8.894   4.195  1.00  0.00     0.169 HD
HETATM   15  O   UNL     1      39.920 -10.169   4.593  1.00  0.00    -0.267 OA
BRANCH  13  16
HETATM   16  C   UNL     1      41.376  -7.595   4.828  1.00  0.00     0.035 A 
HETATM   17  C   UNL     1      40.985  -6.592   3.939  1.00  0.00     0.029 A 
HETATM   18  C   UNL     1      40.538  -5.356   4.420  1.00  0.00     0.002 A 
HETATM   19  C   UNL     1      40.467  -5.119   5.790  1.00  0.00     0.000 A 
HETATM   20  C   UNL     1      40.852  -6.113   6.684  1.00  0.00     0.002 A 
HETATM   21  C   UNL     1      41.311  -7.343   6.206  1.00  0.00     0.029 A 
ENDBRANCH  13  16
ENDBRANCH  10  12
BRANCH   9  22
HETATM   22  C   UNL     1      43.497 -11.782   5.878  1.00  0.00    -0.025 A 
HETATM   23  C   UNL     1      43.384 -11.514   7.256  1.00  0.00     0.046 A 
HETATM   24  C   UNL     1      44.506 -11.127   7.983  1.00  0.00     0.066 A 
HETATM   25  C   UNL     1      45.743 -10.988   7.367  1.00  0.00     0.036 A 
HETATM   26  C   UNL     1      45.863 -11.228   6.000  1.00  0.00     0.003 A 
HETATM   27  C   UNL     1      44.748 -11.622   5.258  1.00  0.00     0.010 A 
BRANCH  24  28
HETATM   28  O   UNL     1      44.434 -10.875   9.321  1.00  0.00    -0.361 OA
HETATM   29  H   UNL     1      43.704 -10.256   9.489  1.00  0.00     0.217 HD
ENDBRANCH  24  28
ENDBRANCH   9  22
BRANCH   7  30
HETATM   30  C   UNL     1      43.356 -16.953   4.565  1.00  0.00     0.036 A 
HETATM   31  C   UNL     1      43.264 -17.498   5.854  1.00  0.00     0.048 A 
HETATM   32 CL   UNL     1      42.820 -16.567   7.245  1.00  0.00    -0.083 Cl
HETATM   33  C   UNL     1      43.584 -18.845   6.073  1.00  0.00     0.025 A 
HETATM   34  C   UNL     1      43.999 -19.657   5.017  1.00  0.00     0.002 A 
HETATM   35  C   UNL     1      44.103 -19.126   3.735  1.00  0.00     0.001 A 
HETATM   36  C   UNL     1      43.786 -17.785   3.512  1.00  0.00     0.017 A 
ENDBRANCH   7  30
TORSDOF 5
ENDMDL
MODEL 10
REMARK VINA RESULT:      -8.3      5.089      9.351
REMARK  5 active torsions:
REMARK  status: ('A' for Active; 'I' for Inactive)
REMARK    1  A    between atoms: C_7  and  C_8 
REMARK    2  A    between atoms: C_16  and  C_17 
REMARK    3  A    between atoms: C_19  and  O_20 
REMARK    4  A    between atoms: C_24  and  C_25 
REMARK       I    between atoms: C_25  and  N_26 
REMARK    5  A    between atoms: N_26  and  C_27 
ROOT
HETATM    1  C   UNL     1      46.279 -11.612   5.856  1.00  0.00     0.070 C 
HETATM    2  C   UNL     1      45.106 -11.068   6.635  1.00  0.00     0.037 C 
HETATM    3  N   UNL     1      45.386  -9.994   7.477  1.00  0.00    -0.192 N 
HETATM    4  C   UNL     1      44.515  -9.553   8.407  1.00  0.00     0.726 A 
HETATM    5  N   UNL     1      43.240 -10.036   8.404  1.00  0.00    -0.083 N 
HETATM    6  N   UNL     1      42.514  -9.538   9.421  1.00  0.00    -0.135 NA
HETATM    7  C   UNL     1      43.413  -8.728  10.011  1.00  0.00     0.200 A 
HETATM    8  N   UNL     1      44.650  -8.706   9.393  1.00  0.00    -0.041 NA
HETATM    9  C   UNL     1      42.715 -10.952   7.389  1.00  0.00     0.202 C 
HETATM   10  C   UNL     1      43.843 -11.565   6.564  1.00  0.00     0.062 C 
HETATM   11  H   UNL     1      46.365  -9.732   7.584  1.00  0.00     0.184 HD
ENDROOT
BRANCH  10  12
HETATM   12  C   UNL     1      43.572 -12.853   5.859  1.00  0.00     0.256 C 
HETATM   13  N   UNL     1      43.017 -12.713   4.607  1.00  0.00    -0.323 N 
HETATM   14  H   UNL     1      42.868 -11.780   4.246  1.00  0.00     0.169 HD
HETATM   15  O   UNL     1      43.820 -13.907   6.433  1.00  0.00    -0.267 OA
BRANCH  13  16
HETATM   16  C   UNL     1      42.607 -13.743   3.732  1.00  0.00     0.035 A 
HETATM   17  C   UNL     1      43.303 -14.117   2.581  1.00  0.00     0.029 A 
HETATM   18  C   UNL     1      42.822 -15.150   1.768  1.00  0.00     0.002 A 
HETATM   19  C   UNL     1      41.650 -15.822   2.105  1.00  0.00     0.000 A 
HETATM   20  C   UNL     1      40.950 -15.459   3.251  1.00  0.00     0.002 A 
HETATM   21  C   UNL     1      41.422 -14.419   4.057  1.00  0.00     0.029 A 
ENDBRANCH  13  16
ENDBRANCH  10  12
BRANCH   9  22
HETATM   22  C   UNL     1      41.685 -10.199   6.545  1.00  0.00    -0.025 A 
HETATM   23  C   UNL     1      42.075  -9.275   5.555  1.00  0.00     0.046 A 
HETATM   24  C   UNL     1      41.109  -8.622   4.795  1.00  0.00     0.066 A 
HETATM   25  C   UNL     1      39.757  -8.858   5.004  1.00  0.00     0.036 A 
HETATM   26  C   UNL     1      39.357  -9.751   5.994  1.00  0.00     0.003 A 
HETATM   27  C   UNL     1      40.314 -10.419   6.762  1.00  0.00     0.010 A 
BRANCH  24  28
HETATM   28  O   UNL     1      41.453  -7.734   3.820  1.00  0.00    -0.361 OA
HETATM   29  H   UNL     1      41.858  -6.952   4.231  1.00  0.00     0.217 HD
ENDBRANCH  24  28
ENDBRANCH   9  22
BRANCH   7  30
HETATM   30  C   UNL     1      43.078  -7.877  11.145  1.00  0.00     0.036 A 
HETATM   31  C   UNL     1      42.458  -6.626  11.008  1.00  0.00     0.048 A 
HETATM   32 CL   UNL     1      42.084  -5.919   9.473  1.00  0.00    -0.083 Cl
HETATM   33  C   UNL     1      42.154  -5.864  12.144  1.00  0.00     0.025 A 
HETATM   34  C   UNL     1      42.465  -6.336  13.421  1.00  0.00     0.002 A 
HETATM   35  C   UNL     1      43.089  -7.571  13.568  1.00  0.00     0.001 A 
HETATM   36  C   UNL     1      43.395  -8.333  12.440  1.00  0.00     0.017 A 
ENDBRANCH   7  30
TORSDOF 5
ENDMDL
