MODEL 1
REMARK VINA RESULT:      -8.7      0.000      0.000
REMARK  7 active torsions:
REMARK  status: ('A' for Active; 'I' for Inactive)
REMARK    1  A    between atoms: C_2  and  C_3 
REMARK    2  A    between atoms: C_6  and  O_7 
REMARK    3  A    between atoms: O_7  and  C_8 
REMARK    4  A    between atoms: C_8  and  C_9 
REMARK    5  A    between atoms: C_9  and  C_10 
REMARK       I    between atoms: C_10  and  N_11 
REMARK    6  A    between atoms: N_11  and  C_12 
REMARK    7  A    between atoms: C_19  and  C_20 
REMARK       I    between atoms: C_20  and  N_21 
ROOT
HETATM    1  C   UNL     1      41.278 -12.452   5.565  1.00  0.00     0.224 C 
HETATM    2  N   UNL     1      42.320 -12.712   6.434  1.00  0.00    -0.327 N 
HETATM    3  O   UNL     1      41.096 -11.414   4.938  1.00  0.00    -0.273 OA
HETATM    4  H   UNL     1      42.268 -13.592   6.943  1.00  0.00     0.169 HD
ENDROOT
BRANCH   2   5
HETATM    5  C   UNL     1      43.399 -11.868   6.767  1.00  0.00     0.035 A 
HETATM    6  C   UNL     1      43.254 -10.661   7.465  1.00  0.00     0.046 A 
HETATM    7  C   UNL     1      44.394  -9.871   7.732  1.00  0.00     0.030 A 
HETATM    8  C   UNL     1      45.638 -10.325   7.313  1.00  0.00     0.063 A 
HETATM    9  C   UNL     1      44.652  -8.614   8.357  1.00  0.00     0.156 A 
HETATM   10  N   UNL     1      46.528  -9.373   7.723  1.00  0.00    -0.277 N 
HETATM   11  C   UNL     1      45.818 -11.523   6.619  1.00  0.00     0.034 A 
HETATM   12  H   UNL     1      47.534  -9.379   7.596  1.00  0.00     0.189 HD
HETATM   13  N   UNL     1      45.974  -8.323   8.348  1.00  0.00    -0.168 NA
HETATM   14  C   UNL     1      44.671 -12.276   6.344  1.00  0.00     0.032 A 
BRANCH   9  15
HETATM   15  C   UNL     1      43.676  -7.684   8.944  1.00  0.00     0.270 C 
HETATM   16  N   UNL     1      43.367  -7.949  10.250  1.00  0.00    -0.365 N 
HETATM   17  H   UNL     1      43.830  -8.725  10.709  1.00  0.00     0.159 HD
HETATM   18  H   UNL     1      42.731  -7.343  10.744  1.00  0.00     0.159 HD
HETATM   19  O   UNL     1      43.170  -6.735   8.354  1.00  0.00    -0.266 OA
ENDBRANCH   9  15
ENDBRANCH   2   5
BRANCH   1  20
HETATM   20  C   UNL     1      40.324 -13.621   5.390  1.00  0.00     0.130 C 
BRANCH  20  21
HETATM   21  C   UNL     1      40.572 -14.393   4.102  1.00  0.00     0.185 C 
BRANCH  21  22
HETATM   22  O   UNL     1      41.991 -14.402   3.871  1.00  0.00    -0.351 OA
BRANCH  22  23
HETATM   23  C   UNL     1      42.509 -15.639   3.609  1.00  0.00     0.068 A 
HETATM   24  C   UNL     1      43.008 -16.339   4.705  1.00  0.00     0.037 A 
HETATM   25  C   UNL     1      43.535 -17.621   4.538  1.00  0.00     0.010 A 
HETATM   26  C   UNL     1      43.543 -18.233   3.277  1.00  0.00    -0.055 A 
HETATM   27  C   UNL     1      43.018 -17.523   2.186  1.00  0.00     0.010 A 
HETATM   28  C   UNL     1      42.499 -16.233   2.351  1.00  0.00     0.037 A 
BRANCH  26  29
HETATM   29  C   UNL     1      44.110 -19.626   3.067  1.00  0.00     0.010 C 
HETATM   30  C   UNL     1      43.416 -20.369   1.922  1.00  0.00     0.015 C 
HETATM   31  C   UNL     1      44.049 -20.442   4.360  1.00  0.00     0.015 C 
ENDBRANCH  26  29
ENDBRANCH  22  23
ENDBRANCH  21  22
ENDBRANCH  20  21
ENDBRANCH   1  20
TORSDOF 7
ENDMDL
MODEL 2
REMARK VINA RESULT:      -8.6      1.616      1.799
REMARK  7 active torsions:
REMARK  status: ('A' for Active; 'I' for Inactive)
REMARK    1  A    between atoms: C_2  and  C_3 
REMARK    2  A    between atoms: C_6  and  O_7 
REMARK    3  A    between atoms: O_7  and  C_8 
REMARK    4  A    between atoms: C_8  and  C_9 
REMARK    5  A    between atoms: C_9  and  C_10 
REMARK       I    between atoms: C_10  and  N_11 
REMARK    6  A    between atoms: N_11  and  C_12 
REMARK    7  A    between atoms: C_19  and  C_20 
REMARK       I    between atoms: C_20  and  N_21 
ROOT
HETATM    1  C   UNL     1      43.389 -11.731   4.169  1.00  0.00     0.224 C 
HETATM    2  N   UNL     1      43.995 -12.232   5.305  1.00  0.00    -0.327 N 
HETATM    3  O   UNL     1      43.061 -10.565   3.974  1.00  0.00    -0.273 OA
HETATM    4  H   UNL     1      44.113 -13.241   5.340  1.00  0.00     0.169 HD
ENDROOT
BRANCH   2   5
HETATM    5  C   UNL     1      44.386 -11.523   6.460  1.00  0.00     0.035 A 
HETATM    6  C   UNL     1      43.483 -11.024   7.408  1.00  0.00     0.046 A 
HETATM    7  C   UNL     1      43.971 -10.306   8.522  1.00  0.00     0.030 A 
HETATM    8  C   UNL     1      45.343 -10.133   8.660  1.00  0.00     0.063 A 
HETATM    9  C   UNL     1      43.400  -9.633   9.644  1.00  0.00     0.156 A 
HETATM   10  N   UNL     1      45.504  -9.428   9.819  1.00  0.00    -0.277 N 
HETATM   11  C   UNL     1      46.269 -10.619   7.736  1.00  0.00     0.034 A 
HETATM   12  H   UNL     1      46.377  -9.130  10.239  1.00  0.00     0.189 HD
HETATM   13  N   UNL     1      44.358  -9.102  10.438  1.00  0.00    -0.168 NA
HETATM   14  C   UNL     1      45.760 -11.305   6.628  1.00  0.00     0.032 A 
BRANCH   9  15
HETATM   15  C   UNL     1      41.975  -9.474   9.967  1.00  0.00     0.270 C 
HETATM   16  N   UNL     1      41.583 -10.122  11.106  1.00  0.00    -0.365 N 
HETATM   17  H   UNL     1      42.281 -10.631  11.637  1.00  0.00     0.159 HD
HETATM   18  H   UNL     1      40.631 -10.042  11.423  1.00  0.00     0.159 HD
HETATM   19  O   UNL     1      41.177  -8.815   9.308  1.00  0.00    -0.266 OA
ENDBRANCH   9  15
ENDBRANCH   2   5
BRANCH   1  20
HETATM   20  C   UNL     1      43.170 -12.772   3.085  1.00  0.00     0.130 C 
BRANCH  20  21
HETATM   21  C   UNL     1      41.993 -13.690   3.382  1.00  0.00     0.185 C 
BRANCH  21  22
HETATM   22  O   UNL     1      42.402 -14.590   4.425  1.00  0.00    -0.351 OA
BRANCH  22  23
HETATM   23  C   UNL     1      42.774 -15.829   3.983  1.00  0.00     0.068 A 
HETATM   24  C   UNL     1      43.619 -16.551   4.823  1.00  0.00     0.037 A 
HETATM   25  C   UNL     1      44.033 -17.836   4.467  1.00  0.00     0.010 A 
HETATM   26  C   UNL     1      43.582 -18.430   3.280  1.00  0.00    -0.055 A 
HETATM   27  C   UNL     1      42.714 -17.697   2.454  1.00  0.00     0.010 A 
HETATM   28  C   UNL     1      42.308 -16.405   2.805  1.00  0.00     0.037 A 
BRANCH  26  29
HETATM   29  C   UNL     1      44.015 -19.825   2.868  1.00  0.00     0.010 C 
HETATM   30  C   UNL     1      43.214 -20.353   1.674  1.00  0.00     0.015 C 
HETATM   31  C   UNL     1      43.932 -20.794   4.049  1.00  0.00     0.015 C 
ENDBRANCH  26  29
ENDBRANCH  22  23
ENDBRANCH  21  22
ENDBRANCH  20  21
ENDBRANCH   1  20
TORSDOF 7
ENDMDL
MODEL 3
REMARK VINA RESULT:      -8.5      1.600      2.004
REMARK  7 active torsions:
REMARK  status: ('A' for Active; 'I' for Inactive)
REMARK    1  A    between atoms: C_2  and  C_3 
REMARK    2  A    between atoms: C_6  and  O_7 
REMARK    3  A    between atoms: O_7  and  C_8 
REMARK    4  A    between atoms: C_8  and  C_9 
REMARK    5  A    between atoms: C_9  and  C_10 
REMARK       I    between atoms: C_10  and  N_11 
REMARK    6  A    between atoms: N_11  and  C_12 
REMARK    7  A    between atoms: C_19  and  C_20 
REMARK       I    between atoms: C_20  and  N_21 
ROOT
HETATM    1  C   UNL     1      42.782 -11.257   4.177  1.00  0.00     0.224 C 
HETATM    2  N   UNL     1      43.624 -11.859   5.093  1.00  0.00    -0.327 N 
HETATM    3  O   UNL     1      42.305 -10.130   4.261  1.00  0.00    -0.273 OA
HETATM    4  H   UNL     1      43.853 -12.835   4.914  1.00  0.00     0.169 HD
ENDROOT
BRANCH   2   5
HETATM    5  C   UNL     1      44.133 -11.313   6.289  1.00  0.00     0.035 A 
HETATM    6  C   UNL     1      43.324 -10.845   7.334  1.00  0.00     0.046 A 
HETATM    7  C   UNL     1      43.928 -10.294   8.485  1.00  0.00     0.030 A 
HETATM    8  C   UNL     1      45.315 -10.251   8.561  1.00  0.00     0.063 A 
HETATM    9  C   UNL     1      43.474  -9.699   9.701  1.00  0.00     0.156 A 
HETATM   10  N   UNL     1      45.594  -9.690   9.775  1.00  0.00    -0.277 N 
HETATM   11  C   UNL     1      46.149 -10.711   7.541  1.00  0.00     0.034 A 
HETATM   12  H   UNL     1      46.510  -9.512  10.173  1.00  0.00     0.189 HD
HETATM   13  N   UNL     1      44.514  -9.337  10.489  1.00  0.00    -0.168 NA
HETATM   14  C   UNL     1      45.527 -11.230   6.399  1.00  0.00     0.032 A 
BRANCH   9  15
HETATM   15  C   UNL     1      42.086  -9.456  10.120  1.00  0.00     0.270 C 
HETATM   16  N   UNL     1      41.709 -10.153  11.236  1.00  0.00    -0.365 N 
HETATM   17  H   UNL     1      42.393 -10.748  11.689  1.00  0.00     0.159 HD
HETATM   18  H   UNL     1      40.785 -10.023  11.615  1.00  0.00     0.159 HD
HETATM   19  O   UNL     1      41.308  -8.695   9.556  1.00  0.00    -0.266 OA
ENDBRANCH   9  15
ENDBRANCH   2   5
BRANCH   1  20
HETATM   20  C   UNL     1      42.490 -12.116   2.960  1.00  0.00     0.130 C 
BRANCH  20  21
HETATM   21  C   UNL     1      43.247 -13.437   2.979  1.00  0.00     0.185 C 
BRANCH  21  22
HETATM   22  O   UNL     1      42.504 -14.348   3.806  1.00  0.00    -0.351 OA
BRANCH  22  23
HETATM   23  C   UNL     1      42.890 -15.654   3.690  1.00  0.00     0.068 A 
HETATM   24  C   UNL     1      42.660 -16.253   2.454  1.00  0.00     0.037 A 
HETATM   25  C   UNL     1      43.044 -17.578   2.234  1.00  0.00     0.010 A 
HETATM   26  C   UNL     1      43.691 -18.311   3.238  1.00  0.00    -0.055 A 
HETATM   27  C   UNL     1      43.934 -17.686   4.471  1.00  0.00     0.010 A 
HETATM   28  C   UNL     1      43.540 -16.362   4.696  1.00  0.00     0.037 A 
BRANCH  26  29
HETATM   29  C   UNL     1      44.118 -19.753   3.026  1.00  0.00     0.010 C 
HETATM   30  C   UNL     1      43.400 -20.403   1.840  1.00  0.00     0.015 C 
HETATM   31  C   UNL     1      43.916 -20.576   4.301  1.00  0.00     0.015 C 
ENDBRANCH  26  29
ENDBRANCH  22  23
ENDBRANCH  21  22
ENDBRANCH  20  21
ENDBRANCH   1  20
TORSDOF 7
ENDMDL
MODEL 4
REMARK VINA RESULT:      -8.1      3.687      7.238
REMARK  7 active torsions:
REMARK  status: ('A' for Active; 'I' for Inactive)
REMARK    1  A    between atoms: C_2  and  C_3 
REMARK    2  A    between atoms: C_6  and  O_7 
REMARK    3  A    between atoms: O_7  and  C_8 
REMARK    4  A    between atoms: C_8  and  C_9 
REMARK    5  A    between atoms: C_9  and  C_10 
REMARK       I    between atoms: C_10  and  N_11 
REMARK    6  A    between atoms: N_11  and  C_12 
REMARK    7  A    between atoms: C_19  and  C_20 
REMARK       I    between atoms: C_20  and  N_21 
ROOT
HETATM    1  C   UNL     1      40.695 -15.040   1.182  1.00  0.00     0.224 C 
HETATM    2  N   UNL     1      41.996 -15.154   1.634  1.00  0.00    -0.327 N 
HETATM    3  O   UNL     1      39.752 -15.760   1.493  1.00  0.00    -0.273 OA
HETATM    4  H   UNL     1      42.674 -14.530   1.203  1.00  0.00     0.169 HD
ENDROOT
BRANCH   2   5
HETATM    5  C   UNL     1      42.512 -16.090   2.553  1.00  0.00     0.035 A 
HETATM    6  C   UNL     1      42.349 -15.985   3.942  1.00  0.00     0.046 A 
HETATM    7  C   UNL     1      42.924 -16.962   4.784  1.00  0.00     0.030 A 
HETATM    8  C   UNL     1      43.620 -18.019   4.209  1.00  0.00     0.063 A 
HETATM    9  C   UNL     1      43.012 -17.185   6.191  1.00  0.00     0.156 A 
HETATM   10  N   UNL     1      44.035 -18.792   5.256  1.00  0.00    -0.277 N 
HETATM   11  C   UNL     1      43.798 -18.154   2.831  1.00  0.00     0.034 A 
HETATM   12  H   UNL     1      44.565 -19.654   5.209  1.00  0.00     0.189 HD
HETATM   13  N   UNL     1      43.696 -18.321   6.467  1.00  0.00    -0.168 NA
HETATM   14  C   UNL     1      43.241 -17.160   2.019  1.00  0.00     0.032 A 
BRANCH   9  15
HETATM   15  C   UNL     1      42.478 -16.342   7.271  1.00  0.00     0.270 C 
HETATM   16  N   UNL     1      43.313 -16.219   8.348  1.00  0.00    -0.365 N 
HETATM   17  H   UNL     1      44.213 -16.683   8.318  1.00  0.00     0.159 HD
HETATM   18  H   UNL     1      43.044 -15.632   9.122  1.00  0.00     0.159 HD
HETATM   19  O   UNL     1      41.394 -15.770   7.242  1.00  0.00    -0.266 OA
ENDBRANCH   9  15
ENDBRANCH   2   5
BRANCH   1  20
HETATM   20  C   UNL     1      40.476 -13.867   0.243  1.00  0.00     0.130 C 
BRANCH  20  21
HETATM   21  C   UNL     1      41.150 -12.591   0.730  1.00  0.00     0.185 C 
BRANCH  21  22
HETATM   22  O   UNL     1      40.588 -12.270   2.013  1.00  0.00    -0.351 OA
BRANCH  22  23
HETATM   23  C   UNL     1      41.508 -12.162   3.018  1.00  0.00     0.068 A 
HETATM   24  C   UNL     1      41.122 -12.663   4.259  1.00  0.00     0.037 A 
HETATM   25  C   UNL     1      42.005 -12.619   5.340  1.00  0.00     0.010 A 
HETATM   26  C   UNL     1      43.298 -12.100   5.186  1.00  0.00    -0.055 A 
HETATM   27  C   UNL     1      43.679 -11.617   3.924  1.00  0.00     0.010 A 
HETATM   28  C   UNL     1      42.791 -11.651   2.843  1.00  0.00     0.037 A 
BRANCH  26  29
HETATM   29  C   UNL     1      44.279 -12.039   6.344  1.00  0.00     0.010 C 
HETATM   30  C   UNL     1      43.713 -11.273   7.544  1.00  0.00     0.015 C 
HETATM   31  C   UNL     1      45.615 -11.441   5.898  1.00  0.00     0.015 C 
ENDBRANCH  26  29
ENDBRANCH  22  23
ENDBRANCH  21  22
ENDBRANCH  20  21
ENDBRANCH   1  20
TORSDOF 7
ENDMDL
MODEL 5
REMARK VINA RESULT:      -8.1      3.363      9.754
REMARK  7 active torsions:
REMARK  status: ('A' for Active; 'I' for Inactive)
REMARK    1  A    between atoms: C_2  and  C_3 
REMARK    2  A    between atoms: C_6  and  O_7 
REMARK    3  A    between atoms: O_7  and  C_8 
REMARK    4  A    between atoms: C_8  and  C_9 
REMARK    5  A    between atoms: C_9  and  C_10 
REMARK       I    between atoms: C_10  and  N_11 
REMARK    6  A    between atoms: N_11  and  C_12 
REMARK    7  A    between atoms: C_19  and  C_20 
REMARK       I    between atoms: C_20  and  N_21 
ROOT
HETATM    1  C   UNL     1      45.145 -11.538   6.358  1.00  0.00     0.224 C 
HETATM    2  N   UNL     1      44.250 -12.456   6.872  1.00  0.00    -0.327 N 
HETATM    3  O   UNL     1      45.229 -11.182   5.188  1.00  0.00    -0.273 OA
HETATM    4  H   UNL     1      44.378 -12.706   7.850  1.00  0.00     0.169 HD
ENDROOT
BRANCH   2   5
HETATM    5  C   UNL     1      43.237 -13.155   6.183  1.00  0.00     0.035 A 
HETATM    6  C   UNL     1      43.422 -14.417   5.602  1.00  0.00     0.046 A 
HETATM    7  C   UNL     1      42.352 -15.027   4.911  1.00  0.00     0.030 A 
HETATM    8  C   UNL     1      41.131 -14.367   4.847  1.00  0.00     0.063 A 
HETATM    9  C   UNL     1      42.155 -16.238   4.181  1.00  0.00     0.156 A 
HETATM   10  N   UNL     1      40.306 -15.198   4.143  1.00  0.00    -0.277 N 
HETATM   11  C   UNL     1      40.912 -13.112   5.418  1.00  0.00     0.034 A 
HETATM   12  H   UNL     1      39.332 -15.043   3.911  1.00  0.00     0.189 HD
HETATM   13  N   UNL     1      40.887 -16.331   3.718  1.00  0.00    -0.168 NA
HETATM   14  C   UNL     1      41.995 -12.516   6.075  1.00  0.00     0.032 A 
BRANCH   9  15
HETATM   15  C   UNL     1      43.143 -17.291   3.903  1.00  0.00     0.270 C 
HETATM   16  N   UNL     1      43.212 -17.658   2.587  1.00  0.00    -0.365 N 
HETATM   17  H   UNL     1      42.615 -17.183   1.919  1.00  0.00     0.159 HD
HETATM   18  H   UNL     1      43.884 -18.350   2.297  1.00  0.00     0.159 HD
HETATM   19  O   UNL     1      43.869 -17.810   4.744  1.00  0.00    -0.266 OA
ENDBRANCH   9  15
ENDBRANCH   2   5
BRANCH   1  20
HETATM   20  C   UNL     1      46.058 -10.924   7.406  1.00  0.00     0.130 C 
BRANCH  20  21
HETATM   21  C   UNL     1      45.313 -10.012   8.371  1.00  0.00     0.185 C 
BRANCH  21  22
HETATM   22  O   UNL     1      44.540 -10.851   9.245  1.00  0.00    -0.351 OA
BRANCH  22  23
HETATM   23  C   UNL     1      44.001 -10.197  10.318  1.00  0.00     0.068 A 
HETATM   24  C   UNL     1      43.600 -10.997  11.385  1.00  0.00     0.037 A 
HETATM   25  C   UNL     1      43.061 -10.417  12.535  1.00  0.00     0.010 A 
HETATM   26  C   UNL     1      42.944  -9.024  12.645  1.00  0.00    -0.055 A 
HETATM   27  C   UNL     1      43.372  -8.230  11.569  1.00  0.00     0.010 A 
HETATM   28  C   UNL     1      43.902  -8.812  10.412  1.00  0.00     0.037 A 
BRANCH  26  29
HETATM   29  C   UNL     1      42.361  -8.366  13.884  1.00  0.00     0.010 C 
HETATM   30  C   UNL     1      40.872  -8.046  13.724  1.00  0.00     0.015 C 
HETATM   31  C   UNL     1      43.151  -7.109  14.257  1.00  0.00     0.015 C 
ENDBRANCH  26  29
ENDBRANCH  22  23
ENDBRANCH  21  22
ENDBRANCH  20  21
ENDBRANCH   1  20
TORSDOF 7
ENDMDL
MODEL 6
REMARK VINA RESULT:      -8.0      4.488      8.398
REMARK  7 active torsions:
REMARK  status: ('A' for Active; 'I' for Inactive)
REMARK    1  A    between atoms: C_2  and  C_3 
REMARK    2  A    between atoms: C_6  and  O_7 
REMARK    3  A    between atoms: O_7  and  C_8 
REMARK    4  A    between atoms: C_8  and  C_9 
REMARK    5  A    between atoms: C_9  and  C_10 
REMARK       I    between atoms: C_10  and  N_11 
REMARK    6  A    between atoms: N_11  and  C_12 
REMARK    7  A    between atoms: C_19  and  C_20 
REMARK       I    between atoms: C_20  and  N_21 
ROOT
HETATM    1  C   UNL     1      40.757 -14.995   0.947  1.00  0.00     0.224 C 
HETATM    2  N   UNL     1      42.088 -15.128   1.294  1.00  0.00    -0.327 N 
HETATM    3  O   UNL     1      39.805 -15.540   1.495  1.00  0.00    -0.273 OA
HETATM    4  H   UNL     1      42.758 -14.678   0.674  1.00  0.00     0.169 HD
ENDROOT
BRANCH   2   5
HETATM    5  C   UNL     1      42.634 -15.886   2.350  1.00  0.00     0.035 A 
HETATM    6  C   UNL     1      42.925 -17.254   2.254  1.00  0.00     0.046 A 
HETATM    7  C   UNL     1      43.450 -17.932   3.376  1.00  0.00     0.030 A 
HETATM    8  C   UNL     1      43.687 -17.217   4.543  1.00  0.00     0.063 A 
HETATM    9  C   UNL     1      43.829 -19.274   3.684  1.00  0.00     0.156 A 
HETATM   10  N   UNL     1      44.200 -18.124   5.427  1.00  0.00    -0.277 N 
HETATM   11  C   UNL     1      43.412 -15.854   4.671  1.00  0.00     0.034 A 
HETATM   12  H   UNL     1      44.499 -17.950   6.380  1.00  0.00     0.189 HD
HETATM   13  N   UNL     1      44.295 -19.375   4.950  1.00  0.00    -0.168 NA
HETATM   14  C   UNL     1      42.869 -15.209   3.554  1.00  0.00     0.032 A 
BRANCH   9  15
HETATM   15  C   UNL     1      43.743 -20.455   2.812  1.00  0.00     0.270 C 
HETATM   16  N   UNL     1      44.173 -21.614   3.398  1.00  0.00    -0.365 N 
HETATM   17  H   UNL     1      44.489 -21.582   4.360  1.00  0.00     0.159 HD
HETATM   18  H   UNL     1      44.120 -22.480   2.886  1.00  0.00     0.159 HD
HETATM   19  O   UNL     1      43.318 -20.447   1.662  1.00  0.00    -0.266 OA
ENDBRANCH   9  15
ENDBRANCH   2   5
BRANCH   1  20
HETATM   20  C   UNL     1      40.521 -14.038  -0.208  1.00  0.00     0.130 C 
BRANCH  20  21
HETATM   21  C   UNL     1      40.983 -12.620   0.100  1.00  0.00     0.185 C 
BRANCH  21  22
HETATM   22  O   UNL     1      40.248 -12.168   1.249  1.00  0.00    -0.351 OA
BRANCH  22  23
HETATM   23  C   UNL     1      40.992 -12.081   2.392  1.00  0.00     0.068 A 
HETATM   24  C   UNL     1      42.311 -11.660   2.234  1.00  0.00     0.037 A 
HETATM   25  C   UNL     1      43.141 -11.517   3.348  1.00  0.00     0.010 A 
HETATM   26  C   UNL     1      42.653 -11.763   4.639  1.00  0.00    -0.055 A 
HETATM   27  C   UNL     1      41.316 -12.166   4.784  1.00  0.00     0.010 A 
HETATM   28  C   UNL     1      40.487 -12.320   3.667  1.00  0.00     0.037 A 
BRANCH  26  29
HETATM   29  C   UNL     1      43.533 -11.615   5.868  1.00  0.00     0.010 C 
HETATM   30  C   UNL     1      44.998 -11.354   5.505  1.00  0.00     0.015 C 
HETATM   31  C   UNL     1      43.409 -12.838   6.779  1.00  0.00     0.015 C 
ENDBRANCH  26  29
ENDBRANCH  22  23
ENDBRANCH  21  22
ENDBRANCH  20  21
ENDBRANCH   1  20
TORSDOF 7
ENDMDL
MODEL 7
REMARK VINA RESULT:      -8.0      3.674      9.905
REMARK  7 active torsions:
REMARK  status: ('A' for Active; 'I' for Inactive)
REMARK    1  A    between atoms: C_2  and  C_3 
REMARK    2  A    between atoms: C_6  and  O_7 
REMARK    3  A    between atoms: O_7  and  C_8 
REMARK    4  A    between atoms: C_8  and  C_9 
REMARK    5  A    between atoms: C_9  and  C_10 
REMARK       I    between atoms: C_10  and  N_11 
REMARK    6  A    between atoms: N_11  and  C_12 
REMARK    7  A    between atoms: C_19  and  C_20 
REMARK       I    between atoms: C_20  and  N_21 
ROOT
HETATM    1  C   UNL     1      44.116 -12.330   7.011  1.00  0.00     0.224 C 
HETATM    2  N   UNL     1      43.256 -13.409   6.938  1.00  0.00    -0.327 N 
HETATM    3  O   UNL     1      45.166 -12.194   6.393  1.00  0.00    -0.273 OA
HETATM    4  H   UNL     1      42.475 -13.403   7.589  1.00  0.00     0.169 HD
ENDROOT
BRANCH   2   5
HETATM    5  C   UNL     1      43.381 -14.560   6.132  1.00  0.00     0.035 A 
HETATM    6  C   UNL     1      42.739 -14.714   4.896  1.00  0.00     0.046 A 
HETATM    7  C   UNL     1      42.908 -15.915   4.171  1.00  0.00     0.030 A 
HETATM    8  C   UNL     1      43.728 -16.906   4.696  1.00  0.00     0.063 A 
HETATM    9  C   UNL     1      42.418 -16.454   2.944  1.00  0.00     0.156 A 
HETATM   10  N   UNL     1      43.706 -17.918   3.779  1.00  0.00    -0.277 N 
HETATM   11  C   UNL     1      44.383 -16.783   5.923  1.00  0.00     0.034 A 
HETATM   12  H   UNL     1      44.201 -18.802   3.828  1.00  0.00     0.189 HD
HETATM   13  N   UNL     1      42.923 -17.688   2.713  1.00  0.00    -0.168 NA
HETATM   14  C   UNL     1      44.181 -15.595   6.634  1.00  0.00     0.032 A 
BRANCH   9  15
HETATM   15  C   UNL     1      41.475 -15.833   2.002  1.00  0.00     0.270 C 
HETATM   16  N   UNL     1      42.076 -15.139   0.987  1.00  0.00    -0.365 N 
HETATM   17  H   UNL     1      43.088 -15.120   0.946  1.00  0.00     0.159 HD
HETATM   18  H   UNL     1      41.509 -14.708   0.275  1.00  0.00     0.159 HD
HETATM   19  O   UNL     1      40.254 -15.918   2.075  1.00  0.00    -0.266 OA
ENDBRANCH   9  15
ENDBRANCH   2   5
BRANCH   1  20
HETATM   20  C   UNL     1      43.633 -11.228   7.938  1.00  0.00     0.130 C 
BRANCH  20  21
HETATM   21  C   UNL     1      44.776 -10.406   8.519  1.00  0.00     0.185 C 
BRANCH  21  22
HETATM   22  O   UNL     1      45.025 -10.895   9.847  1.00  0.00    -0.351 OA
BRANCH  22  23
HETATM   23  C   UNL     1      44.313 -10.257  10.823  1.00  0.00     0.068 A 
HETATM   24  C   UNL     1      43.566 -11.073  11.670  1.00  0.00     0.037 A 
HETATM   25  C   UNL     1      42.825 -10.512  12.712  1.00  0.00     0.010 A 
HETATM   26  C   UNL     1      42.846  -9.129  12.941  1.00  0.00    -0.055 A 
HETATM   27  C   UNL     1      43.620  -8.323  12.092  1.00  0.00     0.010 A 
HETATM   28  C   UNL     1      44.354  -8.883  11.040  1.00  0.00     0.037 A 
BRANCH  26  29
HETATM   29  C   UNL     1      42.050  -8.493  14.067  1.00  0.00     0.010 C 
HETATM   30  C   UNL     1      40.594  -8.231  13.672  1.00  0.00     0.015 C 
HETATM   31  C   UNL     1      42.721  -7.205  14.550  1.00  0.00     0.015 C 
ENDBRANCH  26  29
ENDBRANCH  22  23
ENDBRANCH  21  22
ENDBRANCH  20  21
ENDBRANCH   1  20
TORSDOF 7
ENDMDL
MODEL 8
REMARK VINA RESULT:      -8.0      3.072      5.807
REMARK  7 active torsions:
REMARK  status: ('A' for Active; 'I' for Inactive)
REMARK    1  A    between atoms: C_2  and  C_3 
REMARK    2  A    between atoms: C_6  and  O_7 
REMARK    3  A    between atoms: O_7  and  C_8 
REMARK    4  A    between atoms: C_8  and  C_9 
REMARK    5  A    between atoms: C_9  and  C_10 
REMARK       I    between atoms: C_10  and  N_11 
REMARK    6  A    between atoms: N_11  and  C_12 
REMARK    7  A    between atoms: C_19  and  C_20 
REMARK       I    between atoms: C_20  and  N_21 
ROOT
HETATM    1  C   UNL     1      45.330  -8.825   8.645  1.00  0.00     0.224 C 
HETATM    2  N   UNL     1      44.685  -9.653   9.545  1.00  0.00    -0.327 N 
HETATM    3  O   UNL     1      45.073  -7.646   8.430  1.00  0.00    -0.273 OA
HETATM    4  H   UNL     1      44.964 -10.631   9.531  1.00  0.00     0.169 HD
ENDROOT
BRANCH   2   5
HETATM    5  C   UNL     1      43.626  -9.323  10.416  1.00  0.00     0.035 A 
HETATM    6  C   UNL     1      42.273  -9.487  10.090  1.00  0.00     0.046 A 
HETATM    7  C   UNL     1      41.283  -9.106  11.022  1.00  0.00     0.030 A 
HETATM    8  C   UNL     1      41.679  -8.599  12.253  1.00  0.00     0.063 A 
HETATM    9  C   UNL     1      39.856  -9.081  11.055  1.00  0.00     0.156 A 
HETATM   10  N   UNL     1      40.521  -8.342  12.930  1.00  0.00    -0.277 N 
HETATM   11  C   UNL     1      43.017  -8.425  12.611  1.00  0.00     0.034 A 
HETATM   12  H   UNL     1      40.428  -7.972  13.869  1.00  0.00     0.189 HD
HETATM   13  N   UNL     1      39.400  -8.612  12.241  1.00  0.00    -0.168 NA
HETATM   14  C   UNL     1      43.980  -8.786  11.661  1.00  0.00     0.032 A 
BRANCH   9  15
HETATM   15  C   UNL     1      38.924  -9.474   9.988  1.00  0.00     0.270 C 
HETATM   16  N   UNL     1      38.598 -10.803   9.993  1.00  0.00    -0.365 N 
HETATM   17  H   UNL     1      38.990 -11.395  10.716  1.00  0.00     0.159 HD
HETATM   18  H   UNL     1      37.939 -11.156   9.318  1.00  0.00     0.159 HD
HETATM   19  O   UNL     1      38.448  -8.708   9.157  1.00  0.00    -0.266 OA
ENDBRANCH   9  15
ENDBRANCH   2   5
BRANCH   1  20
HETATM   20  C   UNL     1      46.479  -9.498   7.915  1.00  0.00     0.130 C 
BRANCH  20  21
HETATM   21  C   UNL     1      46.052 -10.767   7.190  1.00  0.00     0.185 C 
BRANCH  21  22
HETATM   22  O   UNL     1      44.652 -10.642   6.892  1.00  0.00    -0.351 OA
BRANCH  22  23
HETATM   23  C   UNL     1      44.099 -11.752   6.318  1.00  0.00     0.068 A 
HETATM   24  C   UNL     1      43.736 -11.633   4.979  1.00  0.00     0.037 A 
HETATM   25  C   UNL     1      43.186 -12.723   4.301  1.00  0.00     0.010 A 
HETATM   26  C   UNL     1      43.019 -13.956   4.945  1.00  0.00    -0.055 A 
HETATM   27  C   UNL     1      43.409 -14.066   6.290  1.00  0.00     0.010 A 
HETATM   28  C   UNL     1      43.951 -12.971   6.973  1.00  0.00     0.037 A 
BRANCH  26  29
HETATM   29  C   UNL     1      42.424 -15.158   4.233  1.00  0.00     0.010 C 
HETATM   30  C   UNL     1      41.061 -15.556   4.807  1.00  0.00     0.015 C 
HETATM   31  C   UNL     1      43.391 -16.343   4.258  1.00  0.00     0.015 C 
ENDBRANCH  26  29
ENDBRANCH  22  23
ENDBRANCH  21  22
ENDBRANCH  20  21
ENDBRANCH   1  20
TORSDOF 7
ENDMDL
MODEL 9
REMARK VINA RESULT:      -8.0      2.510      4.709
REMARK  7 active torsions:
REMARK  status: ('A' for Active; 'I' for Inactive)
REMARK    1  A    between atoms: C_2  and  C_3 
REMARK    2  A    between atoms: C_6  and  O_7 
REMARK    3  A    between atoms: O_7  and  C_8 
REMARK    4  A    between atoms: C_8  and  C_9 
REMARK    5  A    between atoms: C_9  and  C_10 
REMARK       I    between atoms: C_10  and  N_11 
REMARK    6  A    between atoms: N_11  and  C_12 
REMARK    7  A    between atoms: C_19  and  C_20 
REMARK       I    between atoms: C_20  and  N_21 
ROOT
HETATM    1  C   UNL     1      43.368 -17.056   6.143  1.00  0.00     0.224 C 
HETATM    2  N   UNL     1      43.562 -15.904   5.405  1.00  0.00    -0.327 N 
HETATM    3  O   UNL     1      42.810 -17.135   7.233  1.00  0.00    -0.273 OA
HETATM    4  H   UNL     1      44.127 -16.002   4.565  1.00  0.00     0.169 HD
ENDROOT
BRANCH   2   5
HETATM    5  C   UNL     1      43.148 -14.594   5.723  1.00  0.00     0.035 A 
HETATM    6  C   UNL     1      43.974 -13.649   6.349  1.00  0.00     0.046 A 
HETATM    7  C   UNL     1      43.460 -12.368   6.647  1.00  0.00     0.030 A 
HETATM    8  C   UNL     1      42.152 -12.069   6.289  1.00  0.00     0.063 A 
HETATM    9  C   UNL     1      43.947 -11.186   7.284  1.00  0.00     0.156 A 
HETATM   10  N   UNL     1      41.953 -10.777   6.685  1.00  0.00    -0.277 N 
HETATM   11  C   UNL     1      41.305 -12.985   5.662  1.00  0.00     0.034 A 
HETATM   12  H   UNL     1      41.111 -10.223   6.574  1.00  0.00     0.189 HD
HETATM   13  N   UNL     1      43.008 -10.212   7.295  1.00  0.00    -0.168 NA
HETATM   14  C   UNL     1      41.828 -14.256   5.400  1.00  0.00     0.032 A 
BRANCH   9  15
HETATM   15  C   UNL     1      45.269 -10.972   7.890  1.00  0.00     0.270 C 
HETATM   16  N   UNL     1      46.275 -10.776   6.984  1.00  0.00    -0.365 N 
HETATM   17  H   UNL     1      46.043 -10.773   5.997  1.00  0.00     0.159 HD
HETATM   18  H   UNL     1      47.209 -10.588   7.309  1.00  0.00     0.159 HD
HETATM   19  O   UNL     1      45.490 -10.948   9.096  1.00  0.00    -0.266 OA
ENDBRANCH   9  15
ENDBRANCH   2   5
BRANCH   1  20
HETATM   20  C   UNL     1      43.887 -18.311   5.463  1.00  0.00     0.130 C 
BRANCH  20  21
HETATM   21  C   UNL     1      44.363 -18.052   4.040  1.00  0.00     0.185 C 
BRANCH  21  22
HETATM   22  O   UNL     1      43.263 -18.336   3.160  1.00  0.00    -0.351 OA
BRANCH  22  23
HETATM   23  C   UNL     1      42.719 -17.230   2.568  1.00  0.00     0.068 A 
HETATM   24  C   UNL     1      41.353 -17.042   2.762  1.00  0.00     0.037 A 
HETATM   25  C   UNL     1      40.713 -15.927   2.216  1.00  0.00     0.010 A 
HETATM   26  C   UNL     1      41.438 -14.969   1.495  1.00  0.00    -0.055 A 
HETATM   27  C   UNL     1      42.818 -15.162   1.326  1.00  0.00     0.010 A 
HETATM   28  C   UNL     1      43.458 -16.285   1.864  1.00  0.00     0.037 A 
BRANCH  26  29
HETATM   29  C   UNL     1      40.768 -13.747   0.890  1.00  0.00     0.010 C 
HETATM   30  C   UNL     1      39.699 -13.155   1.813  1.00  0.00     0.015 C 
HETATM   31  C   UNL     1      40.180 -14.071  -0.485  1.00  0.00     0.015 C 
ENDBRANCH  26  29
ENDBRANCH  22  23
ENDBRANCH  21  22
ENDBRANCH  20  21
ENDBRANCH   1  20
TORSDOF 7
ENDMDL
MODEL 10
REMARK VINA RESULT:      -7.9      3.375      5.522
REMARK  7 active torsions:
REMARK  status: ('A' for Active; 'I' for Inactive)
REMARK    1  A    between atoms: C_2  and  C_3 
REMARK    2  A    between atoms: C_6  and  O_7 
REMARK    3  A    between atoms: O_7  and  C_8 
REMARK    4  A    between atoms: C_8  and  C_9 
REMARK    5  A    between atoms: C_9  and  C_10 
REMARK       I    between atoms: C_10  and  N_11 
REMARK    6  A    between atoms: N_11  and  C_12 
REMARK    7  A    between atoms: C_19  and  C_20 
REMARK       I    between atoms: C_20  and  N_21 
ROOT
HETATM    1  C   UNL     1      45.015 -10.329   9.105  1.00  0.00     0.224 C 
HETATM    2  N   UNL     1      43.943  -9.483   8.894  1.00  0.00    -0.327 N 
HETATM    3  O   UNL     1      45.437 -10.710  10.192  1.00  0.00    -0.273 OA
HETATM    4  H   UNL     1      43.785  -9.194   7.931  1.00  0.00     0.169 HD
ENDROOT
BRANCH   2   5
HETATM    5  C   UNL     1      43.098  -8.902   9.861  1.00  0.00     0.035 A 
HETATM    6  C   UNL     1      42.109  -9.612  10.556  1.00  0.00     0.046 A 
HETATM    7  C   UNL     1      41.296  -8.936  11.492  1.00  0.00     0.030 A 
HETATM    8  C   UNL     1      41.514  -7.582  11.716  1.00  0.00     0.063 A 
HETATM    9  C   UNL     1      40.201  -9.279  12.342  1.00  0.00     0.156 A 
HETATM   10  N   UNL     1      40.601  -7.220  12.666  1.00  0.00    -0.277 N 
HETATM   11  C   UNL     1      42.490  -6.846  11.043  1.00  0.00     0.034 A 
HETATM   12  H   UNL     1      40.477  -6.303  13.080  1.00  0.00     0.189 HD
HETATM   13  N   UNL     1      39.787  -8.211  13.064  1.00  0.00    -0.168 NA
HETATM   14  C   UNL     1      43.267  -7.532  10.103  1.00  0.00     0.032 A 
BRANCH   9  15
HETATM   15  C   UNL     1      39.537 -10.584  12.470  1.00  0.00     0.270 C 
HETATM   16  N   UNL     1      38.917 -11.010  11.327  1.00  0.00    -0.365 N 
HETATM   17  H   UNL     1      38.975 -10.428  10.499  1.00  0.00     0.159 HD
HETATM   18  H   UNL     1      38.464 -11.909  11.312  1.00  0.00     0.159 HD
HETATM   19  O   UNL     1      39.526 -11.267  13.488  1.00  0.00    -0.266 OA
ENDBRANCH   9  15
ENDBRANCH   2   5
BRANCH   1  20
HETATM   20  C   UNL     1      45.662 -10.824   7.823  1.00  0.00     0.130 C 
BRANCH  20  21
HETATM   21  C   UNL     1      44.651 -11.396   6.838  1.00  0.00     0.185 C 
BRANCH  21  22
HETATM   22  O   UNL     1      44.080 -12.570   7.439  1.00  0.00    -0.351 OA
BRANCH  22  23
HETATM   23  C   UNL     1      43.667 -13.515   6.542  1.00  0.00     0.068 A 
HETATM   24  C   UNL     1      43.159 -13.035   5.338  1.00  0.00     0.037 A 
HETATM   25  C   UNL     1      42.734 -13.926   4.350  1.00  0.00     0.010 A 
HETATM   26  C   UNL     1      42.841 -15.310   4.542  1.00  0.00    -0.055 A 
HETATM   27  C   UNL     1      43.375 -15.778   5.753  1.00  0.00     0.010 A 
HETATM   28  C   UNL     1      43.790 -14.885   6.748  1.00  0.00     0.037 A 
BRANCH  26  29
HETATM   29  C   UNL     1      42.388 -16.302   3.485  1.00  0.00     0.010 C 
HETATM   30  C   UNL     1      43.278 -16.271   2.240  1.00  0.00     0.015 C 
HETATM   31  C   UNL     1      40.922 -16.069   3.111  1.00  0.00     0.015 C 
ENDBRANCH  26  29
ENDBRANCH  22  23
ENDBRANCH  21  22
ENDBRANCH  20  21
ENDBRANCH   1  20
TORSDOF 7
ENDMDL
