MODEL 1
REMARK VINA RESULT:      -8.8      0.000      0.000
REMARK  6 active torsions:
REMARK  status: ('A' for Active; 'I' for Inactive)
REMARK    1  A    between atoms: C_2  and  C_3 
REMARK    2  A    between atoms: C_3  and  C_4 
REMARK    3  A    between atoms: C_3  and  C_11 
REMARK    4  A    between atoms: C_11  and  C_12 
REMARK       I    between atoms: C_12  and  N_13 
REMARK    5  A    between atoms: N_13  and  C_14 
REMARK    6  A    between atoms: C_21  and  C_22 
REMARK       I    between atoms: C_22  and  N_23 
ROOT
HETATM    1  C   UNL     1      40.555 -12.858   1.739  1.00  0.00     0.035 A 
HETATM    2  C   UNL     1      40.317 -13.472   0.501  1.00  0.00     0.046 A 
HETATM    3  C   UNL     1      39.264 -13.003  -0.317  1.00  0.00     0.030 A 
HETATM    4  C   UNL     1      38.477 -11.953   0.139  1.00  0.00     0.063 A 
HETATM    5  N   UNL     1      37.558 -11.732  -0.847  1.00  0.00    -0.277 N 
HETATM    6  H   UNL     1      36.818 -11.039  -0.853  1.00  0.00     0.189 HD
HETATM    7  N   UNL     1      37.686 -12.532  -1.917  1.00  0.00    -0.168 NA
HETATM    8  C   UNL     1      38.740 -13.322  -1.606  1.00  0.00     0.156 A 
HETATM    9  C   UNL     1      38.681 -11.324   1.368  1.00  0.00     0.034 A 
HETATM   10  C   UNL     1      39.741 -11.794   2.152  1.00  0.00     0.032 A 
ENDROOT
BRANCH   1  11
HETATM   11  N   UNL     1      41.614 -13.216   2.603  1.00  0.00    -0.327 N 
HETATM   12  C   UNL     1      41.529 -13.884   3.809  1.00  0.00     0.222 C 
HETATM   13  O   UNL     1      40.489 -14.189   4.387  1.00  0.00    -0.273 OA
HETATM   14  H   UNL     1      42.523 -12.878   2.326  1.00  0.00     0.169 HD
BRANCH  12  15
HETATM   15  C   UNL     1      42.866 -14.360   4.371  1.00  0.00     0.112 C 
BRANCH  15  16
HETATM   16  C   UNL     1      42.868 -15.690   5.147  1.00  0.00     0.027 C 
BRANCH  16  17
HETATM   17  C   UNL     1      43.774 -15.631   6.401  1.00  0.00     0.005 C 
HETATM   18  C   UNL     1      43.063 -15.669   7.748  1.00  0.00     0.006 C 
ENDBRANCH  16  17
BRANCH  16  19
HETATM   19  C   UNL     1      43.158 -16.923   4.306  1.00  0.00    -0.053 A 
HETATM   20  C   UNL     1      43.967 -17.972   4.758  1.00  0.00     0.008 A 
HETATM   21  C   UNL     1      44.185 -19.102   3.963  1.00  0.00     0.007 A 
HETATM   22  C   UNL     1      43.596 -19.210   2.700  1.00  0.00    -0.062 A 
HETATM   23  C   UNL     1      43.860 -20.413   1.845  1.00  0.00     0.048 C 
HETATM   24  C   UNL     1      42.802 -18.160   2.234  1.00  0.00     0.007 A 
HETATM   25  C   UNL     1      42.577 -17.034   3.031  1.00  0.00     0.008 A 
ENDBRANCH  16  19
ENDBRANCH  15  16
ENDBRANCH  12  15
ENDBRANCH   1  11
BRANCH   8  26
HETATM   26  C   UNL     1      39.222 -14.344  -2.546  1.00  0.00     0.270 C 
HETATM   27  N   UNL     1      38.468 -15.486  -2.565  1.00  0.00    -0.365 N 
HETATM   28  H   UNL     1      37.656 -15.539  -1.963  1.00  0.00     0.159 HD
HETATM   29  H   UNL     1      38.711 -16.233  -3.195  1.00  0.00     0.159 HD
HETATM   30  O   UNL     1      40.200 -14.219  -3.276  1.00  0.00    -0.266 OA
ENDBRANCH   8  26
TORSDOF 6
ENDMDL
MODEL 2
REMARK VINA RESULT:      -8.7      3.812      6.972
REMARK  6 active torsions:
REMARK  status: ('A' for Active; 'I' for Inactive)
REMARK    1  A    between atoms: C_2  and  C_3 
REMARK    2  A    between atoms: C_3  and  C_4 
REMARK    3  A    between atoms: C_3  and  C_11 
REMARK    4  A    between atoms: C_11  and  C_12 
REMARK       I    between atoms: C_12  and  N_13 
REMARK    5  A    between atoms: N_13  and  C_14 
REMARK    6  A    between atoms: C_21  and  C_22 
REMARK       I    between atoms: C_22  and  N_23 
ROOT
HETATM    1  C   UNL     1      42.614 -12.915   4.946  1.00  0.00     0.035 A 
HETATM    2  C   UNL     1      43.599 -12.361   5.775  1.00  0.00     0.046 A 
HETATM    3  C   UNL     1      43.246 -11.347   6.694  1.00  0.00     0.030 A 
HETATM    4  C   UNL     1      41.927 -10.911   6.735  1.00  0.00     0.063 A 
HETATM    5  N   UNL     1      41.896  -9.941   7.697  1.00  0.00    -0.277 N 
HETATM    6  H   UNL     1      41.093  -9.396   7.994  1.00  0.00     0.189 HD
HETATM    7  N   UNL     1      43.073  -9.717   8.301  1.00  0.00    -0.168 NA
HETATM    8  C   UNL     1      43.918 -10.582   7.694  1.00  0.00     0.156 A 
HETATM    9  C   UNL     1      40.924 -11.434   5.920  1.00  0.00     0.034 A 
HETATM   10  C   UNL     1      41.294 -12.450   5.032  1.00  0.00     0.032 A 
ENDROOT
BRANCH   1  11
HETATM   11  N   UNL     1      42.854 -13.969   4.037  1.00  0.00    -0.327 N 
HETATM   12  C   UNL     1      42.824 -13.915   2.657  1.00  0.00     0.222 C 
HETATM   13  O   UNL     1      42.473 -12.948   1.985  1.00  0.00    -0.273 OA
HETATM   14  H   UNL     1      42.997 -14.873   4.459  1.00  0.00     0.169 HD
BRANCH  12  15
HETATM   15  C   UNL     1      43.391 -15.148   1.956  1.00  0.00     0.112 C 
BRANCH  15  16
HETATM   16  C   UNL     1      42.501 -16.405   1.918  1.00  0.00     0.027 C 
BRANCH  16  17
HETATM   17  C   UNL     1      41.026 -16.083   2.258  1.00  0.00     0.005 C 
HETATM   18  C   UNL     1      40.127 -15.718   1.083  1.00  0.00     0.006 C 
ENDBRANCH  16  17
BRANCH  16  19
HETATM   19  C   UNL     1      43.019 -17.582   2.729  1.00  0.00    -0.053 A 
HETATM   20  C   UNL     1      43.160 -18.866   2.188  1.00  0.00     0.008 A 
HETATM   21  C   UNL     1      43.668 -19.916   2.961  1.00  0.00     0.007 A 
HETATM   22  C   UNL     1      44.049 -19.704   4.289  1.00  0.00    -0.062 A 
HETATM   23  C   UNL     1      44.565 -20.844   5.116  1.00  0.00     0.048 C 
HETATM   24  C   UNL     1      43.894 -18.431   4.841  1.00  0.00     0.007 A 
HETATM   25  C   UNL     1      43.395 -17.380   4.067  1.00  0.00     0.008 A 
ENDBRANCH  16  19
ENDBRANCH  15  16
ENDBRANCH  12  15
ENDBRANCH   1  11
BRANCH   8  26
HETATM   26  C   UNL     1      45.330 -10.664   8.092  1.00  0.00     0.270 C 
HETATM   27  N   UNL     1      46.211 -10.540   7.052  1.00  0.00    -0.365 N 
HETATM   28  H   UNL     1      45.842 -10.394   6.121  1.00  0.00     0.159 HD
HETATM   29  H   UNL     1      47.202 -10.562   7.233  1.00  0.00     0.159 HD
HETATM   30  O   UNL     1      45.727 -10.815   9.243  1.00  0.00    -0.266 OA
ENDBRANCH   8  26
TORSDOF 6
ENDMDL
MODEL 3
REMARK VINA RESULT:      -8.6      4.383      7.378
REMARK  6 active torsions:
REMARK  status: ('A' for Active; 'I' for Inactive)
REMARK    1  A    between atoms: C_2  and  C_3 
REMARK    2  A    between atoms: C_3  and  C_4 
REMARK    3  A    between atoms: C_3  and  C_11 
REMARK    4  A    between atoms: C_11  and  C_12 
REMARK       I    between atoms: C_12  and  N_13 
REMARK    5  A    between atoms: N_13  and  C_14 
REMARK    6  A    between atoms: C_21  and  C_22 
REMARK       I    between atoms: C_22  and  N_23 
ROOT
HETATM    1  C   UNL     1      43.373 -14.207   5.743  1.00  0.00     0.035 A 
HETATM    2  C   UNL     1      44.132 -13.278   6.470  1.00  0.00     0.046 A 
HETATM    3  C   UNL     1      43.546 -12.052   6.859  1.00  0.00     0.030 A 
HETATM    4  C   UNL     1      42.231 -11.792   6.491  1.00  0.00     0.063 A 
HETATM    5  N   UNL     1      41.952 -10.554   6.995  1.00  0.00    -0.277 N 
HETATM    6  H   UNL     1      41.081 -10.040   6.914  1.00  0.00     0.189 HD
HETATM    7  N   UNL     1      42.960  -9.988   7.676  1.00  0.00    -0.168 NA
HETATM    8  C   UNL     1      43.953 -10.905   7.604  1.00  0.00     0.156 A 
HETATM    9  C   UNL     1      41.450 -12.690   5.763  1.00  0.00     0.034 A 
HETATM   10  C   UNL     1      42.047 -13.904   5.405  1.00  0.00     0.032 A 
ENDROOT
BRANCH   1  11
HETATM   11  N   UNL     1      43.849 -15.479   5.357  1.00  0.00    -0.327 N 
HETATM   12  C   UNL     1      43.380 -16.714   5.763  1.00  0.00     0.222 C 
HETATM   13  O   UNL     1      42.525 -16.907   6.624  1.00  0.00    -0.273 OA
HETATM   14  H   UNL     1      44.669 -15.468   4.769  1.00  0.00     0.169 HD
BRANCH  12  15
HETATM   15  C   UNL     1      43.921 -17.898   4.965  1.00  0.00     0.112 C 
BRANCH  15  16
HETATM   16  C   UNL     1      43.174 -18.274   3.672  1.00  0.00     0.027 C 
BRANCH  16  17
HETATM   17  C   UNL     1      44.019 -19.193   2.758  1.00  0.00     0.005 C 
HETATM   18  C   UNL     1      43.251 -20.234   1.953  1.00  0.00     0.006 C 
ENDBRANCH  16  17
BRANCH  16  19
HETATM   19  C   UNL     1      42.594 -17.098   2.902  1.00  0.00    -0.053 A 
HETATM   20  C   UNL     1      41.257 -16.701   3.025  1.00  0.00     0.008 A 
HETATM   21  C   UNL     1      40.770 -15.595   2.320  1.00  0.00     0.007 A 
HETATM   22  C   UNL     1      41.610 -14.861   1.479  1.00  0.00    -0.062 A 
HETATM   23  C   UNL     1      41.071 -13.694   0.705  1.00  0.00     0.048 C 
HETATM   24  C   UNL     1      42.941 -15.261   1.335  1.00  0.00     0.007 A 
HETATM   25  C   UNL     1      43.429 -16.361   2.046  1.00  0.00     0.008 A 
ENDBRANCH  16  19
ENDBRANCH  15  16
ENDBRANCH  12  15
ENDBRANCH   1  11
BRANCH   8  26
HETATM   26  C   UNL     1      45.250 -10.668   8.255  1.00  0.00     0.270 C 
HETATM   27  N   UNL     1      46.248 -10.304   7.393  1.00  0.00    -0.365 N 
HETATM   28  H   UNL     1      46.029 -10.215   6.409  1.00  0.00     0.159 HD
HETATM   29  H   UNL     1      47.167 -10.101   7.753  1.00  0.00     0.159 HD
HETATM   30  O   UNL     1      45.457 -10.765   9.460  1.00  0.00    -0.266 OA
ENDBRANCH   8  26
TORSDOF 6
ENDMDL
MODEL 4
REMARK VINA RESULT:      -8.5      4.531      8.248
REMARK  6 active torsions:
REMARK  status: ('A' for Active; 'I' for Inactive)
REMARK    1  A    between atoms: C_2  and  C_3 
REMARK    2  A    between atoms: C_3  and  C_4 
REMARK    3  A    between atoms: C_3  and  C_11 
REMARK    4  A    between atoms: C_11  and  C_12 
REMARK       I    between atoms: C_12  and  N_13 
REMARK    5  A    between atoms: N_13  and  C_14 
REMARK    6  A    between atoms: C_21  and  C_22 
REMARK       I    between atoms: C_22  and  N_23 
ROOT
HETATM    1  C   UNL     1      44.004 -12.527   6.540  1.00  0.00     0.035 A 
HETATM    2  C   UNL     1      43.630 -11.936   7.756  1.00  0.00     0.046 A 
HETATM    3  C   UNL     1      44.437 -10.919   8.313  1.00  0.00     0.030 A 
HETATM    4  C   UNL     1      45.597 -10.543   7.645  1.00  0.00     0.063 A 
HETATM    5  N   UNL     1      46.157  -9.563   8.415  1.00  0.00    -0.277 N 
HETATM    6  H   UNL     1      47.019  -9.059   8.235  1.00  0.00     0.189 HD
HETATM    7  N   UNL     1      45.457  -9.251   9.516  1.00  0.00    -0.168 NA
HETATM    8  C   UNL     1      44.388 -10.079   9.466  1.00  0.00     0.156 A 
HETATM    9  C   UNL     1      46.003 -11.115   6.439  1.00  0.00     0.034 A 
HETATM   10  C   UNL     1      45.177 -12.107   5.898  1.00  0.00     0.032 A 
ENDROOT
BRANCH   1  11
HETATM   11  N   UNL     1      43.237 -13.510   5.876  1.00  0.00    -0.327 N 
HETATM   12  C   UNL     1      42.481 -13.356   4.730  1.00  0.00     0.222 C 
HETATM   13  O   UNL     1      42.264 -12.295   4.151  1.00  0.00    -0.273 OA
HETATM   14  H   UNL     1      43.193 -14.403   6.341  1.00  0.00     0.169 HD
BRANCH  12  15
HETATM   15  C   UNL     1      41.989 -14.662   4.109  1.00  0.00     0.112 C 
BRANCH  15  16
HETATM   16  C   UNL     1      42.976 -15.425   3.205  1.00  0.00     0.027 C 
BRANCH  16  17
HETATM   17  C   UNL     1      42.523 -15.430   1.725  1.00  0.00     0.005 C 
HETATM   18  C   UNL     1      41.025 -15.563   1.479  1.00  0.00     0.006 C 
ENDBRANCH  16  17
BRANCH  16  19
HETATM   19  C   UNL     1      43.337 -16.821   3.685  1.00  0.00    -0.053 A 
HETATM   20  C   UNL     1      43.566 -17.886   2.804  1.00  0.00     0.008 A 
HETATM   21  C   UNL     1      43.925 -19.149   3.286  1.00  0.00     0.007 A 
HETATM   22  C   UNL     1      44.066 -19.374   4.658  1.00  0.00    -0.062 A 
HETATM   23  C   UNL     1      44.423 -20.740   5.166  1.00  0.00     0.048 C 
HETATM   24  C   UNL     1      43.822 -18.323   5.544  1.00  0.00     0.007 A 
HETATM   25  C   UNL     1      43.471 -17.058   5.063  1.00  0.00     0.008 A 
ENDBRANCH  16  19
ENDBRANCH  15  16
ENDBRANCH  12  15
ENDBRANCH   1  11
BRANCH   8  26
HETATM   26  C   UNL     1      43.349 -10.036  10.504  1.00  0.00     0.270 C 
HETATM   27  N   UNL     1      43.316 -11.144  11.307  1.00  0.00    -0.365 N 
HETATM   28  H   UNL     1      43.992 -11.880  11.143  1.00  0.00     0.159 HD
HETATM   29  H   UNL     1      42.650 -11.194  12.061  1.00  0.00     0.159 HD
HETATM   30  O   UNL     1      42.570  -9.105  10.679  1.00  0.00    -0.266 OA
ENDBRANCH   8  26
TORSDOF 6
ENDMDL
MODEL 5
REMARK VINA RESULT:      -8.4      4.813      7.454
REMARK  6 active torsions:
REMARK  status: ('A' for Active; 'I' for Inactive)
REMARK    1  A    between atoms: C_2  and  C_3 
REMARK    2  A    between atoms: C_3  and  C_4 
REMARK    3  A    between atoms: C_3  and  C_11 
REMARK    4  A    between atoms: C_11  and  C_12 
REMARK       I    between atoms: C_12  and  N_13 
REMARK    5  A    between atoms: N_13  and  C_14 
REMARK    6  A    between atoms: C_21  and  C_22 
REMARK       I    between atoms: C_22  and  N_23 
ROOT
HETATM    1  C   UNL     1      43.448 -12.908   6.404  1.00  0.00     0.035 A 
HETATM    2  C   UNL     1      44.082 -11.855   7.078  1.00  0.00     0.046 A 
HETATM    3  C   UNL     1      43.396 -10.632   7.260  1.00  0.00     0.030 A 
HETATM    4  C   UNL     1      42.112 -10.501   6.746  1.00  0.00     0.063 A 
HETATM    5  N   UNL     1      41.719  -9.233   7.067  1.00  0.00    -0.277 N 
HETATM    6  H   UNL     1      40.835  -8.789   6.846  1.00  0.00     0.189 HD
HETATM    7  N   UNL     1      42.625  -8.529   7.764  1.00  0.00    -0.168 NA
HETATM    8  C   UNL     1      43.667  -9.382   7.895  1.00  0.00     0.156 A 
HETATM    9  C   UNL     1      41.455 -11.525   6.063  1.00  0.00     0.034 A 
HETATM   10  C   UNL     1      42.147 -12.732   5.912  1.00  0.00     0.032 A 
ENDROOT
BRANCH   1  11
HETATM   11  N   UNL     1      44.026 -14.183   6.220  1.00  0.00    -0.327 N 
HETATM   12  C   UNL     1      43.691 -15.360   6.861  1.00  0.00     0.222 C 
HETATM   13  O   UNL     1      42.893 -15.469   7.789  1.00  0.00    -0.273 OA
HETATM   14  H   UNL     1      44.817 -14.208   5.595  1.00  0.00     0.169 HD
BRANCH  12  15
HETATM   15  C   UNL     1      44.310 -16.617   6.254  1.00  0.00     0.112 C 
BRANCH  15  16
HETATM   16  C   UNL     1      43.372 -17.552   5.467  1.00  0.00     0.027 C 
BRANCH  16  17
HETATM   17  C   UNL     1      44.072 -18.871   5.060  1.00  0.00     0.005 C 
HETATM   18  C   UNL     1      43.693 -20.110   5.861  1.00  0.00     0.006 C 
ENDBRANCH  16  17
BRANCH  16  19
HETATM   19  C   UNL     1      42.666 -16.905   4.286  1.00  0.00    -0.053 A 
HETATM   20  C   UNL     1      43.273 -16.757   3.033  1.00  0.00     0.008 A 
HETATM   21  C   UNL     1      42.579 -16.182   1.964  1.00  0.00     0.007 A 
HETATM   22  C   UNL     1      41.261 -15.745   2.123  1.00  0.00    -0.062 A 
HETATM   23  C   UNL     1      40.534 -15.104   0.978  1.00  0.00     0.048 C 
HETATM   24  C   UNL     1      40.653 -15.872   3.374  1.00  0.00     0.007 A 
HETATM   25  C   UNL     1      41.344 -16.454   4.441  1.00  0.00     0.008 A 
ENDBRANCH  16  19
ENDBRANCH  15  16
ENDBRANCH  12  15
ENDBRANCH   1  11
BRANCH   8  26
HETATM   26  C   UNL     1      44.879  -8.989   8.627  1.00  0.00     0.270 C 
HETATM   27  N   UNL     1      45.039  -9.628   9.826  1.00  0.00    -0.365 N 
HETATM   28  H   UNL     1      44.345 -10.310  10.107  1.00  0.00     0.159 HD
HETATM   29  H   UNL     1      45.853  -9.438  10.388  1.00  0.00     0.159 HD
HETATM   30  O   UNL     1      45.705  -8.174   8.229  1.00  0.00    -0.266 OA
ENDBRANCH   8  26
TORSDOF 6
ENDMDL
MODEL 6
REMARK VINA RESULT:      -8.2      4.369      7.338
REMARK  6 active torsions:
REMARK  status: ('A' for Active; 'I' for Inactive)
REMARK    1  A    between atoms: C_2  and  C_3 
REMARK    2  A    between atoms: C_3  and  C_4 
REMARK    3  A    between atoms: C_3  and  C_11 
REMARK    4  A    between atoms: C_11  and  C_12 
REMARK       I    between atoms: C_12  and  N_13 
REMARK    5  A    between atoms: N_13  and  C_14 
REMARK    6  A    between atoms: C_21  and  C_22 
REMARK       I    between atoms: C_22  and  N_23 
ROOT
HETATM    1  C   UNL     1      41.897 -11.549   5.926  1.00  0.00     0.035 A 
HETATM    2  C   UNL     1      43.095 -11.261   6.596  1.00  0.00     0.046 A 
HETATM    3  C   UNL     1      43.269  -9.993   7.196  1.00  0.00     0.030 A 
HETATM    4  C   UNL     1      42.249  -9.056   7.090  1.00  0.00     0.063 A 
HETATM    5  N   UNL     1      42.703  -7.950   7.751  1.00  0.00    -0.277 N 
HETATM    6  H   UNL     1      42.220  -7.066   7.872  1.00  0.00     0.189 HD
HETATM    7  N   UNL     1      43.921  -8.087   8.297  1.00  0.00    -0.168 NA
HETATM    8  C   UNL     1      44.284  -9.348   7.966  1.00  0.00     0.156 A 
HETATM    9  C   UNL     1      41.049  -9.306   6.425  1.00  0.00     0.034 A 
HETATM   10  C   UNL     1      40.892 -10.574   5.855  1.00  0.00     0.032 A 
ENDROOT
BRANCH   1  11
HETATM   11  N   UNL     1      41.606 -12.802   5.343  1.00  0.00    -0.327 N 
HETATM   12  C   UNL     1      42.171 -13.356   4.210  1.00  0.00     0.222 C 
HETATM   13  O   UNL     1      42.958 -12.793   3.454  1.00  0.00    -0.273 OA
HETATM   14  H   UNL     1      40.849 -13.308   5.775  1.00  0.00     0.169 HD
BRANCH  12  15
HETATM   15  C   UNL     1      41.843 -14.831   3.989  1.00  0.00     0.112 C 
BRANCH  15  16
HETATM   16  C   UNL     1      42.796 -15.634   3.084  1.00  0.00     0.027 C 
BRANCH  16  17
HETATM   17  C   UNL     1      42.241 -15.790   1.648  1.00  0.00     0.005 C 
HETATM   18  C   UNL     1      40.725 -15.769   1.505  1.00  0.00     0.006 C 
ENDBRANCH  16  17
BRANCH  16  19
HETATM   19  C   UNL     1      43.252 -16.967   3.656  1.00  0.00    -0.053 A 
HETATM   20  C   UNL     1      43.433 -17.177   5.028  1.00  0.00     0.008 A 
HETATM   21  C   UNL     1      43.826 -18.427   5.516  1.00  0.00     0.007 A 
HETATM   22  C   UNL     1      44.042 -19.497   4.643  1.00  0.00    -0.062 A 
HETATM   23  C   UNL     1      44.491 -20.826   5.174  1.00  0.00     0.048 C 
HETATM   24  C   UNL     1      43.881 -19.292   3.271  1.00  0.00     0.007 A 
HETATM   25  C   UNL     1      43.481 -18.044   2.784  1.00  0.00     0.008 A 
ENDBRANCH  16  19
ENDBRANCH  15  16
ENDBRANCH  12  15
ENDBRANCH   1  11
BRANCH   8  26
HETATM   26  C   UNL     1      45.573  -9.903   8.401  1.00  0.00     0.270 C 
HETATM   27  N   UNL     1      46.660  -9.322   7.807  1.00  0.00    -0.365 N 
HETATM   28  H   UNL     1      46.505  -8.571   7.144  1.00  0.00     0.159 HD
HETATM   29  H   UNL     1      47.587  -9.623   8.059  1.00  0.00     0.159 HD
HETATM   30  O   UNL     1      45.708 -10.797   9.230  1.00  0.00    -0.266 OA
ENDBRANCH   8  26
TORSDOF 6
ENDMDL
MODEL 7
REMARK VINA RESULT:      -8.2      4.901      8.429
REMARK  6 active torsions:
REMARK  status: ('A' for Active; 'I' for Inactive)
REMARK    1  A    between atoms: C_2  and  C_3 
REMARK    2  A    between atoms: C_3  and  C_4 
REMARK    3  A    between atoms: C_3  and  C_11 
REMARK    4  A    between atoms: C_11  and  C_12 
REMARK       I    between atoms: C_12  and  N_13 
REMARK    5  A    between atoms: N_13  and  C_14 
REMARK    6  A    between atoms: C_21  and  C_22 
REMARK       I    between atoms: C_22  and  N_23 
ROOT
HETATM    1  C   UNL     1      44.380 -11.406   6.513  1.00  0.00     0.035 A 
HETATM    2  C   UNL     1      43.512 -10.974   7.526  1.00  0.00     0.046 A 
HETATM    3  C   UNL     1      44.040 -10.332   8.669  1.00  0.00     0.030 A 
HETATM    4  C   UNL     1      45.416 -10.162   8.766  1.00  0.00     0.063 A 
HETATM    5  N   UNL     1      45.620  -9.529   9.959  1.00  0.00    -0.277 N 
HETATM    6  H   UNL     1      46.508  -9.249  10.362  1.00  0.00     0.189 HD
HETATM    7  N   UNL     1      44.498  -9.252  10.642  1.00  0.00    -0.168 NA
HETATM    8  C   UNL     1      43.511  -9.739   9.855  1.00  0.00     0.156 A 
HETATM    9  C   UNL     1      46.309 -10.585   7.781  1.00  0.00     0.034 A 
HETATM   10  C   UNL     1      45.760 -11.202   6.651  1.00  0.00     0.032 A 
ENDROOT
BRANCH   1  11
HETATM   11  N   UNL     1      43.947 -12.006   5.310  1.00  0.00    -0.327 N 
HETATM   12  C   UNL     1      43.264 -11.408   4.268  1.00  0.00     0.222 C 
HETATM   13  O   UNL     1      42.823 -10.262   4.265  1.00  0.00    -0.273 OA
HETATM   14  H   UNL     1      44.102 -13.000   5.249  1.00  0.00     0.169 HD
BRANCH  12  15
HETATM   15  C   UNL     1      43.177 -12.249   2.996  1.00  0.00     0.112 C 
BRANCH  15  16
HETATM   16  C   UNL     1      42.077 -13.326   2.940  1.00  0.00     0.027 C 
BRANCH  16  17
HETATM   17  C   UNL     1      40.958 -13.068   3.979  1.00  0.00     0.005 C 
HETATM   18  C   UNL     1      39.665 -12.468   3.442  1.00  0.00     0.006 C 
ENDBRANCH  16  17
BRANCH  16  19
HETATM   19  C   UNL     1      42.579 -14.759   3.002  1.00  0.00    -0.053 A 
HETATM   20  C   UNL     1      42.783 -15.436   4.211  1.00  0.00     0.008 A 
HETATM   21  C   UNL     1      43.219 -16.764   4.223  1.00  0.00     0.007 A 
HETATM   22  C   UNL     1      43.458 -17.447   3.027  1.00  0.00    -0.062 A 
HETATM   23  C   UNL     1      43.953 -18.863   3.052  1.00  0.00     0.048 C 
HETATM   24  C   UNL     1      43.274 -16.775   1.817  1.00  0.00     0.007 A 
HETATM   25  C   UNL     1      42.830 -15.449   1.804  1.00  0.00     0.008 A 
ENDBRANCH  16  19
ENDBRANCH  15  16
ENDBRANCH  12  15
ENDBRANCH   1  11
BRANCH   8  26
HETATM   26  C   UNL     1      42.100  -9.615  10.248  1.00  0.00     0.270 C 
HETATM   27  N   UNL     1      41.793 -10.236  11.427  1.00  0.00    -0.365 N 
HETATM   28  H   UNL     1      42.533 -10.707  11.934  1.00  0.00     0.159 HD
HETATM   29  H   UNL     1      40.853 -10.185  11.787  1.00  0.00     0.159 HD
HETATM   30  O   UNL     1      41.246  -9.008   9.610  1.00  0.00    -0.266 OA
ENDBRANCH   8  26
TORSDOF 6
ENDMDL
MODEL 8
REMARK VINA RESULT:      -8.0      3.665      5.972
REMARK  6 active torsions:
REMARK  status: ('A' for Active; 'I' for Inactive)
REMARK    1  A    between atoms: C_2  and  C_3 
REMARK    2  A    between atoms: C_3  and  C_4 
REMARK    3  A    between atoms: C_3  and  C_11 
REMARK    4  A    between atoms: C_11  and  C_12 
REMARK       I    between atoms: C_12  and  N_13 
REMARK    5  A    between atoms: N_13  and  C_14 
REMARK    6  A    between atoms: C_21  and  C_22 
REMARK       I    between atoms: C_22  and  N_23 
ROOT
HETATM    1  C   UNL     1      42.737 -12.684   4.893  1.00  0.00     0.035 A 
HETATM    2  C   UNL     1      41.495 -12.050   5.045  1.00  0.00     0.046 A 
HETATM    3  C   UNL     1      41.387 -10.925   5.894  1.00  0.00     0.030 A 
HETATM    4  C   UNL     1      42.517 -10.488   6.574  1.00  0.00     0.063 A 
HETATM    5  N   UNL     1      42.106  -9.410   7.305  1.00  0.00    -0.277 N 
HETATM    6  H   UNL     1      42.668  -8.840   7.928  1.00  0.00     0.189 HD
HETATM    7  N   UNL     1      40.812  -9.091   7.149  1.00  0.00    -0.168 NA
HETATM    8  C   UNL     1      40.353 -10.017   6.276  1.00  0.00     0.156 A 
HETATM    9  C   UNL     1      43.765 -11.099   6.453  1.00  0.00     0.034 A 
HETATM   10  C   UNL     1      43.852 -12.199   5.592  1.00  0.00     0.032 A 
ENDROOT
BRANCH   1  11
HETATM   11  N   UNL     1      42.960 -13.777   4.028  1.00  0.00    -0.327 N 
HETATM   12  C   UNL     1      42.817 -13.807   2.654  1.00  0.00     0.222 C 
HETATM   13  O   UNL     1      42.363 -12.901   1.961  1.00  0.00    -0.273 OA
HETATM   14  H   UNL     1      43.184 -14.647   4.487  1.00  0.00     0.169 HD
BRANCH  12  15
HETATM   15  C   UNL     1      43.391 -15.051   1.979  1.00  0.00     0.112 C 
BRANCH  15  16
HETATM   16  C   UNL     1      42.519 -16.321   1.989  1.00  0.00     0.027 C 
BRANCH  16  17
HETATM   17  C   UNL     1      41.047 -16.012   2.351  1.00  0.00     0.005 C 
HETATM   18  C   UNL     1      40.102 -15.767   1.182  1.00  0.00     0.006 C 
ENDBRANCH  16  17
BRANCH  16  19
HETATM   19  C   UNL     1      43.071 -17.470   2.818  1.00  0.00    -0.053 A 
HETATM   20  C   UNL     1      43.473 -17.314   4.150  1.00  0.00     0.008 A 
HETATM   21  C   UNL     1      43.948 -18.404   4.887  1.00  0.00     0.007 A 
HETATM   22  C   UNL     1      44.029 -19.674   4.309  1.00  0.00    -0.062 A 
HETATM   23  C   UNL     1      44.567 -20.830   5.099  1.00  0.00     0.048 C 
HETATM   24  C   UNL     1      43.646 -19.835   2.976  1.00  0.00     0.007 A 
HETATM   25  C   UNL     1      43.164 -18.748   2.241  1.00  0.00     0.008 A 
ENDBRANCH  16  19
ENDBRANCH  15  16
ENDBRANCH  12  15
ENDBRANCH   1  11
BRANCH   8  26
HETATM   26  C   UNL     1      38.955 -10.003   5.822  1.00  0.00     0.270 C 
HETATM   27  N   UNL     1      38.779  -9.471   4.574  1.00  0.00    -0.365 N 
HETATM   28  H   UNL     1      39.594  -9.149   4.066  1.00  0.00     0.159 HD
HETATM   29  H   UNL     1      37.856  -9.439   4.172  1.00  0.00     0.159 HD
HETATM   30  O   UNL     1      38.005 -10.431   6.468  1.00  0.00    -0.266 OA
ENDBRANCH   8  26
TORSDOF 6
ENDMDL
MODEL 9
REMARK VINA RESULT:      -8.0      1.672      2.705
REMARK  6 active torsions:
REMARK  status: ('A' for Active; 'I' for Inactive)
REMARK    1  A    between atoms: C_2  and  C_3 
REMARK    2  A    between atoms: C_3  and  C_4 
REMARK    3  A    between atoms: C_3  and  C_11 
REMARK    4  A    between atoms: C_11  and  C_12 
REMARK       I    between atoms: C_12  and  N_13 
REMARK    5  A    between atoms: N_13  and  C_14 
REMARK    6  A    between atoms: C_21  and  C_22 
REMARK       I    between atoms: C_22  and  N_23 
ROOT
HETATM    1  C   UNL     1      40.770 -13.395   0.718  1.00  0.00     0.035 A 
HETATM    2  C   UNL     1      40.063 -12.212   0.458  1.00  0.00     0.046 A 
HETATM    3  C   UNL     1      39.071 -12.202  -0.549  1.00  0.00     0.030 A 
HETATM    4  C   UNL     1      38.838 -13.366  -1.272  1.00  0.00     0.063 A 
HETATM    5  N   UNL     1      37.849 -13.050  -2.159  1.00  0.00    -0.277 N 
HETATM    6  H   UNL     1      37.427 -13.660  -2.852  1.00  0.00     0.189 HD
HETATM    7  N   UNL     1      37.401 -11.788  -2.069  1.00  0.00    -0.168 NA
HETATM    8  C   UNL     1      38.145 -11.251  -1.075  1.00  0.00     0.156 A 
HETATM    9  C   UNL     1      39.528 -14.557  -1.045  1.00  0.00     0.034 A 
HETATM   10  C   UNL     1      40.492 -14.547  -0.030  1.00  0.00     0.032 A 
ENDROOT
BRANCH   1  11
HETATM   11  N   UNL     1      41.739 -13.522   1.738  1.00  0.00    -0.327 N 
HETATM   12  C   UNL     1      41.519 -13.722   3.088  1.00  0.00     0.222 C 
HETATM   13  O   UNL     1      40.424 -13.717   3.644  1.00  0.00    -0.273 OA
HETATM   14  H   UNL     1      42.692 -13.381   1.442  1.00  0.00     0.169 HD
BRANCH  12  15
HETATM   15  C   UNL     1      42.766 -14.088   3.890  1.00  0.00     0.112 C 
BRANCH  15  16
HETATM   16  C   UNL     1      42.689 -15.349   4.772  1.00  0.00     0.027 C 
BRANCH  16  17
HETATM   17  C   UNL     1      43.537 -15.211   6.059  1.00  0.00     0.005 C 
HETATM   18  C   UNL     1      43.838 -13.790   6.519  1.00  0.00     0.006 C 
ENDBRANCH  16  17
BRANCH  16  19
HETATM   19  C   UNL     1      42.977 -16.655   4.048  1.00  0.00    -0.053 A 
HETATM   20  C   UNL     1      42.349 -17.006   2.847  1.00  0.00     0.008 A 
HETATM   21  C   UNL     1      42.663 -18.205   2.199  1.00  0.00     0.007 A 
HETATM   22  C   UNL     1      43.614 -19.077   2.735  1.00  0.00    -0.062 A 
HETATM   23  C   UNL     1      43.922 -20.374   2.047  1.00  0.00     0.048 C 
HETATM   24  C   UNL     1      44.232 -18.743   3.943  1.00  0.00     0.007 A 
HETATM   25  C   UNL     1      43.924 -17.542   4.587  1.00  0.00     0.008 A 
ENDBRANCH  16  19
ENDBRANCH  15  16
ENDBRANCH  12  15
ENDBRANCH   1  11
BRANCH   8  26
HETATM   26  C   UNL     1      37.944  -9.859  -0.647  1.00  0.00     0.270 C 
HETATM   27  N   UNL     1      37.784  -8.976  -1.679  1.00  0.00    -0.365 N 
HETATM   28  H   UNL     1      37.802  -9.331  -2.628  1.00  0.00     0.159 HD
HETATM   29  H   UNL     1      37.620  -8.002  -1.481  1.00  0.00     0.159 HD
HETATM   30  O   UNL     1      37.903  -9.484   0.520  1.00  0.00    -0.266 OA
ENDBRANCH   8  26
TORSDOF 6
ENDMDL
MODEL 10
REMARK VINA RESULT:      -7.8      3.197      8.643
REMARK  6 active torsions:
REMARK  status: ('A' for Active; 'I' for Inactive)
REMARK    1  A    between atoms: C_2  and  C_3 
REMARK    2  A    between atoms: C_3  and  C_4 
REMARK    3  A    between atoms: C_3  and  C_11 
REMARK    4  A    between atoms: C_11  and  C_12 
REMARK       I    between atoms: C_12  and  N_13 
REMARK    5  A    between atoms: N_13  and  C_14 
REMARK    6  A    between atoms: C_21  and  C_22 
REMARK       I    between atoms: C_22  and  N_23 
ROOT
HETATM    1  C   UNL     1      42.653 -15.658   2.230  1.00  0.00     0.035 A 
HETATM    2  C   UNL     1      43.001 -17.016   2.211  1.00  0.00     0.046 A 
HETATM    3  C   UNL     1      43.439 -17.639   3.402  1.00  0.00     0.030 A 
HETATM    4  C   UNL     1      43.531 -16.879   4.561  1.00  0.00     0.063 A 
HETATM    5  N   UNL     1      43.979 -17.739   5.524  1.00  0.00    -0.277 N 
HETATM    6  H   UNL     1      44.167 -17.526   6.498  1.00  0.00     0.189 HD
HETATM    7  N   UNL     1      44.170 -18.998   5.102  1.00  0.00    -0.168 NA
HETATM    8  C   UNL     1      43.836 -18.954   3.791  1.00  0.00     0.156 A 
HETATM    9  C   UNL     1      43.200 -15.525   4.614  1.00  0.00     0.034 A 
HETATM   10  C   UNL     1      42.752 -14.935   3.428  1.00  0.00     0.032 A 
ENDROOT
BRANCH   1  11
HETATM   11  N   UNL     1      42.153 -14.959   1.110  1.00  0.00    -0.327 N 
HETATM   12  C   UNL     1      40.830 -14.752   0.767  1.00  0.00     0.222 C 
HETATM   13  O   UNL     1      39.858 -15.241   1.336  1.00  0.00    -0.273 OA
HETATM   14  H   UNL     1      42.853 -14.638   0.459  1.00  0.00     0.169 HD
BRANCH  12  15
HETATM   15  C   UNL     1      40.611 -13.733  -0.349  1.00  0.00     0.112 C 
BRANCH  15  16
HETATM   16  C   UNL     1      39.187 -13.614  -0.922  1.00  0.00     0.027 C 
BRANCH  16  17
HETATM   17  C   UNL     1      39.168 -13.741  -2.464  1.00  0.00     0.005 C 
HETATM   18  C   UNL     1      38.653 -15.060  -3.026  1.00  0.00     0.006 C 
ENDBRANCH  16  17
BRANCH  16  19
HETATM   19  C   UNL     1      38.405 -12.399  -0.451  1.00  0.00    -0.053 A 
HETATM   20  C   UNL     1      38.437 -11.949   0.875  1.00  0.00     0.008 A 
HETATM   21  C   UNL     1      37.726 -10.808   1.261  1.00  0.00     0.007 A 
HETATM   22  C   UNL     1      36.969 -10.091   0.331  1.00  0.00    -0.062 A 
HETATM   23  C   UNL     1      36.187  -8.886   0.762  1.00  0.00     0.048 C 
HETATM   24  C   UNL     1      36.917 -10.543  -0.990  1.00  0.00     0.007 A 
HETATM   25  C   UNL     1      37.634 -11.678  -1.378  1.00  0.00     0.008 A 
ENDBRANCH  16  19
ENDBRANCH  15  16
ENDBRANCH  12  15
ENDBRANCH   1  11
BRANCH   8  26
HETATM   26  C   UNL     1      43.893 -20.162   2.955  1.00  0.00     0.270 C 
HETATM   27  N   UNL     1      43.950 -21.330   3.666  1.00  0.00    -0.365 N 
HETATM   28  H   UNL     1      43.936 -21.282   4.677  1.00  0.00     0.159 HD
HETATM   29  H   UNL     1      43.969 -22.210   3.177  1.00  0.00     0.159 HD
HETATM   30  O   UNL     1      43.879 -20.167   1.729  1.00  0.00    -0.266 OA
ENDBRANCH   8  26
TORSDOF 6
ENDMDL
