MODEL 1
REMARK VINA RESULT:      -8.7      0.000      0.000
REMARK  2 active torsions:
REMARK  status: ('A' for Active; 'I' for Inactive)
REMARK    1  A    between atoms: C_5  and  O_6 
REMARK    2  A    between atoms: C_5  and  C_7 
ROOT
HETATM    1  C   UNL     1      42.901 -10.960   4.314  1.00  0.00     0.050 C 
HETATM    2  C   UNL     1      42.239 -12.267   4.616  1.00  0.00    -0.034 A 
HETATM    3  C   UNL     1      42.481 -13.415   3.875  1.00  0.00     0.052 A 
HETATM    4  C   UNL     1      41.889 -14.658   4.162  1.00  0.00     0.039 A 
HETATM    5  C   UNL     1      42.356 -15.671   3.150  1.00  0.00     0.200 A 
HETATM    6  C   UNL     1      43.321 -14.820   2.263  1.00  0.00     0.266 A 
HETATM    7  O   UNL     1      43.920 -15.182   1.260  1.00  0.00    -0.269 OA
HETATM    8  N   UNL     1      43.324 -13.527   2.775  1.00  0.00    -0.323 N 
HETATM    9  C   UNL     1      41.012 -14.764   5.227  1.00  0.00     0.046 A 
HETATM   10 CL   UNL     1      40.217 -16.234   5.629  1.00  0.00    -0.084 Cl
HETATM   11  C   UNL     1      40.764 -13.629   6.008  1.00  0.00     0.025 A 
HETATM   12  C   UNL     1      41.374 -12.398   5.710  1.00  0.00     0.011 A 
HETATM   13  H   UNL     1      43.854 -12.781   2.351  1.00  0.00     0.169 HD
ENDROOT
BRANCH   5  14
HETATM   14  O   UNL     1      41.255 -16.112   2.360  1.00  0.00    -0.371 OA
HETATM   15  H   UNL     1      41.653 -16.676   1.675  1.00  0.00     0.212 HD
ENDBRANCH   5  14
BRANCH   5  16
HETATM   16  C   UNL     1      43.080 -16.794   3.850  1.00  0.00     0.018 A 
HETATM   17  C   UNL     1      43.259 -18.165   3.430  1.00  0.00     0.002 A 
HETATM   18  C   UNL     1      43.992 -18.819   4.423  1.00  0.00     0.043 A 
HETATM   19  C   UNL     1      42.878 -18.918   2.297  1.00  0.00     0.014 A 
HETATM   20  C   UNL     1      44.362 -20.167   4.341  1.00  0.00     0.030 A 
HETATM   21  N   UNL     1      44.246 -17.902   5.413  1.00  0.00    -0.365 N 
HETATM   22  C   UNL     1      43.978 -20.880   3.205  1.00  0.00     0.002 A 
HETATM   23  C   UNL     1      43.246 -20.266   2.194  1.00  0.00     0.001 A 
HETATM   24  H   UNL     1      44.763 -18.101   6.259  1.00  0.00     0.165 HD
HETATM   25  C   UNL     1      43.709 -16.691   5.084  1.00  0.00     0.100 A 
ENDBRANCH   5  16
TORSDOF 2
ENDMDL
MODEL 2
REMARK VINA RESULT:      -8.3      2.341      5.875
REMARK  2 active torsions:
REMARK  status: ('A' for Active; 'I' for Inactive)
REMARK    1  A    between atoms: C_5  and  O_6 
REMARK    2  A    between atoms: C_5  and  C_7 
ROOT
HETATM    1  C   UNL     1      44.758 -18.454   4.025  1.00  0.00     0.050 C 
HETATM    2  C   UNL     1      43.490 -17.742   3.674  1.00  0.00    -0.034 A 
HETATM    3  C   UNL     1      42.749 -17.034   4.609  1.00  0.00     0.052 A 
HETATM    4  C   UNL     1      41.570 -16.337   4.291  1.00  0.00     0.039 A 
HETATM    5  C   UNL     1      41.020 -15.703   5.542  1.00  0.00     0.200 A 
HETATM    6  C   UNL     1      42.079 -16.125   6.610  1.00  0.00     0.266 A 
HETATM    7  O   UNL     1      42.053 -15.896   7.811  1.00  0.00    -0.269 OA
HETATM    8  N   UNL     1      43.042 -16.890   5.961  1.00  0.00    -0.323 N 
HETATM    9  C   UNL     1      41.101 -16.350   2.989  1.00  0.00     0.046 A 
HETATM   10 CL   UNL     1      39.652 -15.555   2.518  1.00  0.00    -0.084 Cl
HETATM   11  C   UNL     1      41.839 -17.038   2.018  1.00  0.00     0.025 A 
HETATM   12  C   UNL     1      43.021 -17.720   2.355  1.00  0.00     0.011 A 
HETATM   13  H   UNL     1      43.821 -17.305   6.450  1.00  0.00     0.169 HD
ENDROOT
BRANCH   5  14
HETATM   14  O   UNL     1      39.762 -16.286   5.870  1.00  0.00    -0.371 OA
HETATM   15  H   UNL     1      39.416 -16.620   5.024  1.00  0.00     0.212 HD
ENDBRANCH   5  14
BRANCH   5  16
HETATM   16  C   UNL     1      40.961 -14.205   5.370  1.00  0.00     0.018 A 
HETATM   17  C   UNL     1      41.840 -13.337   4.622  1.00  0.00     0.002 A 
HETATM   18  C   UNL     1      41.375 -12.029   4.777  1.00  0.00     0.043 A 
HETATM   19  C   UNL     1      42.985 -13.532   3.817  1.00  0.00     0.014 A 
HETATM   20  C   UNL     1      41.985 -10.922   4.174  1.00  0.00     0.030 A 
HETATM   21  N   UNL     1      40.269 -12.082   5.588  1.00  0.00    -0.365 N 
HETATM   22  C   UNL     1      43.108 -11.150   3.378  1.00  0.00     0.002 A 
HETATM   23  C   UNL     1      43.603 -12.437   3.200  1.00  0.00     0.001 A 
HETATM   24  H   UNL     1      39.726 -11.278   5.869  1.00  0.00     0.165 HD
HETATM   25  C   UNL     1      40.011 -13.373   5.948  1.00  0.00     0.100 A 
ENDBRANCH   5  16
TORSDOF 2
ENDMDL
MODEL 3
REMARK VINA RESULT:      -8.2      2.178      5.998
REMARK  2 active torsions:
REMARK  status: ('A' for Active; 'I' for Inactive)
REMARK    1  A    between atoms: C_5  and  O_6 
REMARK    2  A    between atoms: C_5  and  C_7 
ROOT
HETATM    1  C   UNL     1      43.501 -18.890   7.109  1.00  0.00     0.050 C 
HETATM    2  C   UNL     1      43.309 -18.206   5.792  1.00  0.00    -0.034 A 
HETATM    3  C   UNL     1      42.397 -17.176   5.612  1.00  0.00     0.052 A 
HETATM    4  C   UNL     1      42.224 -16.504   4.389  1.00  0.00     0.039 A 
HETATM    5  C   UNL     1      41.146 -15.465   4.547  1.00  0.00     0.200 A 
HETATM    6  C   UNL     1      40.753 -15.632   6.050  1.00  0.00     0.266 A 
HETATM    7  O   UNL     1      39.871 -15.041   6.657  1.00  0.00    -0.269 OA
HETATM    8  N   UNL     1      41.544 -16.648   6.575  1.00  0.00    -0.323 N 
HETATM    9  C   UNL     1      42.983 -16.877   3.294  1.00  0.00     0.046 A 
HETATM   10 CL   UNL     1      42.814 -16.135   1.753  1.00  0.00    -0.084 Cl
HETATM   11  C   UNL     1      43.928 -17.898   3.450  1.00  0.00     0.025 A 
HETATM   12  C   UNL     1      44.093 -18.551   4.684  1.00  0.00     0.011 A 
HETATM   13  H   UNL     1      41.455 -16.962   7.529  1.00  0.00     0.169 HD
ENDROOT
BRANCH   5  14
HETATM   14  O   UNL     1      40.027 -15.797   3.728  1.00  0.00    -0.371 OA
HETATM   15  H   UNL     1      40.162 -16.730   3.491  1.00  0.00     0.212 HD
ENDBRANCH   5  14
BRANCH   5  16
HETATM   16  C   UNL     1      41.712 -14.096   4.263  1.00  0.00     0.018 A 
HETATM   17  C   UNL     1      42.713 -13.354   4.993  1.00  0.00     0.002 A 
HETATM   18  C   UNL     1      42.893 -12.131   4.341  1.00  0.00     0.043 A 
HETATM   19  C   UNL     1      43.496 -13.601   6.143  1.00  0.00     0.014 A 
HETATM   20  C   UNL     1      43.805 -11.159   4.771  1.00  0.00     0.030 A 
HETATM   21  N   UNL     1      42.039 -12.113   3.266  1.00  0.00    -0.365 N 
HETATM   22  C   UNL     1      44.568 -11.439   5.904  1.00  0.00     0.002 A 
HETATM   23  C   UNL     1      44.419 -12.643   6.583  1.00  0.00     0.001 A 
HETATM   24  H   UNL     1      41.957 -11.346   2.613  1.00  0.00     0.165 HD
HETATM   25  C   UNL     1      41.330 -13.278   3.208  1.00  0.00     0.100 A 
ENDBRANCH   5  16
TORSDOF 2
ENDMDL
MODEL 4
REMARK VINA RESULT:      -8.1      2.534      3.568
REMARK  2 active torsions:
REMARK  status: ('A' for Active; 'I' for Inactive)
REMARK    1  A    between atoms: C_5  and  O_6 
REMARK    2  A    between atoms: C_5  and  C_7 
ROOT
HETATM    1  C   UNL     1      38.757 -11.229   6.213  1.00  0.00     0.050 C 
HETATM    2  C   UNL     1      39.961 -11.636   5.423  1.00  0.00    -0.034 A 
HETATM    3  C   UNL     1      40.594 -12.858   5.602  1.00  0.00     0.052 A 
HETATM    4  C   UNL     1      41.708 -13.268   4.850  1.00  0.00     0.039 A 
HETATM    5  C   UNL     1      42.146 -14.629   5.321  1.00  0.00     0.200 A 
HETATM    6  C   UNL     1      41.097 -14.939   6.436  1.00  0.00     0.266 A 
HETATM    7  O   UNL     1      41.056 -15.920   7.165  1.00  0.00    -0.269 OA
HETATM    8  N   UNL     1      40.239 -13.848   6.513  1.00  0.00    -0.323 N 
HETATM    9  C   UNL     1      42.222 -12.424   3.881  1.00  0.00     0.046 A 
HETATM   10 CL   UNL     1      43.601 -12.828   2.938  1.00  0.00    -0.084 Cl
HETATM   11  C   UNL     1      41.592 -11.194   3.660  1.00  0.00     0.025 A 
HETATM   12  C   UNL     1      40.473 -10.807   4.417  1.00  0.00     0.011 A 
HETATM   13  H   UNL     1      39.488 -13.798   7.185  1.00  0.00     0.169 HD
ENDROOT
BRANCH   5  14
HETATM   14  O   UNL     1      43.444 -14.547   5.905  1.00  0.00    -0.371 OA
HETATM   15  H   UNL     1      43.298 -14.699   6.855  1.00  0.00     0.212 HD
ENDBRANCH   5  14
BRANCH   5  16
HETATM   16  C   UNL     1      42.063 -15.614   4.181  1.00  0.00     0.018 A 
HETATM   17  C   UNL     1      42.859 -16.795   3.936  1.00  0.00     0.002 A 
HETATM   18  C   UNL     1      42.407 -17.370   2.746  1.00  0.00     0.043 A 
HETATM   19  C   UNL     1      43.918 -17.441   4.613  1.00  0.00     0.014 A 
HETATM   20  C   UNL     1      42.949 -18.544   2.208  1.00  0.00     0.030 A 
HETATM   21  N   UNL     1      41.389 -16.581   2.273  1.00  0.00    -0.365 N 
HETATM   22  C   UNL     1      43.986 -19.162   2.906  1.00  0.00     0.002 A 
HETATM   23  C   UNL     1      44.466 -18.621   4.093  1.00  0.00     0.001 A 
HETATM   24  H   UNL     1      40.873 -16.761   1.422  1.00  0.00     0.165 HD
HETATM   25  C   UNL     1      41.173 -15.531   3.118  1.00  0.00     0.100 A 
ENDBRANCH   5  16
TORSDOF 2
ENDMDL
MODEL 5
REMARK VINA RESULT:      -8.1      2.836      3.869
REMARK  2 active torsions:
REMARK  status: ('A' for Active; 'I' for Inactive)
REMARK    1  A    between atoms: C_5  and  O_6 
REMARK    2  A    between atoms: C_5  and  C_7 
ROOT
HETATM    1  C   UNL     1      38.626 -12.006   2.193  1.00  0.00     0.050 C 
HETATM    2  C   UNL     1      40.024 -11.994   2.725  1.00  0.00    -0.034 A 
HETATM    3  C   UNL     1      40.381 -12.639   3.901  1.00  0.00     0.052 A 
HETATM    4  C   UNL     1      41.695 -12.662   4.400  1.00  0.00     0.039 A 
HETATM    5  C   UNL     1      41.716 -13.429   5.696  1.00  0.00     0.200 A 
HETATM    6  C   UNL     1      40.221 -13.859   5.841  1.00  0.00     0.266 A 
HETATM    7  O   UNL     1      39.710 -14.468   6.771  1.00  0.00    -0.269 OA
HETATM    8  N   UNL     1      39.535 -13.353   4.743  1.00  0.00    -0.323 N 
HETATM    9  C   UNL     1      42.698 -12.009   3.707  1.00  0.00     0.046 A 
HETATM   10 CL   UNL     1      44.324 -11.955   4.261  1.00  0.00    -0.084 Cl
HETATM   11  C   UNL     1      42.374 -11.367   2.506  1.00  0.00     0.025 A 
HETATM   12  C   UNL     1      41.056 -11.365   2.018  1.00  0.00     0.011 A 
HETATM   13  H   UNL     1      38.541 -13.475   4.625  1.00  0.00     0.169 HD
ENDROOT
BRANCH   5  14
HETATM   14  O   UNL     1      42.062 -12.559   6.771  1.00  0.00    -0.371 OA
HETATM   15  H   UNL     1      42.667 -13.081   7.326  1.00  0.00     0.212 HD
ENDBRANCH   5  14
BRANCH   5  16
HETATM   16  C   UNL     1      42.633 -14.620   5.569  1.00  0.00     0.018 A 
HETATM   17  C   UNL     1      42.635 -15.667   4.574  1.00  0.00     0.002 A 
HETATM   18  C   UNL     1      43.673 -16.548   4.890  1.00  0.00     0.043 A 
HETATM   19  C   UNL     1      41.863 -15.953   3.427  1.00  0.00     0.014 A 
HETATM   20  C   UNL     1      43.976 -17.682   4.125  1.00  0.00     0.030 A 
HETATM   21  N   UNL     1      44.277 -16.075   6.028  1.00  0.00    -0.365 N 
HETATM   22  C   UNL     1      43.199 -17.930   2.993  1.00  0.00     0.002 A 
HETATM   23  C   UNL     1      42.156 -17.079   2.645  1.00  0.00     0.001 A 
HETATM   24  H   UNL     1      45.064 -16.516   6.484  1.00  0.00     0.165 HD
HETATM   25  C   UNL     1      43.668 -14.926   6.443  1.00  0.00     0.100 A 
ENDBRANCH   5  16
TORSDOF 2
ENDMDL
MODEL 6
REMARK VINA RESULT:      -8.0      2.649      5.457
REMARK  2 active torsions:
REMARK  status: ('A' for Active; 'I' for Inactive)
REMARK    1  A    between atoms: C_5  and  O_6 
REMARK    2  A    between atoms: C_5  and  C_7 
ROOT
HETATM    1  C   UNL     1      44.135 -16.795   7.931  1.00  0.00     0.050 C 
HETATM    2  C   UNL     1      43.662 -16.922   6.517  1.00  0.00    -0.034 A 
HETATM    3  C   UNL     1      42.565 -16.225   6.031  1.00  0.00     0.052 A 
HETATM    4  C   UNL     1      42.124 -16.312   4.700  1.00  0.00     0.039 A 
HETATM    5  C   UNL     1      40.905 -15.445   4.528  1.00  0.00     0.200 A 
HETATM    6  C   UNL     1      40.738 -14.834   5.956  1.00  0.00     0.266 A 
HETATM    7  O   UNL     1      39.847 -14.094   6.347  1.00  0.00    -0.269 OA
HETATM    8  N   UNL     1      41.757 -15.349   6.749  1.00  0.00    -0.323 N 
HETATM    9  C   UNL     1      42.796 -17.133   3.812  1.00  0.00     0.046 A 
HETATM   10 CL   UNL     1      42.306 -17.326   2.176  1.00  0.00    -0.084 Cl
HETATM   11  C   UNL     1      43.920 -17.833   4.266  1.00  0.00     0.025 A 
HETATM   12  C   UNL     1      44.352 -17.725   5.599  1.00  0.00     0.011 A 
HETATM   13  H   UNL     1      41.845 -15.124   7.728  1.00  0.00     0.169 HD
ENDROOT
BRANCH   5  14
HETATM   14  O   UNL     1      39.771 -16.254   4.226  1.00  0.00    -0.371 OA
HETATM   15  H   UNL     1      39.922 -17.083   4.711  1.00  0.00     0.212 HD
ENDBRANCH   5  14
BRANCH   5  16
HETATM   16  C   UNL     1      41.176 -14.383   3.491  1.00  0.00     0.018 A 
HETATM   17  C   UNL     1      40.775 -14.340   2.103  1.00  0.00     0.002 A 
HETATM   18  C   UNL     1      41.276 -13.156   1.556  1.00  0.00     0.043 A 
HETATM   19  C   UNL     1      40.027 -15.186   1.255  1.00  0.00     0.014 A 
HETATM   20  C   UNL     1      41.066 -12.778   0.223  1.00  0.00     0.030 A 
HETATM   21  N   UNL     1      41.960 -12.503   2.551  1.00  0.00    -0.365 N 
HETATM   22  C   UNL     1      40.314 -13.632  -0.585  1.00  0.00     0.002 A 
HETATM   23  C   UNL     1      39.799 -14.820  -0.078  1.00  0.00     0.001 A 
HETATM   24  H   UNL     1      42.428 -11.615   2.436  1.00  0.00     0.165 HD
HETATM   25  C   UNL     1      41.908 -13.224   3.709  1.00  0.00     0.100 A 
ENDBRANCH   5  16
TORSDOF 2
ENDMDL
MODEL 7
REMARK VINA RESULT:      -7.8      1.897      5.929
REMARK  2 active torsions:
REMARK  status: ('A' for Active; 'I' for Inactive)
REMARK    1  A    between atoms: C_5  and  O_6 
REMARK    2  A    between atoms: C_5  and  C_7 
ROOT
HETATM    1  C   UNL     1      43.367 -20.035   1.975  1.00  0.00     0.050 C 
HETATM    2  C   UNL     1      43.605 -18.947   2.975  1.00  0.00    -0.034 A 
HETATM    3  C   UNL     1      43.109 -17.662   2.812  1.00  0.00     0.052 A 
HETATM    4  C   UNL     1      43.299 -16.636   3.753  1.00  0.00     0.039 A 
HETATM    5  C   UNL     1      42.647 -15.376   3.248  1.00  0.00     0.200 A 
HETATM    6  C   UNL     1      42.037 -15.850   1.890  1.00  0.00     0.266 A 
HETATM    7  O   UNL     1      41.444 -15.170   1.065  1.00  0.00    -0.269 OA
HETATM    8  N   UNL     1      42.359 -17.194   1.737  1.00  0.00    -0.323 N 
HETATM    9  C   UNL     1      44.020 -16.895   4.905  1.00  0.00     0.046 A 
HETATM   10 CL   UNL     1      44.331 -15.693   6.093  1.00  0.00    -0.084 Cl
HETATM   11  C   UNL     1      44.516 -18.188   5.110  1.00  0.00     0.025 A 
HETATM   12  C   UNL     1      44.306 -19.203   4.160  1.00  0.00     0.011 A 
HETATM   13  H   UNL     1      42.099 -17.722   0.917  1.00  0.00     0.169 HD
ENDROOT
BRANCH   5  14
HETATM   14  O   UNL     1      43.638 -14.383   2.998  1.00  0.00    -0.371 OA
HETATM   15  H   UNL     1      44.220 -14.777   2.325  1.00  0.00     0.212 HD
ENDBRANCH   5  14
BRANCH   5  16
HETATM   16  C   UNL     1      41.581 -14.929   4.217  1.00  0.00     0.018 A 
HETATM   17  C   UNL     1      41.216 -13.589   4.616  1.00  0.00     0.002 A 
HETATM   18  C   UNL     1      40.176 -13.694   5.544  1.00  0.00     0.043 A 
HETATM   19  C   UNL     1      41.660 -12.292   4.277  1.00  0.00     0.014 A 
HETATM   20  C   UNL     1      39.563 -12.583   6.137  1.00  0.00     0.030 A 
HETATM   21  N   UNL     1      39.916 -15.031   5.717  1.00  0.00    -0.365 N 
HETATM   22  C   UNL     1      40.019 -11.316   5.772  1.00  0.00     0.002 A 
HETATM   23  C   UNL     1      41.053 -11.169   4.854  1.00  0.00     0.001 A 
HETATM   24  H   UNL     1      39.207 -15.401   6.334  1.00  0.00     0.165 HD
HETATM   25  C   UNL     1      40.746 -15.778   4.932  1.00  0.00     0.100 A 
ENDBRANCH   5  16
TORSDOF 2
ENDMDL
MODEL 8
REMARK VINA RESULT:      -7.7     10.072     13.190
REMARK  2 active torsions:
REMARK  status: ('A' for Active; 'I' for Inactive)
REMARK    1  A    between atoms: C_5  and  O_6 
REMARK    2  A    between atoms: C_5  and  C_7 
ROOT
HETATM    1  C   UNL     1      44.306 -10.612  11.152  1.00  0.00     0.050 C 
HETATM    2  C   UNL     1      43.294  -9.529  10.953  1.00  0.00    -0.034 A 
HETATM    3  C   UNL     1      42.047  -9.552  11.562  1.00  0.00     0.052 A 
HETATM    4  C   UNL     1      41.094  -8.530  11.408  1.00  0.00     0.039 A 
HETATM    5  C   UNL     1      39.856  -8.890  12.187  1.00  0.00     0.200 A 
HETATM    6  C   UNL     1      40.261 -10.257  12.825  1.00  0.00     0.266 A 
HETATM    7  O   UNL     1      39.566 -10.990  13.514  1.00  0.00    -0.269 OA
HETATM    8  N   UNL     1      41.554 -10.546  12.401  1.00  0.00    -0.323 N 
HETATM    9  C   UNL     1      41.388  -7.440  10.609  1.00  0.00     0.046 A 
HETATM   10 CL   UNL     1      40.271  -6.162  10.337  1.00  0.00    -0.084 Cl
HETATM   11  C   UNL     1      42.647  -7.376   9.999  1.00  0.00     0.025 A 
HETATM   12  C   UNL     1      43.589  -8.404  10.173  1.00  0.00     0.011 A 
HETATM   13  H   UNL     1      42.029 -11.397  12.660  1.00  0.00     0.169 HD
ENDROOT
BRANCH   5  14
HETATM   14  O   UNL     1      38.762  -9.092  11.295  1.00  0.00    -0.371 OA
HETATM   15  H   UNL     1      38.323  -8.225  11.242  1.00  0.00     0.212 HD
ENDBRANCH   5  14
BRANCH   5  16
HETATM   16  C   UNL     1      39.589  -7.838  13.234  1.00  0.00     0.018 A 
HETATM   17  C   UNL     1      40.457  -7.356  14.284  1.00  0.00     0.002 A 
HETATM   18  C   UNL     1      39.752  -6.386  15.002  1.00  0.00     0.043 A 
HETATM   19  C   UNL     1      41.778  -7.640  14.695  1.00  0.00     0.014 A 
HETATM   20  C   UNL     1      40.296  -5.693  16.091  1.00  0.00     0.030 A 
HETATM   21  N   UNL     1      38.508  -6.279  14.432  1.00  0.00    -0.365 N 
HETATM   22  C   UNL     1      41.606  -5.991  16.464  1.00  0.00     0.002 A 
HETATM   23  C   UNL     1      42.341  -6.951  15.776  1.00  0.00     0.001 A 
HETATM   24  H   UNL     1      37.785  -5.648  14.749  1.00  0.00     0.165 HD
HETATM   25  C   UNL     1      38.398  -7.139  13.377  1.00  0.00     0.100 A 
ENDBRANCH   5  16
TORSDOF 2
ENDMDL
MODEL 9
REMARK VINA RESULT:      -7.6     14.407     15.590
REMARK  2 active torsions:
REMARK  status: ('A' for Active; 'I' for Inactive)
REMARK    1  A    between atoms: C_5  and  O_6 
REMARK    2  A    between atoms: C_5  and  C_7 
ROOT
HETATM    1  C   UNL     1      51.087 -30.996   3.495  1.00  0.00     0.050 C 
HETATM    2  C   UNL     1      49.766 -30.373   3.168  1.00  0.00    -0.034 A 
HETATM    3  C   UNL     1      49.420 -29.989   1.881  1.00  0.00     0.052 A 
HETATM    4  C   UNL     1      48.174 -29.428   1.552  1.00  0.00     0.039 A 
HETATM    5  C   UNL     1      48.149 -29.115   0.079  1.00  0.00     0.200 A 
HETATM    6  C   UNL     1      49.559 -29.607  -0.381  1.00  0.00     0.266 A 
HETATM    7  O   UNL     1      50.047 -29.522  -1.498  1.00  0.00    -0.269 OA
HETATM    8  N   UNL     1      50.212 -30.101   0.743  1.00  0.00    -0.323 N 
HETATM    9  C   UNL     1      47.232 -29.232   2.545  1.00  0.00     0.046 A 
HETATM   10 CL   UNL     1      45.698 -28.521   2.240  1.00  0.00    -0.084 Cl
HETATM   11  C   UNL     1      47.543 -29.629   3.852  1.00  0.00     0.025 A 
HETATM   12  C   UNL     1      48.791 -30.198   4.158  1.00  0.00     0.011 A 
HETATM   13  H   UNL     1      51.157 -30.453   0.706  1.00  0.00     0.169 HD
ENDROOT
BRANCH   5  14
HETATM   14  O   UNL     1      48.055 -27.706  -0.117  1.00  0.00    -0.371 OA
HETATM   15  H   UNL     1      48.261 -27.321   0.752  1.00  0.00     0.212 HD
ENDBRANCH   5  14
BRANCH   5  16
HETATM   16  C   UNL     1      47.039 -29.888  -0.588  1.00  0.00     0.018 A 
HETATM   17  C   UNL     1      46.139 -29.469  -1.638  1.00  0.00     0.002 A 
HETATM   18  C   UNL     1      45.281 -30.538  -1.910  1.00  0.00     0.043 A 
HETATM   19  C   UNL     1      45.970 -28.288  -2.394  1.00  0.00     0.014 A 
HETATM   20  C   UNL     1      44.280 -30.488  -2.889  1.00  0.00     0.030 A 
HETATM   21  N   UNL     1      45.626 -31.564  -1.066  1.00  0.00    -0.365 N 
HETATM   22  C   UNL     1      44.147 -29.310  -3.624  1.00  0.00     0.002 A 
HETATM   23  C   UNL     1      44.980 -28.223  -3.382  1.00  0.00     0.001 A 
HETATM   24  H   UNL     1      45.170 -32.466  -1.044  1.00  0.00     0.165 HD
HETATM   25  C   UNL     1      46.673 -31.190  -0.273  1.00  0.00     0.100 A 
ENDBRANCH   5  16
TORSDOF 2
ENDMDL
MODEL 10
REMARK VINA RESULT:      -7.6     14.189     15.984
REMARK  2 active torsions:
REMARK  status: ('A' for Active; 'I' for Inactive)
REMARK    1  A    between atoms: C_5  and  O_6 
REMARK    2  A    between atoms: C_5  and  C_7 
ROOT
HETATM    1  C   UNL     1      51.175 -29.971   3.042  1.00  0.00     0.050 C 
HETATM    2  C   UNL     1      50.307 -30.540   1.965  1.00  0.00    -0.034 A 
HETATM    3  C   UNL     1      49.037 -30.051   1.694  1.00  0.00     0.052 A 
HETATM    4  C   UNL     1      48.218 -30.555   0.668  1.00  0.00     0.039 A 
HETATM    5  C   UNL     1      46.910 -29.810   0.671  1.00  0.00     0.200 A 
HETATM    6  C   UNL     1      47.120 -28.791   1.837  1.00  0.00     0.266 A 
HETATM    7  O   UNL     1      46.311 -27.985   2.274  1.00  0.00    -0.269 OA
HETATM    8  N   UNL     1      48.390 -29.013   2.358  1.00  0.00    -0.323 N 
HETATM    9  C   UNL     1      48.677 -31.595  -0.120  1.00  0.00     0.046 A 
HETATM   10 CL   UNL     1      47.732 -32.296  -1.373  1.00  0.00    -0.084 Cl
HETATM   11  C   UNL     1      49.964 -32.096   0.114  1.00  0.00     0.025 A 
HETATM   12  C   UNL     1      50.770 -31.572   1.139  1.00  0.00     0.011 A 
HETATM   13  H   UNL     1      48.749 -28.494   3.145  1.00  0.00     0.169 HD
ENDROOT
BRANCH   5  14
HETATM   14  O   UNL     1      45.846 -30.697   1.007  1.00  0.00    -0.371 OA
HETATM   15  H   UNL     1      46.262 -31.386   1.554  1.00  0.00     0.212 HD
ENDBRANCH   5  14
BRANCH   5  16
HETATM   16  C   UNL     1      46.715 -29.115  -0.654  1.00  0.00     0.018 A 
HETATM   17  C   UNL     1      45.732 -29.371  -1.682  1.00  0.00     0.002 A 
HETATM   18  C   UNL     1      45.966 -28.470  -2.723  1.00  0.00     0.043 A 
HETATM   19  C   UNL     1      44.657 -30.275  -1.830  1.00  0.00     0.014 A 
HETATM   20  C   UNL     1      45.188 -28.425  -3.888  1.00  0.00     0.030 A 
HETATM   21  N   UNL     1      47.045 -27.701  -2.364  1.00  0.00    -0.365 N 
HETATM   22  C   UNL     1      44.129 -29.326  -3.998  1.00  0.00     0.002 A 
HETATM   23  C   UNL     1      43.863 -30.239  -2.984  1.00  0.00     0.001 A 
HETATM   24  H   UNL     1      47.436 -26.962  -2.931  1.00  0.00     0.165 HD
HETATM   25  C   UNL     1      47.500 -28.075  -1.132  1.00  0.00     0.100 A 
ENDBRANCH   5  16
TORSDOF 2
ENDMDL
