MODEL 1
REMARK VINA RESULT:      -8.0      0.000      0.000
REMARK  7 active torsions:
REMARK  status: ('A' for Active; 'I' for Inactive)
REMARK    1  A    between atoms: C_2  and  N_3 
REMARK    2  A    between atoms: N_3  and  C_4 
REMARK    3  A    between atoms: C_6  and  N_7 
REMARK    4  A    between atoms: N_7  and  C_8 
REMARK    5  A    between atoms: C_8  and  C_9 
REMARK    6  A    between atoms: C_9  and  C_10 
REMARK    7  A    between atoms: C_11  and  O_12 
ROOT
HETATM    1  C   UNL     1      43.701 -16.769   4.384  1.00  0.00     0.119 A 
HETATM    2  N   UNL     1      43.393 -15.937   3.371  1.00  0.00    -0.207 NA
HETATM    3  C   UNL     1      43.194 -16.471   2.160  1.00  0.00     0.181 A 
HETATM    4  N   UNL     1      43.303 -17.771   1.911  1.00  0.00    -0.330 N 
HETATM    5  H   UNL     1      43.208 -18.066   0.948  1.00  0.00     0.168 HD
HETATM    6  C   UNL     1      43.569 -18.645   2.886  1.00  0.00     0.048 A 
HETATM    7  C   UNL     1      43.771 -18.168   4.196  1.00  0.00     0.031 A 
HETATM    8  C   UNL     1      43.641 -20.017   2.600  1.00  0.00     0.030 A 
HETATM    9  C   UNL     1      43.900 -20.931   3.619  1.00  0.00     0.002 A 
HETATM   10  C   UNL     1      44.087 -20.484   4.924  1.00  0.00     0.001 A 
HETATM   11  C   UNL     1      44.023 -19.118   5.213  1.00  0.00     0.017 A 
ENDROOT
BRANCH   3  12
HETATM   12  N   UNL     1      42.952 -15.602   1.115  1.00  0.00    -0.262 NA
HETATM   13  H   UNL     1      43.869 -15.384   0.711  1.00  0.00     0.130 HD
BRANCH  12  14
HETATM   14  C   UNL     1      42.153 -14.400   1.368  1.00  0.00     0.100 C 
BRANCH  14  15
HETATM   15  C   UNL     1      40.644 -14.676   1.299  1.00  0.00     0.056 C 
BRANCH  15  16
HETATM   16  C   UNL     1      39.841 -14.092   0.151  1.00  0.00    -0.024 A 
HETATM   17  C   UNL     1      39.333 -12.780   0.285  1.00  0.00     0.074 A 
HETATM   18  C   UNL     1      38.606 -12.197  -0.758  1.00  0.00     0.037 A 
HETATM   19  C   UNL     1      38.362 -12.911  -1.930  1.00  0.00     0.003 A 
HETATM   20  C   UNL     1      38.836 -14.211  -2.065  1.00  0.00     0.001 A 
HETATM   21  C   UNL     1      39.567 -14.800  -1.031  1.00  0.00     0.010 A 
BRANCH  17  22
HETATM   22  O   UNL     1      39.617 -12.155   1.475  1.00  0.00    -0.355 OA
HETATM   23  C   UNL     1      38.519 -11.605   2.197  1.00  0.00     0.210 C 
ENDBRANCH  17  22
ENDBRANCH  15  16
ENDBRANCH  14  15
ENDBRANCH  12  14
ENDBRANCH   3  12
BRANCH   1  24
HETATM   24  N   UNL     1      43.901 -16.235   5.660  1.00  0.00    -0.273 NA
HETATM   25  H   UNL     1      44.861 -15.928   5.795  1.00  0.00     0.129 HD
BRANCH  24  26
HETATM   26  C   UNL     1      42.945 -15.243   6.173  1.00  0.00     0.053 C 
HETATM   27  C   UNL     1      43.677 -14.065   6.817  1.00  0.00     0.026 C 
HETATM   28  C   UNL     1      42.062 -15.937   7.211  1.00  0.00     0.026 C 
ENDBRANCH  24  26
ENDBRANCH   1  24
TORSDOF 7
ENDMDL
MODEL 2
REMARK VINA RESULT:      -8.0      2.648      7.085
REMARK  7 active torsions:
REMARK  status: ('A' for Active; 'I' for Inactive)
REMARK    1  A    between atoms: C_2  and  N_3 
REMARK    2  A    between atoms: N_3  and  C_4 
REMARK    3  A    between atoms: C_6  and  N_7 
REMARK    4  A    between atoms: N_7  and  C_8 
REMARK    5  A    between atoms: C_8  and  C_9 
REMARK    6  A    between atoms: C_9  and  C_10 
REMARK    7  A    between atoms: C_11  and  O_12 
ROOT
HETATM    1  C   UNL     1      41.087 -14.206   5.133  1.00  0.00     0.119 A 
HETATM    2  N   UNL     1      41.256 -15.428   5.673  1.00  0.00    -0.207 NA
HETATM    3  C   UNL     1      42.248 -15.592   6.556  1.00  0.00     0.181 A 
HETATM    4  N   UNL     1      43.077 -14.617   6.908  1.00  0.00    -0.330 N 
HETATM    5  H   UNL     1      43.840 -14.860   7.525  1.00  0.00     0.168 HD
HETATM    6  C   UNL     1      42.932 -13.377   6.433  1.00  0.00     0.048 A 
HETATM    7  C   UNL     1      41.898 -13.113   5.513  1.00  0.00     0.031 A 
HETATM    8  C   UNL     1      43.800 -12.357   6.852  1.00  0.00     0.030 A 
HETATM    9  C   UNL     1      43.639 -11.059   6.370  1.00  0.00     0.002 A 
HETATM   10  C   UNL     1      42.613 -10.772   5.474  1.00  0.00     0.001 A 
HETATM   11  C   UNL     1      41.750 -11.785   5.049  1.00  0.00     0.017 A 
ENDROOT
BRANCH   3  12
HETATM   12  N   UNL     1      42.458 -16.865   7.047  1.00  0.00    -0.262 NA
HETATM   13  H   UNL     1      42.166 -16.840   8.030  1.00  0.00     0.130 HD
BRANCH  12  14
HETATM   14  C   UNL     1      43.777 -17.480   6.872  1.00  0.00     0.100 C 
BRANCH  14  15
HETATM   15  C   UNL     1      44.311 -17.321   5.440  1.00  0.00     0.056 C 
BRANCH  15  16
HETATM   16  C   UNL     1      43.987 -18.389   4.412  1.00  0.00    -0.024 A 
HETATM   17  C   UNL     1      43.448 -17.984   3.170  1.00  0.00     0.074 A 
HETATM   18  C   UNL     1      43.154 -18.934   2.187  1.00  0.00     0.037 A 
HETATM   19  C   UNL     1      43.375 -20.289   2.430  1.00  0.00     0.003 A 
HETATM   20  C   UNL     1      43.884 -20.702   3.656  1.00  0.00     0.001 A 
HETATM   21  C   UNL     1      44.184 -19.760   4.642  1.00  0.00     0.010 A 
BRANCH  17  22
HETATM   22  O   UNL     1      43.258 -16.632   3.020  1.00  0.00    -0.355 OA
HETATM   23  C   UNL     1      43.390 -16.099   1.706  1.00  0.00     0.210 C 
ENDBRANCH  17  22
ENDBRANCH  15  16
ENDBRANCH  14  15
ENDBRANCH  12  14
ENDBRANCH   3  12
BRANCH   1  24
HETATM   24  N   UNL     1      40.049 -14.009   4.218  1.00  0.00    -0.273 NA
HETATM   25  H   UNL     1      39.555 -13.136   4.389  1.00  0.00     0.129 HD
BRANCH  24  26
HETATM   26  C   UNL     1      40.320 -14.198   2.786  1.00  0.00     0.053 C 
HETATM   27  C   UNL     1      39.640 -13.109   1.956  1.00  0.00     0.026 C 
HETATM   28  C   UNL     1      39.778 -15.571   2.384  1.00  0.00     0.026 C 
ENDBRANCH  24  26
ENDBRANCH   1  24
TORSDOF 7
ENDMDL
MODEL 3
REMARK VINA RESULT:      -7.9      2.434      4.900
REMARK  7 active torsions:
REMARK  status: ('A' for Active; 'I' for Inactive)
REMARK    1  A    between atoms: C_2  and  N_3 
REMARK    2  A    between atoms: N_3  and  C_4 
REMARK    3  A    between atoms: C_6  and  N_7 
REMARK    4  A    between atoms: N_7  and  C_8 
REMARK    5  A    between atoms: C_8  and  C_9 
REMARK    6  A    between atoms: C_9  and  C_10 
REMARK    7  A    between atoms: C_11  and  O_12 
ROOT
HETATM    1  C   UNL     1      43.119 -16.763   3.278  1.00  0.00     0.119 A 
HETATM    2  N   UNL     1      43.386 -15.978   4.339  1.00  0.00    -0.207 NA
HETATM    3  C   UNL     1      43.880 -16.558   5.439  1.00  0.00     0.181 A 
HETATM    4  N   UNL     1      44.102 -17.864   5.536  1.00  0.00    -0.330 N 
HETATM    5  H   UNL     1      44.406 -18.215   6.435  1.00  0.00     0.168 HD
HETATM    6  C   UNL     1      43.891 -18.683   4.502  1.00  0.00     0.048 A 
HETATM    7  C   UNL     1      43.390 -18.150   3.298  1.00  0.00     0.031 A 
HETATM    8  C   UNL     1      44.169 -20.053   4.622  1.00  0.00     0.030 A 
HETATM    9  C   UNL     1      43.966 -20.906   3.538  1.00  0.00     0.002 A 
HETATM   10  C   UNL     1      43.489 -20.398   2.334  1.00  0.00     0.001 A 
HETATM   11  C   UNL     1      43.203 -19.036   2.211  1.00  0.00     0.017 A 
ENDROOT
BRANCH   3  12
HETATM   12  N   UNL     1      44.080 -15.756   6.545  1.00  0.00    -0.262 NA
HETATM   13  H   UNL     1      43.255 -15.885   7.139  1.00  0.00     0.130 HD
BRANCH  12  14
HETATM   14  C   UNL     1      44.406 -14.342   6.341  1.00  0.00     0.100 C 
BRANCH  14  15
HETATM   15  C   UNL     1      43.313 -13.407   6.879  1.00  0.00     0.056 C 
BRANCH  15  16
HETATM   16  C   UNL     1      42.215 -12.942   5.939  1.00  0.00    -0.024 A 
HETATM   17  C   UNL     1      41.005 -13.671   5.909  1.00  0.00     0.074 A 
HETATM   18  C   UNL     1      39.960 -13.265   5.072  1.00  0.00     0.037 A 
HETATM   19  C   UNL     1      40.111 -12.148   4.250  1.00  0.00     0.003 A 
HETATM   20  C   UNL     1      41.305 -11.437   4.255  1.00  0.00     0.001 A 
HETATM   21  C   UNL     1      42.352 -11.832   5.090  1.00  0.00     0.010 A 
BRANCH  17  22
HETATM   22  O   UNL     1      40.948 -14.759   6.746  1.00  0.00    -0.355 OA
HETATM   23  C   UNL     1      40.331 -15.937   6.238  1.00  0.00     0.210 C 
ENDBRANCH  17  22
ENDBRANCH  15  16
ENDBRANCH  14  15
ENDBRANCH  12  14
ENDBRANCH   3  12
BRANCH   1  24
HETATM   24  N   UNL     1      42.614 -16.177   2.114  1.00  0.00    -0.273 NA
HETATM   25  H   UNL     1      42.417 -16.871   1.396  1.00  0.00     0.129 HD
BRANCH  24  26
HETATM   26  C   UNL     1      41.522 -15.200   2.227  1.00  0.00     0.053 C 
HETATM   27  C   UNL     1      40.230 -15.757   1.628  1.00  0.00     0.026 C 
HETATM   28  C   UNL     1      41.942 -13.938   1.471  1.00  0.00     0.026 C 
ENDBRANCH  24  26
ENDBRANCH   1  24
TORSDOF 7
ENDMDL
MODEL 4
REMARK VINA RESULT:      -7.9      2.872      7.247
REMARK  7 active torsions:
REMARK  status: ('A' for Active; 'I' for Inactive)
REMARK    1  A    between atoms: C_2  and  N_3 
REMARK    2  A    between atoms: N_3  and  C_4 
REMARK    3  A    between atoms: C_6  and  N_7 
REMARK    4  A    between atoms: N_7  and  C_8 
REMARK    5  A    between atoms: C_8  and  C_9 
REMARK    6  A    between atoms: C_9  and  C_10 
REMARK    7  A    between atoms: C_11  and  O_12 
ROOT
HETATM    1  C   UNL     1      40.965 -13.131   5.194  1.00  0.00     0.119 A 
HETATM    2  N   UNL     1      41.253 -14.408   4.877  1.00  0.00    -0.207 NA
HETATM    3  C   UNL     1      40.688 -14.923   3.778  1.00  0.00     0.181 A 
HETATM    4  N   UNL     1      39.851 -14.243   3.003  1.00  0.00    -0.330 N 
HETATM    5  H   UNL     1      39.419 -14.745   2.239  1.00  0.00     0.168 HD
HETATM    6  C   UNL     1      39.561 -12.963   3.250  1.00  0.00     0.048 A 
HETATM    7  C   UNL     1      40.131 -12.337   4.376  1.00  0.00     0.031 A 
HETATM    8  C   UNL     1      38.702 -12.258   2.393  1.00  0.00     0.030 A 
HETATM    9  C   UNL     1      38.413 -10.917   2.639  1.00  0.00     0.002 A 
HETATM   10  C   UNL     1      38.979 -10.274   3.737  1.00  0.00     0.001 A 
HETATM   11  C   UNL     1      39.829 -10.973   4.597  1.00  0.00     0.017 A 
ENDROOT
BRANCH   3  12
HETATM   12  N   UNL     1      40.930 -16.254   3.503  1.00  0.00    -0.262 NA
HETATM   13  H   UNL     1      41.439 -16.622   4.314  1.00  0.00     0.130 HD
BRANCH  12  14
HETATM   14  C   UNL     1      41.574 -16.606   2.235  1.00  0.00     0.100 C 
BRANCH  14  15
HETATM   15  C   UNL     1      43.056 -16.967   2.411  1.00  0.00     0.056 C 
BRANCH  15  16
HETATM   16  C   UNL     1      43.419 -18.267   3.106  1.00  0.00    -0.024 A 
HETATM   17  C   UNL     1      43.691 -18.234   4.493  1.00  0.00     0.074 A 
HETATM   18  C   UNL     1      44.009 -19.413   5.175  1.00  0.00     0.037 A 
HETATM   19  C   UNL     1      44.076 -20.626   4.491  1.00  0.00     0.003 A 
HETATM   20  C   UNL     1      43.832 -20.667   3.123  1.00  0.00     0.001 A 
HETATM   21  C   UNL     1      43.510 -19.496   2.434  1.00  0.00     0.010 A 
BRANCH  17  22
HETATM   22  O   UNL     1      43.608 -16.996   5.083  1.00  0.00    -0.355 OA
HETATM   23  C   UNL     1      44.601 -16.670   6.050  1.00  0.00     0.210 C 
ENDBRANCH  17  22
ENDBRANCH  15  16
ENDBRANCH  14  15
ENDBRANCH  12  14
ENDBRANCH   3  12
BRANCH   1  24
HETATM   24  N   UNL     1      41.554 -12.569   6.331  1.00  0.00    -0.273 NA
HETATM   25  H   UNL     1      41.475 -13.181   7.139  1.00  0.00     0.129 HD
BRANCH  24  26
HETATM   26  C   UNL     1      42.903 -11.998   6.223  1.00  0.00     0.053 C 
HETATM   27  C   UNL     1      43.921 -12.864   6.965  1.00  0.00     0.026 C 
HETATM   28  C   UNL     1      42.869 -10.597   6.835  1.00  0.00     0.026 C 
ENDBRANCH  24  26
ENDBRANCH   1  24
TORSDOF 7
ENDMDL
MODEL 5
REMARK VINA RESULT:      -7.7      3.171      6.967
REMARK  7 active torsions:
REMARK  status: ('A' for Active; 'I' for Inactive)
REMARK    1  A    between atoms: C_2  and  N_3 
REMARK    2  A    between atoms: N_3  and  C_4 
REMARK    3  A    between atoms: C_6  and  N_7 
REMARK    4  A    between atoms: N_7  and  C_8 
REMARK    5  A    between atoms: C_8  and  C_9 
REMARK    6  A    between atoms: C_9  and  C_10 
REMARK    7  A    between atoms: C_11  and  O_12 
ROOT
HETATM    1  C   UNL     1      42.470 -15.237   3.225  1.00  0.00     0.119 A 
HETATM    2  N   UNL     1      42.340 -14.353   4.233  1.00  0.00    -0.207 NA
HETATM    3  C   UNL     1      42.735 -14.733   5.454  1.00  0.00     0.181 A 
HETATM    4  N   UNL     1      43.229 -15.938   5.717  1.00  0.00    -0.330 N 
HETATM    5  H   UNL     1      43.428 -16.153   6.685  1.00  0.00     0.168 HD
HETATM    6  C   UNL     1      43.415 -16.839   4.748  1.00  0.00     0.048 A 
HETATM    7  C   UNL     1      43.045 -16.511   3.429  1.00  0.00     0.031 A 
HETATM    8  C   UNL     1      43.973 -18.090   5.049  1.00  0.00     0.030 A 
HETATM    9  C   UNL     1      44.184 -19.025   4.037  1.00  0.00     0.002 A 
HETATM   10  C   UNL     1      43.842 -18.716   2.723  1.00  0.00     0.001 A 
HETATM   11  C   UNL     1      43.279 -17.474   2.419  1.00  0.00     0.017 A 
ENDROOT
BRANCH   3  12
HETATM   12  N   UNL     1      42.530 -13.848   6.492  1.00  0.00    -0.262 NA
HETATM   13  H   UNL     1      41.859 -13.155   6.144  1.00  0.00     0.130 HD
BRANCH  12  14
HETATM   14  C   UNL     1      43.693 -13.226   7.130  1.00  0.00     0.100 C 
BRANCH  14  15
HETATM   15  C   UNL     1      44.186 -11.987   6.368  1.00  0.00     0.056 C 
BRANCH  15  16
HETATM   16  C   UNL     1      44.609 -10.760   7.155  1.00  0.00    -0.024 A 
HETATM   17  C   UNL     1      43.613  -9.835   7.543  1.00  0.00     0.074 A 
HETATM   18  C   UNL     1      43.957  -8.701   8.286  1.00  0.00     0.037 A 
HETATM   19  C   UNL     1      45.287  -8.467   8.637  1.00  0.00     0.003 A 
HETATM   20  C   UNL     1      46.277  -9.358   8.242  1.00  0.00     0.001 A 
HETATM   21  C   UNL     1      45.943 -10.494   7.503  1.00  0.00     0.010 A 
BRANCH  17  22
HETATM   22  O   UNL     1      42.334 -10.143   7.149  1.00  0.00    -0.355 OA
HETATM   23  C   UNL     1      41.268  -9.516   7.855  1.00  0.00     0.210 C 
ENDBRANCH  17  22
ENDBRANCH  15  16
ENDBRANCH  14  15
ENDBRANCH  12  14
ENDBRANCH   3  12
BRANCH   1  24
HETATM   24  N   UNL     1      42.075 -14.857   1.939  1.00  0.00    -0.273 NA
HETATM   25  H   UNL     1      42.490 -15.452   1.225  1.00  0.00     0.129 HD
BRANCH  24  26
HETATM   26  C   UNL     1      40.649 -14.618   1.674  1.00  0.00     0.053 C 
HETATM   27  C   UNL     1      39.910 -15.937   1.450  1.00  0.00     0.026 C 
HETATM   28  C   UNL     1      40.545 -13.745   0.423  1.00  0.00     0.026 C 
ENDBRANCH  24  26
ENDBRANCH   1  24
TORSDOF 7
ENDMDL
MODEL 6
REMARK VINA RESULT:      -7.6      1.978      4.127
REMARK  7 active torsions:
REMARK  status: ('A' for Active; 'I' for Inactive)
REMARK    1  A    between atoms: C_2  and  N_3 
REMARK    2  A    between atoms: N_3  and  C_4 
REMARK    3  A    between atoms: C_6  and  N_7 
REMARK    4  A    between atoms: N_7  and  C_8 
REMARK    5  A    between atoms: C_8  and  C_9 
REMARK    6  A    between atoms: C_9  and  C_10 
REMARK    7  A    between atoms: C_11  and  O_12 
ROOT
HETATM    1  C   UNL     1      42.854 -17.570   3.572  1.00  0.00     0.119 A 
HETATM    2  N   UNL     1      41.951 -17.135   2.673  1.00  0.00    -0.207 NA
HETATM    3  C   UNL     1      41.060 -16.220   3.074  1.00  0.00     0.181 A 
HETATM    4  N   UNL     1      41.017 -15.738   4.310  1.00  0.00    -0.330 N 
HETATM    5  H   UNL     1      40.259 -15.107   4.533  1.00  0.00     0.168 HD
HETATM    6  C   UNL     1      41.913 -16.106   5.230  1.00  0.00     0.048 A 
HETATM    7  C   UNL     1      42.899 -17.051   4.885  1.00  0.00     0.031 A 
HETATM    8  C   UNL     1      41.865 -15.553   6.519  1.00  0.00     0.030 A 
HETATM    9  C   UNL     1      42.811 -15.923   7.475  1.00  0.00     0.002 A 
HETATM   10  C   UNL     1      43.804 -16.842   7.150  1.00  0.00     0.001 A 
HETATM   11  C   UNL     1      43.852 -17.401   5.871  1.00  0.00     0.017 A 
ENDROOT
BRANCH   3  12
HETATM   12  N   UNL     1      40.092 -15.836   2.167  1.00  0.00    -0.262 NA
HETATM   13  H   UNL     1      40.010 -16.608   1.498  1.00  0.00     0.130 HD
BRANCH  12  14
HETATM   14  C   UNL     1      40.223 -14.535   1.504  1.00  0.00     0.100 C 
BRANCH  14  15
HETATM   15  C   UNL     1      39.968 -14.621  -0.008  1.00  0.00     0.056 C 
BRANCH  15  16
HETATM   16  C   UNL     1      40.315 -13.429  -0.881  1.00  0.00    -0.024 A 
HETATM   17  C   UNL     1      40.062 -13.516  -2.269  1.00  0.00     0.074 A 
HETATM   18  C   UNL     1      40.348 -12.433  -3.105  1.00  0.00     0.037 A 
HETATM   19  C   UNL     1      40.900 -11.265  -2.581  1.00  0.00     0.003 A 
HETATM   20  C   UNL     1      41.175 -11.176  -1.221  1.00  0.00     0.001 A 
HETATM   21  C   UNL     1      40.889 -12.250  -0.377  1.00  0.00     0.010 A 
BRANCH  17  22
HETATM   22  O   UNL     1      39.524 -14.705  -2.698  1.00  0.00    -0.355 OA
HETATM   23  C   UNL     1      38.290 -14.641  -3.406  1.00  0.00     0.210 C 
ENDBRANCH  17  22
ENDBRANCH  15  16
ENDBRANCH  14  15
ENDBRANCH  12  14
ENDBRANCH   3  12
BRANCH   1  24
HETATM   24  N   UNL     1      43.802 -18.516   3.172  1.00  0.00    -0.273 NA
HETATM   25  H   UNL     1      44.672 -18.423   3.692  1.00  0.00     0.129 HD
BRANCH  24  26
HETATM   26  C   UNL     1      43.396 -19.924   3.058  1.00  0.00     0.053 C 
HETATM   27  C   UNL     1      44.047 -20.769   4.154  1.00  0.00     0.026 C 
HETATM   28  C   UNL     1      43.837 -20.429   1.683  1.00  0.00     0.026 C 
ENDBRANCH  24  26
ENDBRANCH   1  24
TORSDOF 7
ENDMDL
MODEL 7
REMARK VINA RESULT:      -7.3      1.729      2.625
REMARK  7 active torsions:
REMARK  status: ('A' for Active; 'I' for Inactive)
REMARK    1  A    between atoms: C_2  and  N_3 
REMARK    2  A    between atoms: N_3  and  C_4 
REMARK    3  A    between atoms: C_6  and  N_7 
REMARK    4  A    between atoms: N_7  and  C_8 
REMARK    5  A    between atoms: C_8  and  C_9 
REMARK    6  A    between atoms: C_9  and  C_10 
REMARK    7  A    between atoms: C_11  and  O_12 
ROOT
HETATM    1  C   UNL     1      43.633 -16.664   4.530  1.00  0.00     0.119 A 
HETATM    2  N   UNL     1      43.264 -15.706   3.658  1.00  0.00    -0.207 NA
HETATM    3  C   UNL     1      42.997 -16.073   2.399  1.00  0.00     0.181 A 
HETATM    4  N   UNL     1      43.094 -17.326   1.970  1.00  0.00    -0.330 N 
HETATM    5  H   UNL     1      42.944 -17.489   0.983  1.00  0.00     0.168 HD
HETATM    6  C   UNL     1      43.418 -18.321   2.801  1.00  0.00     0.048 A 
HETATM    7  C   UNL     1      43.695 -18.024   4.149  1.00  0.00     0.031 A 
HETATM    8  C   UNL     1      43.477 -19.641   2.327  1.00  0.00     0.030 A 
HETATM    9  C   UNL     1      43.798 -20.682   3.197  1.00  0.00     0.002 A 
HETATM   10  C   UNL     1      44.059 -20.413   4.537  1.00  0.00     0.001 A 
HETATM   11  C   UNL     1      44.008 -19.100   5.012  1.00  0.00     0.017 A 
ENDROOT
BRANCH   3  12
HETATM   12  N   UNL     1      42.692 -15.074   1.497  1.00  0.00    -0.262 NA
HETATM   13  H   UNL     1      43.114 -14.217   1.872  1.00  0.00     0.130 HD
BRANCH  12  14
HETATM   14  C   UNL     1      41.293 -14.880   1.105  1.00  0.00     0.100 C 
BRANCH  14  15
HETATM   15  C   UNL     1      40.365 -14.700   2.315  1.00  0.00     0.056 C 
BRANCH  15  16
HETATM   16  C   UNL     1      39.813 -13.319   2.619  1.00  0.00    -0.024 A 
HETATM   17  C   UNL     1      40.127 -12.729   3.864  1.00  0.00     0.074 A 
HETATM   18  C   UNL     1      39.655 -11.450   4.175  1.00  0.00     0.037 A 
HETATM   19  C   UNL     1      38.857 -10.754   3.267  1.00  0.00     0.003 A 
HETATM   20  C   UNL     1      38.523 -11.334   2.049  1.00  0.00     0.001 A 
HETATM   21  C   UNL     1      38.993 -12.608   1.727  1.00  0.00     0.010 A 
BRANCH  17  22
HETATM   22  O   UNL     1      40.912 -13.488   4.697  1.00  0.00    -0.355 OA
HETATM   23  C   UNL     1      41.958 -12.818   5.392  1.00  0.00     0.210 C 
ENDBRANCH  17  22
ENDBRANCH  15  16
ENDBRANCH  14  15
ENDBRANCH  12  14
ENDBRANCH   3  12
BRANCH   1  24
HETATM   24  N   UNL     1      43.905 -16.306   5.853  1.00  0.00    -0.273 NA
HETATM   25  H   UNL     1      44.295 -15.368   5.918  1.00  0.00     0.129 HD
BRANCH  24  26
HETATM   26  C   UNL     1      42.873 -16.527   6.876  1.00  0.00     0.053 C 
HETATM   27  C   UNL     1      41.474 -16.429   6.267  1.00  0.00     0.026 C 
HETATM   28  C   UNL     1      43.046 -15.458   7.955  1.00  0.00     0.026 C 
ENDBRANCH  24  26
ENDBRANCH   1  24
TORSDOF 7
ENDMDL
MODEL 8
REMARK VINA RESULT:      -7.3      2.505      3.764
REMARK  7 active torsions:
REMARK  status: ('A' for Active; 'I' for Inactive)
REMARK    1  A    between atoms: C_2  and  N_3 
REMARK    2  A    between atoms: N_3  and  C_4 
REMARK    3  A    between atoms: C_6  and  N_7 
REMARK    4  A    between atoms: N_7  and  C_8 
REMARK    5  A    between atoms: C_8  and  C_9 
REMARK    6  A    between atoms: C_9  and  C_10 
REMARK    7  A    between atoms: C_11  and  O_12 
ROOT
HETATM    1  C   UNL     1      41.479 -16.307   5.083  1.00  0.00     0.119 A 
HETATM    2  N   UNL     1      40.482 -15.687   4.423  1.00  0.00    -0.207 NA
HETATM    3  C   UNL     1      40.431 -15.826   3.093  1.00  0.00     0.181 A 
HETATM    4  N   UNL     1      41.319 -16.528   2.399  1.00  0.00    -0.330 N 
HETATM    5  H   UNL     1      41.236 -16.511   1.391  1.00  0.00     0.168 HD
HETATM    6  C   UNL     1      42.305 -17.195   3.007  1.00  0.00     0.048 A 
HETATM    7  C   UNL     1      42.419 -17.118   4.409  1.00  0.00     0.031 A 
HETATM    8  C   UNL     1      43.208 -17.959   2.252  1.00  0.00     0.030 A 
HETATM    9  C   UNL     1      44.225 -18.669   2.887  1.00  0.00     0.002 A 
HETATM   10  C   UNL     1      44.346 -18.621   4.272  1.00  0.00     0.001 A 
HETATM   11  C   UNL     1      43.455 -17.856   5.028  1.00  0.00     0.017 A 
ENDROOT
BRANCH   3  12
HETATM   12  N   UNL     1      39.450 -15.127   2.418  1.00  0.00    -0.262 NA
HETATM   13  H   UNL     1      38.987 -15.809   1.808  1.00  0.00     0.130 HD
BRANCH  12  14
HETATM   14  C   UNL     1      39.821 -13.902   1.705  1.00  0.00     0.100 C 
BRANCH  14  15
HETATM   15  C   UNL     1      39.708 -12.652   2.591  1.00  0.00     0.056 C 
BRANCH  15  16
HETATM   16  C   UNL     1      40.966 -12.080   3.220  1.00  0.00    -0.024 A 
HETATM   17  C   UNL     1      40.837 -11.316   4.402  1.00  0.00     0.074 A 
HETATM   18  C   UNL     1      41.973 -10.788   5.024  1.00  0.00     0.037 A 
HETATM   19  C   UNL     1      43.238 -10.998   4.476  1.00  0.00     0.003 A 
HETATM   20  C   UNL     1      43.374 -11.729   3.302  1.00  0.00     0.001 A 
HETATM   21  C   UNL     1      42.247 -12.263   2.675  1.00  0.00     0.010 A 
BRANCH  17  22
HETATM   22  O   UNL     1      39.555 -11.156   4.866  1.00  0.00    -0.355 OA
HETATM   23  C   UNL     1      39.323 -11.436   6.243  1.00  0.00     0.210 C 
ENDBRANCH  17  22
ENDBRANCH  15  16
ENDBRANCH  14  15
ENDBRANCH  12  14
ENDBRANCH   3  12
BRANCH   1  24
HETATM   24  N   UNL     1      41.545 -16.186   6.474  1.00  0.00    -0.273 NA
HETATM   25  H   UNL     1      41.834 -17.055   6.916  1.00  0.00     0.129 HD
BRANCH  24  26
HETATM   26  C   UNL     1      42.248 -15.032   7.054  1.00  0.00     0.053 C 
HETATM   27  C   UNL     1      43.079 -14.312   5.992  1.00  0.00     0.026 C 
HETATM   28  C   UNL     1      43.163 -15.551   8.164  1.00  0.00     0.026 C 
ENDBRANCH  24  26
ENDBRANCH   1  24
TORSDOF 7
ENDMDL
MODEL 9
REMARK VINA RESULT:      -7.2     13.979     16.107
REMARK  7 active torsions:
REMARK  status: ('A' for Active; 'I' for Inactive)
REMARK    1  A    between atoms: C_2  and  N_3 
REMARK    2  A    between atoms: N_3  and  C_4 
REMARK    3  A    between atoms: C_6  and  N_7 
REMARK    4  A    between atoms: N_7  and  C_8 
REMARK    5  A    between atoms: C_8  and  C_9 
REMARK    6  A    between atoms: C_9  and  C_10 
REMARK    7  A    between atoms: C_11  and  O_12 
ROOT
HETATM    1  C   UNL     1      49.644 -29.816   0.801  1.00  0.00     0.119 A 
HETATM    2  N   UNL     1      48.463 -29.392   0.313  1.00  0.00    -0.207 NA
HETATM    3  C   UNL     1      47.426 -29.320   1.156  1.00  0.00     0.181 A 
HETATM    4  N   UNL     1      47.504 -29.662   2.437  1.00  0.00    -0.330 N 
HETATM    5  H   UNL     1      46.646 -29.644   2.972  1.00  0.00     0.168 HD
HETATM    6  C   UNL     1      48.659 -30.053   2.981  1.00  0.00     0.048 A 
HETATM    7  C   UNL     1      49.806 -30.136   2.168  1.00  0.00     0.031 A 
HETATM    8  C   UNL     1      48.720 -30.373   4.347  1.00  0.00     0.030 A 
HETATM    9  C   UNL     1      49.929 -30.764   4.920  1.00  0.00     0.002 A 
HETATM   10  C   UNL     1      51.078 -30.836   4.139  1.00  0.00     0.001 A 
HETATM   11  C   UNL     1      51.022 -30.526   2.778  1.00  0.00     0.017 A 
ENDROOT
BRANCH   3  12
HETATM   12  N   UNL     1      46.203 -28.955   0.629  1.00  0.00    -0.262 NA
HETATM   13  H   UNL     1      45.703 -29.831   0.444  1.00  0.00     0.130 HD
BRANCH  12  14
HETATM   14  C   UNL     1      46.173 -28.042  -0.517  1.00  0.00     0.100 C 
BRANCH  14  15
HETATM   15  C   UNL     1      44.834 -28.090  -1.268  1.00  0.00     0.056 C 
BRANCH  15  16
HETATM   16  C   UNL     1      44.677 -29.052  -2.432  1.00  0.00    -0.024 A 
HETATM   17  C   UNL     1      44.285 -30.381  -2.156  1.00  0.00     0.074 A 
HETATM   18  C   UNL     1      44.109 -31.294  -3.201  1.00  0.00     0.037 A 
HETATM   19  C   UNL     1      44.335 -30.904  -4.521  1.00  0.00     0.003 A 
HETATM   20  C   UNL     1      44.743 -29.605  -4.802  1.00  0.00     0.001 A 
HETATM   21  C   UNL     1      44.917 -28.686  -3.766  1.00  0.00     0.010 A 
BRANCH  17  22
HETATM   22  O   UNL     1      44.091 -30.678  -0.829  1.00  0.00    -0.355 OA
HETATM   23  C   UNL     1      44.490 -31.971  -0.388  1.00  0.00     0.210 C 
ENDBRANCH  17  22
ENDBRANCH  15  16
ENDBRANCH  14  15
ENDBRANCH  12  14
ENDBRANCH   3  12
BRANCH   1  24
HETATM   24  N   UNL     1      50.744 -29.887  -0.058  1.00  0.00    -0.273 NA
HETATM   25  H   UNL     1      51.617 -29.699   0.429  1.00  0.00     0.129 HD
BRANCH  24  26
HETATM   26  C   UNL     1      50.871 -31.044  -0.956  1.00  0.00     0.053 C 
HETATM   27  C   UNL     1      51.906 -32.035  -0.423  1.00  0.00     0.026 C 
HETATM   28  C   UNL     1      51.306 -30.527  -2.328  1.00  0.00     0.026 C 
ENDBRANCH  24  26
ENDBRANCH   1  24
TORSDOF 7
ENDMDL
MODEL 10
REMARK VINA RESULT:      -7.2      1.858      2.325
REMARK  7 active torsions:
REMARK  status: ('A' for Active; 'I' for Inactive)
REMARK    1  A    between atoms: C_2  and  N_3 
REMARK    2  A    between atoms: N_3  and  C_4 
REMARK    3  A    between atoms: C_6  and  N_7 
REMARK    4  A    between atoms: N_7  and  C_8 
REMARK    5  A    between atoms: C_8  and  C_9 
REMARK    6  A    between atoms: C_9  and  C_10 
REMARK    7  A    between atoms: C_11  and  O_12 
ROOT
HETATM    1  C   UNL     1      42.296 -15.332   4.368  1.00  0.00     0.119 A 
HETATM    2  N   UNL     1      41.296 -14.716   3.708  1.00  0.00    -0.207 NA
HETATM    3  C   UNL     1      40.831 -15.295   2.594  1.00  0.00     0.181 A 
HETATM    4  N   UNL     1      41.317 -16.430   2.107  1.00  0.00    -0.330 N 
HETATM    5  H   UNL     1      40.948 -16.747   1.220  1.00  0.00     0.168 HD
HETATM    6  C   UNL     1      42.282 -17.102   2.742  1.00  0.00     0.048 A 
HETATM    7  C   UNL     1      42.814 -16.572   3.934  1.00  0.00     0.031 A 
HETATM    8  C   UNL     1      42.751 -18.319   2.222  1.00  0.00     0.030 A 
HETATM    9  C   UNL     1      43.745 -19.029   2.893  1.00  0.00     0.002 A 
HETATM   10  C   UNL     1      44.272 -18.533   4.081  1.00  0.00     0.001 A 
HETATM   11  C   UNL     1      43.814 -17.319   4.599  1.00  0.00     0.017 A 
ENDROOT
BRANCH   3  12
HETATM   12  N   UNL     1      39.858 -14.619   1.886  1.00  0.00    -0.262 NA
HETATM   13  H   UNL     1      40.032 -14.830   0.897  1.00  0.00     0.130 HD
BRANCH  12  14
HETATM   14  C   UNL     1      39.677 -13.185   2.127  1.00  0.00     0.100 C 
BRANCH  14  15
HETATM   15  C   UNL     1      39.073 -12.459   0.916  1.00  0.00     0.056 C 
BRANCH  15  16
HETATM   16  C   UNL     1      39.650 -12.723  -0.463  1.00  0.00    -0.024 A 
HETATM   17  C   UNL     1      40.723 -11.917  -0.906  1.00  0.00     0.074 A 
HETATM   18  C   UNL     1      41.298 -12.139  -2.162  1.00  0.00     0.037 A 
HETATM   19  C   UNL     1      40.807 -13.146  -2.992  1.00  0.00     0.003 A 
HETATM   20  C   UNL     1      39.737 -13.931  -2.575  1.00  0.00     0.001 A 
HETATM   21  C   UNL     1      39.160 -13.719  -1.322  1.00  0.00     0.010 A 
BRANCH  17  22
HETATM   22  O   UNL     1      41.137 -10.946  -0.027  1.00  0.00    -0.355 OA
HETATM   23  C   UNL     1      41.401  -9.654  -0.563  1.00  0.00     0.210 C 
ENDBRANCH  17  22
ENDBRANCH  15  16
ENDBRANCH  14  15
ENDBRANCH  12  14
ENDBRANCH   3  12
BRANCH   1  24
HETATM   24  N   UNL     1      42.789 -14.751   5.540  1.00  0.00    -0.273 NA
HETATM   25  H   UNL     1      43.018 -13.769   5.407  1.00  0.00     0.129 HD
BRANCH  24  26
HETATM   26  C   UNL     1      42.063 -14.965   6.799  1.00  0.00     0.053 C 
HETATM   27  C   UNL     1      42.974 -15.598   7.852  1.00  0.00     0.026 C 
HETATM   28  C   UNL     1      40.883 -15.894   6.508  1.00  0.00     0.026 C 
ENDBRANCH  24  26
ENDBRANCH   1  24
TORSDOF 7
ENDMDL
