MODEL 1
REMARK VINA RESULT:      -8.8      0.000      0.000
REMARK  9 active torsions:
REMARK  status: ('A' for Active; 'I' for Inactive)
REMARK    1  A    between atoms: C_2  and  O_3 
REMARK    2  A    between atoms: O_3  and  C_4 
REMARK    3  A    between atoms: C_5  and  C_6 
REMARK    4  A    between atoms: N_7  and  C_9 
REMARK    5  A    between atoms: C_9  and  C_10 
REMARK       I    between atoms: C_10  and  N_11 
REMARK    6  A    between atoms: N_11  and  C_12 
REMARK    7  A    between atoms: C_20  and  C_21 
REMARK    8  A    between atoms: C_21  and  O_22 
REMARK    9  A    between atoms: C_28  and  O_29 
ROOT
HETATM    1  C   UNL     1      41.625 -10.552   6.774  1.00  0.00     0.231 C 
HETATM    2  N   UNL     1      40.943 -11.857   6.358  1.00  0.00    -0.054 N 
HETATM    3  H   UNL     1      41.216 -12.560   7.061  1.00  0.00     0.281 HD
HETATM    4  C   UNL     1      39.440 -11.755   6.481  1.00  0.00     0.239 C 
HETATM    5  C   UNL     1      38.905 -10.616   5.624  1.00  0.00     0.066 C 
HETATM    6  C   UNL     1      39.553  -9.286   6.013  1.00  0.00     0.065 C 
HETATM    7  C   UNL     1      41.097  -9.375   5.906  1.00  0.00     0.055 C 
HETATM    8  C   UNL     1      39.017  -8.135   5.146  1.00  0.00     0.038 C 
HETATM    9  C   UNL     1      39.654  -6.797   5.521  1.00  0.00     0.003 C 
HETATM   10  C   UNL     1      41.177  -6.869   5.476  1.00  0.00     0.001 C 
HETATM   11  C   UNL     1      41.727  -8.024   6.313  1.00  0.00     0.010 C 
ENDROOT
BRANCH   2  12
HETATM   12  C   UNL     1      41.417 -12.490   5.045  1.00  0.00     0.338 C 
BRANCH  12  13
HETATM   13  C   UNL     1      41.477 -14.018   5.138  1.00  0.00     0.248 C 
HETATM   14  N   UNL     1      42.719 -14.537   4.840  1.00  0.00    -0.319 N 
HETATM   15  H   UNL     1      43.517 -13.906   4.737  1.00  0.00     0.169 HD
HETATM   16  O   UNL     1      40.440 -14.622   5.403  1.00  0.00    -0.271 OA
BRANCH  14  17
HETATM   17  C   UNL     1      43.050 -15.876   4.660  1.00  0.00     0.094 A 
HETATM   18  S   UNL     1      43.355 -16.893   5.981  1.00  0.00    -0.075 SA
HETATM   19  C   UNL     1      43.615 -18.233   4.978  1.00  0.00    -0.008 A 
HETATM   20  C   UNL     1      43.450 -17.939   3.637  1.00  0.00    -0.026 A 
HETATM   21  C   UNL     1      43.944 -19.582   5.544  1.00  0.00     0.047 C 
HETATM   22  C   UNL     1      43.622 -19.003   2.584  1.00  0.00     0.041 C 
HETATM   23  C   UNL     1      43.141 -16.537   3.436  1.00  0.00     0.080 A 
HETATM   24  C   UNL     1      43.618 -20.421   3.178  1.00  0.00     0.005 C 
HETATM   25  C   UNL     1      44.476 -20.511   4.446  1.00  0.00     0.005 C 
BRANCH  23  26
HETATM   26  C   UNL     1      42.926 -15.824   2.171  1.00  0.00     0.296 C 
HETATM   27  O   UNL     1      43.856 -15.555   1.412  1.00  0.00    -0.259 OA
BRANCH  26  28
HETATM   28  O   UNL     1      41.625 -15.513   1.932  1.00  0.00    -0.322 OA
HETATM   29  C   UNL     1      41.408 -14.211   1.383  1.00  0.00     0.213 C 
ENDBRANCH  26  28
ENDBRANCH  23  26
ENDBRANCH  14  17
ENDBRANCH  12  13
ENDBRANCH   2  12
BRANCH   1  30
HETATM   30  C   UNL     1      43.133 -10.675   6.964  1.00  0.00     0.006 A 
HETATM   31  C   UNL     1      43.805 -10.447   8.183  1.00  0.00     0.077 A 
HETATM   32  C   UNL     1      45.185 -10.678   8.270  1.00  0.00     0.037 A 
HETATM   33  C   UNL     1      45.911 -11.099   7.156  1.00  0.00     0.003 A 
HETATM   34  C   UNL     1      45.269 -11.293   5.941  1.00  0.00     0.001 A 
HETATM   35  C   UNL     1      43.895 -11.083   5.846  1.00  0.00     0.012 A 
BRANCH  31  36
HETATM   36  O   UNL     1      43.045 -10.000   9.233  1.00  0.00    -0.351 OA
BRANCH  36  37
HETATM   37  C   UNL     1      43.584 -10.167  10.550  1.00  0.00     0.171 C 
HETATM   38  C   UNL     1      43.592  -8.809  11.227  1.00  0.00     0.034 C 
ENDBRANCH  36  37
ENDBRANCH  31  36
ENDBRANCH   1  30
BRANCH   6  39
HETATM   39  O   UNL     1      39.207  -9.044   7.383  1.00  0.00    -0.389 OA
HETATM   40  H   UNL     1      39.679  -8.249   7.700  1.00  0.00     0.210 HD
ENDBRANCH   6  39
TORSDOF 9
ENDMDL
MODEL 2
REMARK VINA RESULT:      -8.7      2.377      3.618
REMARK  9 active torsions:
REMARK  status: ('A' for Active; 'I' for Inactive)
REMARK    1  A    between atoms: C_2  and  O_3 
REMARK    2  A    between atoms: O_3  and  C_4 
REMARK    3  A    between atoms: C_5  and  C_6 
REMARK    4  A    between atoms: N_7  and  C_9 
REMARK    5  A    between atoms: C_9  and  C_10 
REMARK       I    between atoms: C_10  and  N_11 
REMARK    6  A    between atoms: N_11  and  C_12 
REMARK    7  A    between atoms: C_20  and  C_21 
REMARK    8  A    between atoms: C_21  and  O_22 
REMARK    9  A    between atoms: C_28  and  O_29 
ROOT
HETATM    1  C   UNL     1      41.583  -9.286   8.638  1.00  0.00     0.231 C 
HETATM    2  N   UNL     1      41.339 -10.159   7.405  1.00  0.00    -0.054 N 
HETATM    3  H   UNL     1      41.688 -11.099   7.646  1.00  0.00     0.281 HD
HETATM    4  C   UNL     1      39.861 -10.351   7.153  1.00  0.00     0.239 C 
HETATM    5  C   UNL     1      39.167  -9.010   6.961  1.00  0.00     0.066 C 
HETATM    6  C   UNL     1      39.376  -8.105   8.176  1.00  0.00     0.065 C 
HETATM    7  C   UNL     1      40.888  -7.907   8.460  1.00  0.00     0.055 C 
HETATM    8  C   UNL     1      38.680  -6.748   7.983  1.00  0.00     0.038 C 
HETATM    9  C   UNL     1      38.879  -5.831   9.189  1.00  0.00     0.003 C 
HETATM   10  C   UNL     1      40.356  -5.659   9.525  1.00  0.00     0.001 C 
HETATM   11  C   UNL     1      41.071  -6.998   9.697  1.00  0.00     0.010 C 
ENDROOT
BRANCH   2  12
HETATM   12  C   UNL     1      42.143  -9.811   6.148  1.00  0.00     0.338 C 
BRANCH  12  13
HETATM   13  C   UNL     1      42.848 -11.039   5.563  1.00  0.00     0.248 C 
HETATM   14  N   UNL     1      42.028 -11.813   4.768  1.00  0.00    -0.319 N 
HETATM   15  H   UNL     1      41.106 -11.462   4.502  1.00  0.00     0.169 HD
HETATM   16  O   UNL     1      44.015 -11.246   5.888  1.00  0.00    -0.271 OA
BRANCH  14  17
HETATM   17  C   UNL     1      42.310 -13.071   4.243  1.00  0.00     0.094 A 
HETATM   18  S   UNL     1      42.839 -13.261   2.645  1.00  0.00    -0.075 SA
HETATM   19  C   UNL     1      42.979 -14.940   2.817  1.00  0.00    -0.008 A 
HETATM   20  C   UNL     1      42.653 -15.377   4.088  1.00  0.00    -0.026 A 
HETATM   21  C   UNL     1      43.450 -15.806   1.688  1.00  0.00     0.047 C 
HETATM   22  C   UNL     1      42.729 -16.838   4.448  1.00  0.00     0.041 C 
HETATM   23  C   UNL     1      42.230 -14.278   4.934  1.00  0.00     0.080 A 
HETATM   24  C   UNL     1      43.525 -17.655   3.416  1.00  0.00     0.005 C 
HETATM   25  C   UNL     1      43.146 -17.280   1.978  1.00  0.00     0.005 C 
BRANCH  23  26
HETATM   26  C   UNL     1      41.776 -14.326   6.330  1.00  0.00     0.296 C 
HETATM   27  O   UNL     1      40.582 -14.315   6.624  1.00  0.00    -0.259 OA
BRANCH  26  28
HETATM   28  O   UNL     1      42.789 -14.395   7.233  1.00  0.00    -0.322 OA
HETATM   29  C   UNL     1      42.926 -15.656   7.890  1.00  0.00     0.213 C 
ENDBRANCH  26  28
ENDBRANCH  23  26
ENDBRANCH  14  17
ENDBRANCH  12  13
ENDBRANCH   2  12
BRANCH   1  30
HETATM   30  C   UNL     1      43.027  -9.296   9.127  1.00  0.00     0.006 A 
HETATM   31  C   UNL     1      43.458  -9.893  10.330  1.00  0.00     0.077 A 
HETATM   32  C   UNL     1      44.825  -9.926  10.640  1.00  0.00     0.037 A 
HETATM   33  C   UNL     1      45.764  -9.344   9.789  1.00  0.00     0.003 A 
HETATM   34  C   UNL     1      45.351  -8.722   8.620  1.00  0.00     0.001 A 
HETATM   35  C   UNL     1      43.998  -8.698   8.292  1.00  0.00     0.012 A 
BRANCH  31  36
HETATM   36  O   UNL     1      42.485 -10.417  11.142  1.00  0.00    -0.351 OA
BRANCH  36  37
HETATM   37  C   UNL     1      42.128  -9.662  12.307  1.00  0.00     0.171 C 
HETATM   38  C   UNL     1      40.613  -9.623  12.392  1.00  0.00     0.034 C 
ENDBRANCH  36  37
ENDBRANCH  31  36
ENDBRANCH   1  30
BRANCH   6  39
HETATM   39  O   UNL     1      38.790  -8.780   9.297  1.00  0.00    -0.389 OA
HETATM   40  H   UNL     1      37.831  -8.890   9.142  1.00  0.00     0.210 HD
ENDBRANCH   6  39
TORSDOF 9
ENDMDL
MODEL 3
REMARK VINA RESULT:      -8.6      2.566      8.808
REMARK  9 active torsions:
REMARK  status: ('A' for Active; 'I' for Inactive)
REMARK    1  A    between atoms: C_2  and  O_3 
REMARK    2  A    between atoms: O_3  and  C_4 
REMARK    3  A    between atoms: C_5  and  C_6 
REMARK    4  A    between atoms: N_7  and  C_9 
REMARK    5  A    between atoms: C_9  and  C_10 
REMARK       I    between atoms: C_10  and  N_11 
REMARK    6  A    between atoms: N_11  and  C_12 
REMARK    7  A    between atoms: C_20  and  C_21 
REMARK    8  A    between atoms: C_21  and  O_22 
REMARK    9  A    between atoms: C_28  and  O_29 
ROOT
HETATM    1  C   UNL     1      42.516 -13.886   5.197  1.00  0.00     0.231 C 
HETATM    2  N   UNL     1      43.279 -13.563   6.484  1.00  0.00    -0.054 N 
HETATM    3  H   UNL     1      42.701 -12.880   6.995  1.00  0.00     0.281 HD
HETATM    4  C   UNL     1      43.348 -14.766   7.396  1.00  0.00     0.239 C 
HETATM    5  C   UNL     1      44.023 -15.937   6.695  1.00  0.00     0.066 C 
HETATM    6  C   UNL     1      43.287 -16.302   5.405  1.00  0.00     0.065 C 
HETATM    7  C   UNL     1      43.192 -15.076   4.461  1.00  0.00     0.055 C 
HETATM    8  C   UNL     1      43.969 -17.482   4.693  1.00  0.00     0.038 C 
HETATM    9  C   UNL     1      43.245 -17.860   3.400  1.00  0.00     0.003 C 
HETATM   10  C   UNL     1      43.090 -16.660   2.473  1.00  0.00     0.001 C 
HETATM   11  C   UNL     1      42.436 -15.468   3.171  1.00  0.00     0.010 C 
ENDROOT
BRANCH   2  12
HETATM   12  C   UNL     1      44.612 -12.827   6.324  1.00  0.00     0.338 C 
BRANCH  12  13
HETATM   13  C   UNL     1      44.593 -11.456   7.007  1.00  0.00     0.248 C 
HETATM   14  N   UNL     1      43.403 -11.181   7.649  1.00  0.00    -0.319 N 
HETATM   15  H   UNL     1      42.709 -11.922   7.761  1.00  0.00     0.169 HD
HETATM   16  O   UNL     1      45.577 -10.732   6.878  1.00  0.00    -0.271 OA
BRANCH  14  17
HETATM   17  C   UNL     1      43.008  -9.967   8.202  1.00  0.00     0.094 A 
HETATM   18  S   UNL     1      41.920  -8.945   7.400  1.00  0.00    -0.075 SA
HETATM   19  C   UNL     1      41.943  -7.815   8.661  1.00  0.00    -0.008 A 
HETATM   20  C   UNL     1      42.750  -8.204   9.715  1.00  0.00    -0.026 A 
HETATM   21  C   UNL     1      41.122  -6.562   8.605  1.00  0.00     0.047 C 
HETATM   22  C   UNL     1      42.892  -7.341  10.942  1.00  0.00     0.041 C 
HETATM   23  C   UNL     1      43.407  -9.468   9.441  1.00  0.00     0.080 A 
HETATM   24  C   UNL     1      41.806  -6.256  11.023  1.00  0.00     0.005 C 
HETATM   25  C   UNL     1      41.588  -5.565   9.672  1.00  0.00     0.005 C 
BRANCH  23  26
HETATM   26  C   UNL     1      44.360 -10.200  10.284  1.00  0.00     0.296 C 
HETATM   27  O   UNL     1      45.538  -9.858  10.379  1.00  0.00    -0.259 OA
BRANCH  26  28
HETATM   28  O   UNL     1      43.812 -11.259  10.937  1.00  0.00    -0.322 OA
HETATM   29  C   UNL     1      43.319 -10.969  12.246  1.00  0.00     0.213 C 
ENDBRANCH  26  28
ENDBRANCH  23  26
ENDBRANCH  14  17
ENDBRANCH  12  13
ENDBRANCH   2  12
BRANCH   1  30
HETATM   30  C   UNL     1      42.146 -12.657   4.373  1.00  0.00     0.006 A 
HETATM   31  C   UNL     1      41.254 -11.650   4.798  1.00  0.00     0.077 A 
HETATM   32  C   UNL     1      41.055 -10.515   4.000  1.00  0.00     0.037 A 
HETATM   33  C   UNL     1      41.702 -10.384   2.771  1.00  0.00     0.003 A 
HETATM   34  C   UNL     1      42.553 -11.384   2.324  1.00  0.00     0.001 A 
HETATM   35  C   UNL     1      42.773 -12.508   3.116  1.00  0.00     0.012 A 
BRANCH  31  36
HETATM   36  O   UNL     1      40.621 -11.852   5.998  1.00  0.00    -0.351 OA
BRANCH  36  37
HETATM   37  C   UNL     1      39.196 -11.997   5.971  1.00  0.00     0.171 C 
HETATM   38  C   UNL     1      38.591 -10.801   6.683  1.00  0.00     0.034 C 
ENDBRANCH  36  37
ENDBRANCH  31  36
ENDBRANCH   1  30
BRANCH   6  39
HETATM   39  O   UNL     1      41.958 -16.685   5.784  1.00  0.00    -0.389 OA
HETATM   40  H   UNL     1      41.378 -16.661   4.997  1.00  0.00     0.210 HD
ENDBRANCH   6  39
TORSDOF 9
ENDMDL
MODEL 4
REMARK VINA RESULT:      -8.5      2.821      3.942
REMARK  9 active torsions:
REMARK  status: ('A' for Active; 'I' for Inactive)
REMARK    1  A    between atoms: C_2  and  O_3 
REMARK    2  A    between atoms: O_3  and  C_4 
REMARK    3  A    between atoms: C_5  and  C_6 
REMARK    4  A    between atoms: N_7  and  C_9 
REMARK    5  A    between atoms: C_9  and  C_10 
REMARK       I    between atoms: C_10  and  N_11 
REMARK    6  A    between atoms: N_11  and  C_12 
REMARK    7  A    between atoms: C_20  and  C_21 
REMARK    8  A    between atoms: C_21  and  O_22 
REMARK    9  A    between atoms: C_28  and  O_29 
ROOT
HETATM    1  C   UNL     1      41.497  -8.870   9.728  1.00  0.00     0.231 C 
HETATM    2  N   UNL     1      40.751  -9.699   8.681  1.00  0.00    -0.054 N 
HETATM    3  H   UNL     1      41.038 -10.678   8.833  1.00  0.00     0.281 HD
HETATM    4  C   UNL     1      39.261  -9.693   8.936  1.00  0.00     0.239 C 
HETATM    5  C   UNL     1      38.718  -8.270   8.926  1.00  0.00     0.066 C 
HETATM    6  C   UNL     1      39.430  -7.405   9.967  1.00  0.00     0.065 C 
HETATM    7  C   UNL     1      40.962  -7.410   9.731  1.00  0.00     0.055 C 
HETATM    8  C   UNL     1      38.886  -5.967   9.956  1.00  0.00     0.038 C 
HETATM    9  C   UNL     1      39.587  -5.087  10.992  1.00  0.00     0.003 C 
HETATM   10  C   UNL     1      41.101  -5.114  10.817  1.00  0.00     0.001 C 
HETATM   11  C   UNL     1      41.657  -6.537  10.801  1.00  0.00     0.010 C 
ENDROOT
BRANCH   2  12
HETATM   12  C   UNL     1      41.131  -9.458   7.217  1.00  0.00     0.338 C 
BRANCH  12  13
HETATM   13  C   UNL     1      40.909 -10.706   6.356  1.00  0.00     0.248 C 
HETATM   14  N   UNL     1      41.959 -11.598   6.404  1.00  0.00    -0.319 N 
HETATM   15  H   UNL     1      42.705 -11.462   7.088  1.00  0.00     0.169 HD
HETATM   16  O   UNL     1      39.881 -10.770   5.685  1.00  0.00    -0.271 OA
BRANCH  14  17
HETATM   17  C   UNL     1      42.141 -12.726   5.608  1.00  0.00     0.094 A 
HETATM   18  S   UNL     1      41.520 -14.235   6.062  1.00  0.00    -0.075 SA
HETATM   19  C   UNL     1      42.098 -14.975   4.652  1.00  0.00    -0.008 A 
HETATM   20  C   UNL     1      42.744 -14.090   3.809  1.00  0.00    -0.026 A 
HETATM   21  C   UNL     1      41.866 -16.431   4.381  1.00  0.00     0.047 C 
HETATM   22  C   UNL     1      43.317 -14.551   2.494  1.00  0.00     0.041 C 
HETATM   23  C   UNL     1      42.798 -12.758   4.379  1.00  0.00     0.080 A 
HETATM   24  C   UNL     1      42.786 -15.932   2.076  1.00  0.00     0.005 C 
HETATM   25  C   UNL     1      42.778 -16.919   3.250  1.00  0.00     0.005 C 
BRANCH  23  26
HETATM   26  C   UNL     1      43.420 -11.552   3.819  1.00  0.00     0.296 C 
HETATM   27  O   UNL     1      44.642 -11.429   3.741  1.00  0.00    -0.259 OA
BRANCH  26  28
HETATM   28  O   UNL     1      42.526 -10.619   3.397  1.00  0.00    -0.322 OA
HETATM   29  C   UNL     1      41.970 -10.860   2.103  1.00  0.00     0.213 C 
ENDBRANCH  26  28
ENDBRANCH  23  26
ENDBRANCH  14  17
ENDBRANCH  12  13
ENDBRANCH   2  12
BRANCH   1  30
HETATM   30  C   UNL     1      43.008  -9.074   9.717  1.00  0.00     0.006 A 
HETATM   31  C   UNL     1      43.710  -9.890  10.628  1.00  0.00     0.077 A 
HETATM   32  C   UNL     1      45.090 -10.080  10.471  1.00  0.00     0.037 A 
HETATM   33  C   UNL     1      45.786  -9.444   9.443  1.00  0.00     0.003 A 
HETATM   34  C   UNL     1      45.115  -8.610   8.561  1.00  0.00     0.001 A 
HETATM   35  C   UNL     1      43.741  -8.426   8.696  1.00  0.00     0.012 A 
BRANCH  31  36
HETATM   36  O   UNL     1      42.978 -10.459  11.638  1.00  0.00    -0.351 OA
BRANCH  36  37
HETATM   37  C   UNL     1      42.860  -9.719  12.860  1.00  0.00     0.171 C 
HETATM   38  C   UNL     1      41.400  -9.726  13.272  1.00  0.00     0.034 C 
ENDBRANCH  36  37
ENDBRANCH  31  36
ENDBRANCH   1  30
BRANCH   6  39
HETATM   39  O   UNL     1      39.167  -7.998  11.245  1.00  0.00    -0.389 OA
HETATM   40  H   UNL     1      39.977  -7.964  11.791  1.00  0.00     0.210 HD
ENDBRANCH   6  39
TORSDOF 9
ENDMDL
MODEL 5
REMARK VINA RESULT:      -8.3      2.335      8.621
REMARK  9 active torsions:
REMARK  status: ('A' for Active; 'I' for Inactive)
REMARK    1  A    between atoms: C_2  and  O_3 
REMARK    2  A    between atoms: O_3  and  C_4 
REMARK    3  A    between atoms: C_5  and  C_6 
REMARK    4  A    between atoms: N_7  and  C_9 
REMARK    5  A    between atoms: C_9  and  C_10 
REMARK       I    between atoms: C_10  and  N_11 
REMARK    6  A    between atoms: N_11  and  C_12 
REMARK    7  A    between atoms: C_20  and  C_21 
REMARK    8  A    between atoms: C_21  and  O_22 
REMARK    9  A    between atoms: C_28  and  O_29 
ROOT
HETATM    1  C   UNL     1      42.108 -14.016   4.853  1.00  0.00     0.231 C 
HETATM    2  N   UNL     1      42.750 -13.452   6.122  1.00  0.00    -0.054 N 
HETATM    3  H   UNL     1      42.040 -12.842   6.555  1.00  0.00     0.281 HD
HETATM    4  C   UNL     1      42.995 -14.539   7.143  1.00  0.00     0.239 C 
HETATM    5  C   UNL     1      43.894 -15.626   6.569  1.00  0.00     0.066 C 
HETATM    6  C   UNL     1      43.286 -16.227   5.301  1.00  0.00     0.065 C 
HETATM    7  C   UNL     1      43.013 -15.124   4.246  1.00  0.00     0.055 C 
HETATM    8  C   UNL     1      44.194 -17.322   4.717  1.00  0.00     0.038 C 
HETATM    9  C   UNL     1      43.601 -17.935   3.448  1.00  0.00     0.003 C 
HETATM   10  C   UNL     1      43.273 -16.867   2.411  1.00  0.00     0.001 C 
HETATM   11  C   UNL     1      42.391 -15.757   2.980  1.00  0.00     0.010 C 
ENDROOT
BRANCH   2  12
HETATM   12  C   UNL     1      43.938 -12.504   5.926  1.00  0.00     0.338 C 
BRANCH  12  13
HETATM   13  C   UNL     1      44.189 -11.641   7.167  1.00  0.00     0.248 C 
HETATM   14  N   UNL     1      43.033 -11.143   7.731  1.00  0.00    -0.319 N 
HETATM   15  H   UNL     1      42.127 -11.486   7.407  1.00  0.00     0.169 HD
HETATM   16  O   UNL     1      45.354 -11.432   7.499  1.00  0.00    -0.271 OA
BRANCH  14  17
HETATM   17  C   UNL     1      42.933 -10.194   8.743  1.00  0.00     0.094 A 
HETATM   18  S   UNL     1      43.747 -10.387  10.217  1.00  0.00    -0.075 SA
HETATM   19  C   UNL     1      43.174  -8.907  10.807  1.00  0.00    -0.008 A 
HETATM   20  C   UNL     1      42.383  -8.236   9.894  1.00  0.00    -0.026 A 
HETATM   21  C   UNL     1      43.553  -8.408  12.170  1.00  0.00     0.047 C 
HETATM   22  C   UNL     1      41.789  -6.890  10.224  1.00  0.00     0.041 C 
HETATM   23  C   UNL     1      42.212  -9.003   8.675  1.00  0.00     0.080 A 
HETATM   24  C   UNL     1      42.447  -6.246  11.455  1.00  0.00     0.005 C 
HETATM   25  C   UNL     1      42.637  -7.255  12.594  1.00  0.00     0.005 C 
BRANCH  23  26
HETATM   26  C   UNL     1      41.425  -8.658   7.485  1.00  0.00     0.296 C 
HETATM   27  O   UNL     1      40.292  -8.189   7.571  1.00  0.00    -0.259 OA
BRANCH  26  28
HETATM   28  O   UNL     1      42.071  -8.898   6.313  1.00  0.00    -0.322 OA
HETATM   29  C   UNL     1      41.388  -8.439   5.145  1.00  0.00     0.213 C 
ENDBRANCH  26  28
ENDBRANCH  23  26
ENDBRANCH  14  17
ENDBRANCH  12  13
ENDBRANCH   2  12
BRANCH   1  30
HETATM   30  C   UNL     1      41.559 -12.950   3.910  1.00  0.00     0.006 A 
HETATM   31  C   UNL     1      40.362 -12.236   4.125  1.00  0.00     0.077 A 
HETATM   32  C   UNL     1      39.996 -11.211   3.241  1.00  0.00     0.037 A 
HETATM   33  C   UNL     1      40.785 -10.910   2.130  1.00  0.00     0.003 A 
HETATM   34  C   UNL     1      41.946 -11.629   1.887  1.00  0.00     0.001 A 
HETATM   35  C   UNL     1      42.329 -12.639   2.767  1.00  0.00     0.012 A 
BRANCH  31  36
HETATM   36  O   UNL     1      39.612 -12.600   5.213  1.00  0.00    -0.351 OA
BRANCH  36  37
HETATM   37  C   UNL     1      39.674 -11.751   6.366  1.00  0.00     0.171 C 
HETATM   38  C   UNL     1      38.447 -10.858   6.355  1.00  0.00     0.034 C 
ENDBRANCH  36  37
ENDBRANCH  31  36
ENDBRANCH   1  30
BRANCH   6  39
HETATM   39  O   UNL     1      42.032 -16.809   5.682  1.00  0.00    -0.389 OA
HETATM   40  H   UNL     1      41.625 -17.237   4.903  1.00  0.00     0.210 HD
ENDBRANCH   6  39
TORSDOF 9
ENDMDL
MODEL 6
REMARK VINA RESULT:      -8.2      2.605      4.005
REMARK  9 active torsions:
REMARK  status: ('A' for Active; 'I' for Inactive)
REMARK    1  A    between atoms: C_2  and  O_3 
REMARK    2  A    between atoms: O_3  and  C_4 
REMARK    3  A    between atoms: C_5  and  C_6 
REMARK    4  A    between atoms: N_7  and  C_9 
REMARK    5  A    between atoms: C_9  and  C_10 
REMARK       I    between atoms: C_10  and  N_11 
REMARK    6  A    between atoms: N_11  and  C_12 
REMARK    7  A    between atoms: C_20  and  C_21 
REMARK    8  A    between atoms: C_21  and  O_22 
REMARK    9  A    between atoms: C_28  and  O_29 
ROOT
HETATM    1  C   UNL     1      41.787  -8.254   9.072  1.00  0.00     0.231 C 
HETATM    2  N   UNL     1      41.121  -8.887   7.848  1.00  0.00    -0.054 N 
HETATM    3  H   UNL     1      41.150  -9.906   8.002  1.00  0.00     0.281 HD
HETATM    4  C   UNL     1      39.649  -8.550   7.788  1.00  0.00     0.239 C 
HETATM    5  C   UNL     1      39.443  -7.041   7.746  1.00  0.00     0.066 C 
HETATM    6  C   UNL     1      40.085  -6.366   8.959  1.00  0.00     0.065 C 
HETATM    7  C   UNL     1      41.594  -6.712   9.046  1.00  0.00     0.055 C 
HETATM    8  C   UNL     1      39.881  -4.843   8.915  1.00  0.00     0.038 C 
HETATM    9  C   UNL     1      40.517  -4.150  10.121  1.00  0.00     0.003 C 
HETATM   10  C   UNL     1      41.991  -4.514  10.263  1.00  0.00     0.001 C 
HETATM   11  C   UNL     1      42.215  -6.026  10.283  1.00  0.00     0.010 C 
ENDROOT
BRANCH   2  12
HETATM   12  C   UNL     1      41.850  -8.725   6.511  1.00  0.00     0.338 C 
BRANCH  12  13
HETATM   13  C   UNL     1      42.113 -10.076   5.837  1.00  0.00     0.248 C 
HETATM   14  N   UNL     1      41.995 -11.148   6.696  1.00  0.00    -0.319 N 
HETATM   15  H   UNL     1      41.609 -11.004   7.631  1.00  0.00     0.169 HD
HETATM   16  O   UNL     1      42.448 -10.077   4.655  1.00  0.00    -0.271 OA
BRANCH  14  17
HETATM   17  C   UNL     1      42.342 -12.472   6.442  1.00  0.00     0.094 A 
HETATM   18  S   UNL     1      43.885 -13.066   6.810  1.00  0.00    -0.075 SA
HETATM   19  C   UNL     1      43.489 -14.623   6.275  1.00  0.00    -0.008 A 
HETATM   20  C   UNL     1      42.182 -14.723   5.835  1.00  0.00    -0.026 A 
HETATM   21  C   UNL     1      44.481 -15.747   6.335  1.00  0.00     0.047 C 
HETATM   22  C   UNL     1      41.632 -16.033   5.333  1.00  0.00     0.041 C 
HETATM   23  C   UNL     1      41.500 -13.445   5.906  1.00  0.00     0.080 A 
HETATM   24  C   UNL     1      42.523 -17.227   5.712  1.00  0.00     0.005 C 
HETATM   25  C   UNL     1      44.009 -16.927   5.477  1.00  0.00     0.005 C 
BRANCH  23  26
HETATM   26  C   UNL     1      40.125 -13.124   5.506  1.00  0.00     0.296 C 
HETATM   27  O   UNL     1      39.317 -12.638   6.295  1.00  0.00    -0.259 OA
BRANCH  26  28
HETATM   28  O   UNL     1      39.854 -13.404   4.204  1.00  0.00    -0.322 OA
HETATM   29  C   UNL     1      40.450 -12.513   3.259  1.00  0.00     0.213 C 
ENDBRANCH  26  28
ENDBRANCH  23  26
ENDBRANCH  14  17
ENDBRANCH  12  13
ENDBRANCH   2  12
BRANCH   1  30
HETATM   30  C   UNL     1      43.184  -8.791   9.363  1.00  0.00     0.006 A 
HETATM   31  C   UNL     1      43.483  -9.739  10.364  1.00  0.00     0.077 A 
HETATM   32  C   UNL     1      44.789 -10.234  10.486  1.00  0.00     0.037 A 
HETATM   33  C   UNL     1      45.807  -9.775   9.651  1.00  0.00     0.003 A 
HETATM   34  C   UNL     1      45.536  -8.816   8.686  1.00  0.00     0.001 A 
HETATM   35  C   UNL     1      44.239  -8.329   8.544  1.00  0.00     0.012 A 
BRANCH  31  36
HETATM   36  O   UNL     1      42.448 -10.126  11.176  1.00  0.00    -0.351 OA
BRANCH  36  37
HETATM   37  C   UNL     1      42.676 -10.089  12.590  1.00  0.00     0.171 C 
HETATM   38  C   UNL     1      42.699  -8.634  13.022  1.00  0.00     0.034 C 
ENDBRANCH  36  37
ENDBRANCH  31  36
ENDBRANCH   1  30
BRANCH   6  39
HETATM   39  O   UNL     1      39.431  -6.896  10.119  1.00  0.00    -0.389 OA
HETATM   40  H   UNL     1      38.770  -7.561   9.842  1.00  0.00     0.210 HD
ENDBRANCH   6  39
TORSDOF 9
ENDMDL
MODEL 7
REMARK VINA RESULT:      -8.1      3.462      6.488
REMARK  9 active torsions:
REMARK  status: ('A' for Active; 'I' for Inactive)
REMARK    1  A    between atoms: C_2  and  O_3 
REMARK    2  A    between atoms: O_3  and  C_4 
REMARK    3  A    between atoms: C_5  and  C_6 
REMARK    4  A    between atoms: N_7  and  C_9 
REMARK    5  A    between atoms: C_9  and  C_10 
REMARK       I    between atoms: C_10  and  N_11 
REMARK    6  A    between atoms: N_11  and  C_12 
REMARK    7  A    between atoms: C_20  and  C_21 
REMARK    8  A    between atoms: C_21  and  O_22 
REMARK    9  A    between atoms: C_28  and  O_29 
ROOT
HETATM    1  C   UNL     1      42.362 -12.258   5.824  1.00  0.00     0.231 C 
HETATM    2  N   UNL     1      41.101 -11.440   5.543  1.00  0.00    -0.054 N 
HETATM    3  H   UNL     1      40.318 -12.111   5.543  1.00  0.00     0.281 HD
HETATM    4  C   UNL     1      40.795 -10.494   6.681  1.00  0.00     0.239 C 
HETATM    5  C   UNL     1      41.963  -9.546   6.924  1.00  0.00     0.066 C 
HETATM    6  C   UNL     1      43.247 -10.323   7.220  1.00  0.00     0.065 C 
HETATM    7  C   UNL     1      43.569 -11.310   6.069  1.00  0.00     0.055 C 
HETATM    8  C   UNL     1      44.427  -9.368   7.461  1.00  0.00     0.038 C 
HETATM    9  C   UNL     1      45.720 -10.128   7.759  1.00  0.00     0.003 C 
HETATM   10  C   UNL     1      46.036 -11.145   6.668  1.00  0.00     0.001 C 
HETATM   11  C   UNL     1      44.864 -12.088   6.397  1.00  0.00     0.010 C 
ENDROOT
BRANCH   2  12
HETATM   12  C   UNL     1      40.996 -10.797   4.156  1.00  0.00     0.338 C 
BRANCH  12  13
HETATM   13  C   UNL     1      40.174 -11.656   3.190  1.00  0.00     0.248 C 
HETATM   14  N   UNL     1      40.674 -11.665   1.905  1.00  0.00    -0.319 N 
HETATM   15  H   UNL     1      41.592 -11.256   1.719  1.00  0.00     0.169 HD
HETATM   16  O   UNL     1      39.153 -12.191   3.617  1.00  0.00    -0.271 OA
BRANCH  14  17
HETATM   17  C   UNL     1      40.067 -12.195   0.770  1.00  0.00     0.094 A 
HETATM   18  S   UNL     1      40.361 -13.789   0.276  1.00  0.00    -0.075 SA
HETATM   19  C   UNL     1      39.300 -13.652  -1.036  1.00  0.00    -0.008 A 
HETATM   20  C   UNL     1      38.691 -12.413  -1.105  1.00  0.00    -0.026 A 
HETATM   21  C   UNL     1      39.055 -14.800  -1.968  1.00  0.00     0.047 C 
HETATM   22  C   UNL     1      37.698 -12.097  -2.195  1.00  0.00     0.041 C 
HETATM   23  C   UNL     1      39.159 -11.532  -0.053  1.00  0.00     0.080 A 
HETATM   24  C   UNL     1      37.205 -13.359  -2.921  1.00  0.00     0.005 C 
HETATM   25  C   UNL     1      38.356 -14.318  -3.245  1.00  0.00     0.005 C 
BRANCH  23  26
HETATM   26  C   UNL     1      38.785 -10.135   0.199  1.00  0.00     0.296 C 
HETATM   27  O   UNL     1      39.217  -9.213  -0.491  1.00  0.00    -0.259 OA
BRANCH  26  28
HETATM   28  O   UNL     1      37.925  -9.978   1.241  1.00  0.00    -0.322 OA
HETATM   29  C   UNL     1      36.548  -9.875   0.874  1.00  0.00     0.213 C 
ENDBRANCH  26  28
ENDBRANCH  23  26
ENDBRANCH  14  17
ENDBRANCH  12  13
ENDBRANCH   2  12
BRANCH   1  30
HETATM   30  C   UNL     1      42.562 -13.433   4.873  1.00  0.00     0.006 A 
HETATM   31  C   UNL     1      42.104 -14.745   5.118  1.00  0.00     0.077 A 
HETATM   32  C   UNL     1      42.261 -15.731   4.133  1.00  0.00     0.037 A 
HETATM   33  C   UNL     1      42.896 -15.441   2.926  1.00  0.00     0.003 A 
HETATM   34  C   UNL     1      43.383 -14.164   2.687  1.00  0.00     0.001 A 
HETATM   35  C   UNL     1      43.219 -13.171   3.650  1.00  0.00     0.012 A 
BRANCH  31  36
HETATM   36  O   UNL     1      41.520 -14.978   6.336  1.00  0.00    -0.351 OA
BRANCH  36  37
HETATM   37  C   UNL     1      41.994 -16.104   7.086  1.00  0.00     0.171 C 
HETATM   38  C   UNL     1      43.068 -15.612   8.039  1.00  0.00     0.034 C 
ENDBRANCH  36  37
ENDBRANCH  31  36
ENDBRANCH   1  30
BRANCH   6  39
HETATM   39  O   UNL     1      43.003 -11.081   8.412  1.00  0.00    -0.389 OA
HETATM   40  H   UNL     1      43.537 -10.713   9.144  1.00  0.00     0.210 HD
ENDBRANCH   6  39
TORSDOF 9
ENDMDL
MODEL 8
REMARK VINA RESULT:      -8.1      1.994      4.346
REMARK  9 active torsions:
REMARK  status: ('A' for Active; 'I' for Inactive)
REMARK    1  A    between atoms: C_2  and  O_3 
REMARK    2  A    between atoms: O_3  and  C_4 
REMARK    3  A    between atoms: C_5  and  C_6 
REMARK    4  A    between atoms: N_7  and  C_9 
REMARK    5  A    between atoms: C_9  and  C_10 
REMARK       I    between atoms: C_10  and  N_11 
REMARK    6  A    between atoms: N_11  and  C_12 
REMARK    7  A    between atoms: C_20  and  C_21 
REMARK    8  A    between atoms: C_21  and  O_22 
REMARK    9  A    between atoms: C_28  and  O_29 
ROOT
HETATM    1  C   UNL     1      42.744  -9.205   7.492  1.00  0.00     0.231 C 
HETATM    2  N   UNL     1      43.986 -10.099   7.477  1.00  0.00    -0.054 N 
HETATM    3  H   UNL     1      44.282 -10.161   6.492  1.00  0.00     0.281 HD
HETATM    4  C   UNL     1      45.146  -9.439   8.187  1.00  0.00     0.239 C 
HETATM    5  C   UNL     1      44.782  -9.113   9.629  1.00  0.00     0.066 C 
HETATM    6  C   UNL     1      43.549  -8.210   9.692  1.00  0.00     0.065 C 
HETATM    7  C   UNL     1      42.351  -8.864   8.957  1.00  0.00     0.055 C 
HETATM    8  C   UNL     1      43.177  -7.883  11.148  1.00  0.00     0.038 C 
HETATM    9  C   UNL     1      41.946  -6.981  11.230  1.00  0.00     0.003 C 
HETATM   10  C   UNL     1      40.764  -7.574  10.470  1.00  0.00     0.001 C 
HETATM   11  C   UNL     1      41.122  -7.929   9.028  1.00  0.00     0.010 C 
ENDROOT
BRANCH   2  12
HETATM   12  C   UNL     1      43.777 -11.568   7.861  1.00  0.00     0.338 C 
BRANCH  12  13
HETATM   13  C   UNL     1      44.107 -12.513   6.701  1.00  0.00     0.248 C 
HETATM   14  N   UNL     1      43.212 -13.554   6.573  1.00  0.00    -0.319 N 
HETATM   15  H   UNL     1      42.350 -13.548   7.120  1.00  0.00     0.169 HD
HETATM   16  O   UNL     1      45.128 -12.297   6.052  1.00  0.00    -0.271 OA
BRANCH  14  17
HETATM   17  C   UNL     1      43.330 -14.667   5.745  1.00  0.00     0.094 A 
HETATM   18  S   UNL     1      44.168 -16.052   6.243  1.00  0.00    -0.075 SA
HETATM   19  C   UNL     1      43.827 -16.864   4.797  1.00  0.00    -0.008 A 
HETATM   20  C   UNL     1      43.056 -16.113   3.930  1.00  0.00    -0.026 A 
HETATM   21  C   UNL     1      44.301 -18.266   4.556  1.00  0.00     0.047 C 
HETATM   22  C   UNL     1      42.631 -16.666   2.594  1.00  0.00     0.041 C 
HETATM   23  C   UNL     1      42.778 -14.797   4.472  1.00  0.00     0.080 A 
HETATM   24  C   UNL     1      42.824 -18.188   2.502  1.00  0.00     0.005 C 
HETATM   25  C   UNL     1      44.178 -18.627   3.071  1.00  0.00     0.005 C 
BRANCH  23  26
HETATM   26  C   UNL     1      42.026 -13.698   3.854  1.00  0.00     0.296 C 
HETATM   27  O   UNL     1      42.574 -12.655   3.500  1.00  0.00    -0.259 OA
BRANCH  26  28
HETATM   28  O   UNL     1      40.699 -13.955   3.709  1.00  0.00    -0.322 OA
HETATM   29  C   UNL     1      40.157 -13.623   2.430  1.00  0.00     0.213 C 
ENDBRANCH  26  28
ENDBRANCH  23  26
ENDBRANCH  14  17
ENDBRANCH  12  13
ENDBRANCH   2  12
BRANCH   1  30
HETATM   30  C   UNL     1      41.639  -9.665   6.547  1.00  0.00     0.006 A 
HETATM   31  C   UNL     1      41.306  -9.022   5.336  1.00  0.00     0.077 A 
HETATM   32  C   UNL     1      40.333  -9.582   4.497  1.00  0.00     0.037 A 
HETATM   33  C   UNL     1      39.664 -10.751   4.859  1.00  0.00     0.003 A 
HETATM   34  C   UNL     1      39.956 -11.374   6.064  1.00  0.00     0.001 A 
HETATM   35  C   UNL     1      40.933 -10.836   6.900  1.00  0.00     0.012 A 
BRANCH  31  36
HETATM   36  O   UNL     1      41.973  -7.858   5.051  1.00  0.00    -0.351 OA
BRANCH  36  37
HETATM   37  C   UNL     1      41.281  -6.629   5.303  1.00  0.00     0.171 C 
HETATM   38  C   UNL     1      41.994  -5.527   4.542  1.00  0.00     0.034 C 
ENDBRANCH  36  37
ENDBRANCH  31  36
ENDBRANCH   1  30
BRANCH   6  39
HETATM   39  O   UNL     1      43.892  -6.997   9.009  1.00  0.00    -0.389 OA
HETATM   40  H   UNL     1      43.216  -6.317   9.201  1.00  0.00     0.210 HD
ENDBRANCH   6  39
TORSDOF 9
ENDMDL
MODEL 9
REMARK VINA RESULT:      -8.0      3.329      8.448
REMARK  9 active torsions:
REMARK  status: ('A' for Active; 'I' for Inactive)
REMARK    1  A    between atoms: C_2  and  O_3 
REMARK    2  A    between atoms: O_3  and  C_4 
REMARK    3  A    between atoms: C_5  and  C_6 
REMARK    4  A    between atoms: N_7  and  C_9 
REMARK    5  A    between atoms: C_9  and  C_10 
REMARK       I    between atoms: C_10  and  N_11 
REMARK    6  A    between atoms: N_11  and  C_12 
REMARK    7  A    between atoms: C_20  and  C_21 
REMARK    8  A    between atoms: C_21  and  O_22 
REMARK    9  A    between atoms: C_28  and  O_29 
ROOT
HETATM    1  C   UNL     1      41.498 -12.802   4.491  1.00  0.00     0.231 C 
HETATM    2  N   UNL     1      41.018 -11.487   5.108  1.00  0.00    -0.054 N 
HETATM    3  H   UNL     1      41.769 -11.177   5.743  1.00  0.00     0.281 HD
HETATM    4  C   UNL     1      40.920 -10.395   4.068  1.00  0.00     0.239 C 
HETATM    5  C   UNL     1      39.969 -10.799   2.949  1.00  0.00     0.066 C 
HETATM    6  C   UNL     1      40.417 -12.107   2.294  1.00  0.00     0.065 C 
HETATM    7  C   UNL     1      40.537 -13.237   3.350  1.00  0.00     0.055 C 
HETATM    8  C   UNL     1      39.455 -12.519   1.168  1.00  0.00     0.038 C 
HETATM    9  C   UNL     1      39.888 -13.825   0.501  1.00  0.00     0.003 C 
HETATM   10  C   UNL     1      40.066 -14.943   1.523  1.00  0.00     0.001 C 
HETATM   11  C   UNL     1      40.999 -14.542   2.664  1.00  0.00     0.010 C 
ENDROOT
BRANCH   2  12
HETATM   12  C   UNL     1      39.802 -11.569   6.038  1.00  0.00     0.338 C 
BRANCH  12  13
HETATM   13  C   UNL     1      39.659 -10.313   6.903  1.00  0.00     0.248 C 
HETATM   14  N   UNL     1      40.671 -10.169   7.829  1.00  0.00    -0.319 N 
HETATM   15  H   UNL     1      41.488 -10.780   7.782  1.00  0.00     0.169 HD
HETATM   16  O   UNL     1      38.667  -9.608   6.738  1.00  0.00    -0.271 OA
BRANCH  14  17
HETATM   17  C   UNL     1      40.733  -9.245   8.868  1.00  0.00     0.094 A 
HETATM   18  S   UNL     1      39.690  -9.344  10.200  1.00  0.00    -0.075 SA
HETATM   19  C   UNL     1      40.398  -7.996  10.942  1.00  0.00    -0.008 A 
HETATM   20  C   UNL     1      41.446  -7.469  10.210  1.00  0.00    -0.026 A 
HETATM   21  C   UNL     1      39.924  -7.497  12.275  1.00  0.00     0.047 C 
HETATM   22  C   UNL     1      42.217  -6.275  10.710  1.00  0.00     0.041 C 
HETATM   23  C   UNL     1      41.636  -8.187   8.965  1.00  0.00     0.080 A 
HETATM   24  C   UNL     1      41.957  -5.991  12.198  1.00  0.00     0.005 C 
HETATM   25  C   UNL     1      40.467  -6.090  12.546  1.00  0.00     0.005 C 
BRANCH  23  26
HETATM   26  C   UNL     1      42.613  -7.923   7.902  1.00  0.00     0.296 C 
HETATM   27  O   UNL     1      42.495  -6.970   7.134  1.00  0.00    -0.259 OA
BRANCH  26  28
HETATM   28  O   UNL     1      43.639  -8.815   7.867  1.00  0.00    -0.322 OA
HETATM   29  C   UNL     1      44.793  -8.434   8.618  1.00  0.00     0.213 C 
ENDBRANCH  26  28
ENDBRANCH  23  26
ENDBRANCH  14  17
ENDBRANCH  12  13
ENDBRANCH   2  12
BRANCH   1  30
HETATM   30  C   UNL     1      41.907 -13.854   5.516  1.00  0.00     0.006 A 
HETATM   31  C   UNL     1      43.107 -13.821   6.258  1.00  0.00     0.077 A 
HETATM   32  C   UNL     1      43.342 -14.791   7.243  1.00  0.00     0.037 A 
HETATM   33  C   UNL     1      42.418 -15.810   7.476  1.00  0.00     0.003 A 
HETATM   34  C   UNL     1      41.251 -15.875   6.729  1.00  0.00     0.001 A 
HETATM   35  C   UNL     1      40.998 -14.908   5.760  1.00  0.00     0.012 A 
BRANCH  31  36
HETATM   36  O   UNL     1      43.991 -12.816   5.959  1.00  0.00    -0.351 OA
BRANCH  36  37
HETATM   37  C   UNL     1      44.519 -12.061   7.056  1.00  0.00     0.171 C 
HETATM   38  C   UNL     1      45.791 -11.380   6.585  1.00  0.00     0.034 C 
ENDBRANCH  36  37
ENDBRANCH  31  36
ENDBRANCH   1  30
BRANCH   6  39
HETATM   39  O   UNL     1      41.717 -11.865   1.740  1.00  0.00    -0.389 OA
HETATM   40  H   UNL     1      41.928 -10.914   1.814  1.00  0.00     0.210 HD
ENDBRANCH   6  39
TORSDOF 9
ENDMDL
MODEL 10
REMARK VINA RESULT:      -8.0      3.636      8.116
REMARK  9 active torsions:
REMARK  status: ('A' for Active; 'I' for Inactive)
REMARK    1  A    between atoms: C_2  and  O_3 
REMARK    2  A    between atoms: O_3  and  C_4 
REMARK    3  A    between atoms: C_5  and  C_6 
REMARK    4  A    between atoms: N_7  and  C_9 
REMARK    5  A    between atoms: C_9  and  C_10 
REMARK       I    between atoms: C_10  and  N_11 
REMARK    6  A    between atoms: N_11  and  C_12 
REMARK    7  A    between atoms: C_20  and  C_21 
REMARK    8  A    between atoms: C_21  and  O_22 
REMARK    9  A    between atoms: C_28  and  O_29 
ROOT
HETATM    1  C   UNL     1      42.664 -15.256   4.150  1.00  0.00     0.231 C 
HETATM    2  N   UNL     1      42.448 -15.260   2.636  1.00  0.00    -0.054 N 
HETATM    3  H   UNL     1      42.667 -14.306   2.312  1.00  0.00     0.281 HD
HETATM    4  C   UNL     1      43.460 -16.142   1.940  1.00  0.00     0.239 C 
HETATM    5  C   UNL     1      43.379 -17.571   2.460  1.00  0.00     0.066 C 
HETATM    6  C   UNL     1      43.599 -17.617   3.973  1.00  0.00     0.065 C 
HETATM    7  C   UNL     1      42.579 -16.706   4.704  1.00  0.00     0.055 C 
HETATM    8  C   UNL     1      43.514 -19.058   4.501  1.00  0.00     0.038 C 
HETATM    9  C   UNL     1      43.731 -19.122   6.013  1.00  0.00     0.003 C 
HETATM   10  C   UNL     1      42.776 -18.195   6.757  1.00  0.00     0.001 C 
HETATM   11  C   UNL     1      42.829 -16.763   6.229  1.00  0.00     0.010 C 
ENDROOT
BRANCH   2  12
HETATM   12  C   UNL     1      41.010 -15.461   2.148  1.00  0.00     0.338 C 
BRANCH  12  13
HETATM   13  C   UNL     1      40.428 -14.179   1.545  1.00  0.00     0.248 C 
HETATM   14  N   UNL     1      41.149 -13.704   0.470  1.00  0.00    -0.319 N 
HETATM   15  H   UNL     1      41.887 -14.281   0.064  1.00  0.00     0.169 HD
HETATM   16  O   UNL     1      39.444 -13.680   2.087  1.00  0.00    -0.271 OA
BRANCH  14  17
HETATM   17  C   UNL     1      40.988 -12.482  -0.176  1.00  0.00     0.094 A 
HETATM   18  S   UNL     1      41.326 -11.019   0.608  1.00  0.00    -0.075 SA
HETATM   19  C   UNL     1      40.943 -10.111  -0.769  1.00  0.00    -0.008 A 
HETATM   20  C   UNL     1      40.579 -10.899  -1.846  1.00  0.00    -0.026 A 
HETATM   21  C   UNL     1      41.046  -8.615  -0.775  1.00  0.00     0.047 C 
HETATM   22  C   UNL     1      40.216 -10.279  -3.171  1.00  0.00     0.041 C 
HETATM   23  C   UNL     1      40.577 -12.306  -1.497  1.00  0.00     0.080 A 
HETATM   24  C   UNL     1      40.648  -8.807  -3.267  1.00  0.00     0.005 C 
HETATM   25  C   UNL     1      40.314  -8.030  -1.988  1.00  0.00     0.005 C 
BRANCH  23  26
HETATM   26  C   UNL     1      40.222 -13.453  -2.341  1.00  0.00     0.296 C 
HETATM   27  O   UNL     1      40.898 -13.774  -3.317  1.00  0.00    -0.259 OA
BRANCH  26  28
HETATM   28  O   UNL     1      39.103 -14.108  -1.932  1.00  0.00    -0.322 OA
HETATM   29  C   UNL     1      37.875 -13.435  -2.213  1.00  0.00     0.213 C 
ENDBRANCH  26  28
ENDBRANCH  23  26
ENDBRANCH  14  17
ENDBRANCH  12  13
ENDBRANCH   2  12
BRANCH   1  30
HETATM   30  C   UNL     1      41.887 -14.168   4.883  1.00  0.00     0.006 A 
HETATM   31  C   UNL     1      42.277 -12.814   4.947  1.00  0.00     0.077 A 
HETATM   32  C   UNL     1      41.440 -11.878   5.570  1.00  0.00     0.037 A 
HETATM   33  C   UNL     1      40.239 -12.274   6.159  1.00  0.00     0.003 A 
HETATM   34  C   UNL     1      39.860 -13.608   6.135  1.00  0.00     0.001 A 
HETATM   35  C   UNL     1      40.675 -14.545   5.504  1.00  0.00     0.012 A 
BRANCH  31  36
HETATM   36  O   UNL     1      43.485 -12.492   4.382  1.00  0.00    -0.351 OA
BRANCH  36  37
HETATM   37  C   UNL     1      44.309 -11.556   5.087  1.00  0.00     0.171 C 
HETATM   38  C   UNL     1      44.730 -12.197   6.396  1.00  0.00     0.034 C 
ENDBRANCH  36  37
ENDBRANCH  31  36
ENDBRANCH   1  30
BRANCH   6  39
HETATM   39  O   UNL     1      44.917 -17.104   4.213  1.00  0.00    -0.389 OA
HETATM   40  H   UNL     1      45.346 -16.904   3.357  1.00  0.00     0.210 HD
ENDBRANCH   6  39
TORSDOF 9
ENDMDL
