MODEL 1
REMARK VINA RESULT:     -10.4      0.000      0.000
REMARK  8 active torsions:
REMARK  status: ('A' for Active; 'I' for Inactive)
REMARK    1  A    between atoms: C_4  and  C_5 
REMARK    2  A    between atoms: C_5  and  N_6 
REMARK    3  A    between atoms: C_5  and  C_36 
REMARK    4  A    between atoms: N_10  and  C_11 
REMARK    5  A    between atoms: C_13  and  C_14 
REMARK       I    between atoms: C_14  and  N_15 
REMARK    6  A    between atoms: N_15  and  C_16 
REMARK    7  A    between atoms: C_19  and  O_20 
REMARK    8  A    between atoms: O_20  and  C_21 
ROOT
HETATM    1  C   UNL     1      40.387  -9.903   4.346  1.00  0.00     0.181 C 
HETATM    2  N   UNL     1      39.628 -10.469   5.312  1.00  0.00    -0.351 N 
HETATM    3  C   UNL     1      40.304 -11.234   6.350  1.00  0.00     0.185 C 
HETATM    4  C   UNL     1      41.541 -10.480   6.782  1.00  0.00     0.140 C 
HETATM    5  C   UNL     1      42.322 -10.043   5.568  1.00  0.00     0.248 C 
HETATM    6  O   UNL     1      43.548  -9.974   5.628  1.00  0.00    -0.271 OA
HETATM    7  N   UNL     1      41.648  -9.661   4.432  1.00  0.00    -0.185 NA
HETATM    8  H   UNL     1      38.761 -10.880   4.980  1.00  0.00     0.163 HD
ENDROOT
BRANCH   1   9
HETATM    9  N   UNL     1      39.661  -9.645   3.204  1.00  0.00    -0.250 NA
HETATM   10  C   UNL     1      38.598 -10.638   2.904  1.00  0.00     0.126 C 
HETATM   11  C   UNL     1      39.206 -11.935   2.324  1.00  0.00     0.251 C 
HETATM   12  N   UNL     1      39.984 -11.606   1.047  1.00  0.00    -0.057 N 
HETATM   13  H   UNL     1      39.321 -11.158   0.409  1.00  0.00     0.281 HD
HETATM   14  C   UNL     1      41.055 -10.553   1.312  1.00  0.00     0.251 C 
HETATM   15  C   UNL     1      40.439  -9.306   1.985  1.00  0.00     0.126 C 
BRANCH  12  16
HETATM   16  C   UNL     1      40.443 -12.857   0.292  1.00  0.00     0.254 C 
BRANCH  16  17
HETATM   17  C   UNL     1      39.584 -13.281  -0.898  1.00  0.00    -0.023 A 
HETATM   18  C   UNL     1      38.410 -12.553  -1.184  1.00  0.00     0.009 A 
HETATM   19  C   UNL     1      37.567 -12.923  -2.235  1.00  0.00     0.001 A 
HETATM   20  C   UNL     1      37.878 -14.023  -3.025  1.00  0.00     0.000 A 
HETATM   21  C   UNL     1      39.037 -14.748  -2.772  1.00  0.00     0.001 A 
HETATM   22  C   UNL     1      39.884 -14.377  -1.724  1.00  0.00     0.009 A 
ENDBRANCH  16  17
BRANCH  16  23
HETATM   23  C   UNL     1      40.926 -13.945   1.251  1.00  0.00    -0.023 A 
HETATM   24  C   UNL     1      39.992 -14.896   1.715  1.00  0.00     0.009 A 
HETATM   25  C   UNL     1      40.378 -15.942   2.556  1.00  0.00     0.001 A 
HETATM   26  C   UNL     1      41.707 -16.060   2.950  1.00  0.00     0.000 A 
HETATM   27  C   UNL     1      42.644 -15.132   2.507  1.00  0.00     0.001 A 
HETATM   28  C   UNL     1      42.260 -14.085   1.664  1.00  0.00     0.009 A 
ENDBRANCH  16  23
ENDBRANCH  12  16
ENDBRANCH   1   9
BRANCH   3  29
HETATM   29  C   UNL     1      40.621 -12.669   5.857  1.00  0.00     0.245 C 
HETATM   30  N   UNL     1      41.770 -13.197   6.429  1.00  0.00    -0.325 N 
HETATM   31  H   UNL     1      42.341 -12.584   6.999  1.00  0.00     0.169 HD
HETATM   32  O   UNL     1      39.873 -13.248   5.069  1.00  0.00    -0.271 OA
BRANCH  30  33
HETATM   33  C   UNL     1      42.237 -14.528   6.341  1.00  0.00     0.035 A 
HETATM   34  C   UNL     1      41.439 -15.653   6.562  1.00  0.00     0.032 A 
HETATM   35  C   UNL     1      41.993 -16.936   6.506  1.00  0.00     0.039 A 
HETATM   36  C   UNL     1      43.342 -17.105   6.208  1.00  0.00     0.076 A 
HETATM   37  C   UNL     1      44.153 -15.993   5.999  1.00  0.00     0.039 A 
HETATM   38  C   UNL     1      43.600 -14.709   6.059  1.00  0.00     0.032 A 
BRANCH  36  39
HETATM   39  O   UNL     1      43.834 -18.389   6.230  1.00  0.00    -0.311 OA
BRANCH  39  40
HETATM   40  C   UNL     1      43.889 -19.078   5.039  1.00  0.00     0.076 A 
HETATM   41  C   UNL     1      43.874 -20.472   5.129  1.00  0.00     0.037 A 
HETATM   42  C   UNL     1      43.876 -21.246   3.968  1.00  0.00     0.003 A 
HETATM   43  C   UNL     1      43.881 -20.629   2.719  1.00  0.00     0.000 A 
HETATM   44  C   UNL     1      43.875 -19.237   2.628  1.00  0.00     0.003 A 
HETATM   45  C   UNL     1      43.871 -18.459   3.787  1.00  0.00     0.037 A 
ENDBRANCH  39  40
ENDBRANCH  36  39
ENDBRANCH  30  33
ENDBRANCH   3  29
TORSDOF 8
ENDMDL
MODEL 2
REMARK VINA RESULT:     -10.1      2.688      7.407
REMARK  8 active torsions:
REMARK  status: ('A' for Active; 'I' for Inactive)
REMARK    1  A    between atoms: C_4  and  C_5 
REMARK    2  A    between atoms: C_5  and  N_6 
REMARK    3  A    between atoms: C_5  and  C_36 
REMARK    4  A    between atoms: N_10  and  C_11 
REMARK    5  A    between atoms: C_13  and  C_14 
REMARK       I    between atoms: C_14  and  N_15 
REMARK    6  A    between atoms: N_15  and  C_16 
REMARK    7  A    between atoms: C_19  and  O_20 
REMARK    8  A    between atoms: O_20  and  C_21 
ROOT
HETATM    1  C   UNL     1      40.092 -13.012   1.653  1.00  0.00     0.181 C 
HETATM    2  N   UNL     1      39.206 -12.550   2.565  1.00  0.00    -0.351 N 
HETATM    3  C   UNL     1      39.552 -11.343   3.301  1.00  0.00     0.185 C 
HETATM    4  C   UNL     1      40.153 -10.343   2.340  1.00  0.00     0.140 C 
HETATM    5  C   UNL     1      41.210 -11.016   1.498  1.00  0.00     0.248 C 
HETATM    6  O   UNL     1      42.186 -10.371   1.122  1.00  0.00    -0.271 OA
HETATM    7  N   UNL     1      41.032 -12.321   1.108  1.00  0.00    -0.185 NA
HETATM    8  H   UNL     1      38.760 -13.273   3.122  1.00  0.00     0.163 HD
ENDROOT
BRANCH   1   9
HETATM    9  N   UNL     1      39.912 -14.353   1.391  1.00  0.00    -0.250 NA
HETATM   10  C   UNL     1      39.535 -15.172   2.571  1.00  0.00     0.126 C 
HETATM   11  C   UNL     1      40.759 -15.428   3.477  1.00  0.00     0.251 C 
HETATM   12  N   UNL     1      41.847 -16.147   2.673  1.00  0.00    -0.057 N 
HETATM   13  H   UNL     1      41.425 -17.010   2.320  1.00  0.00     0.281 HD
HETATM   14  C   UNL     1      42.226 -15.351   1.428  1.00  0.00     0.251 C 
HETATM   15  C   UNL     1      40.970 -15.020   0.589  1.00  0.00     0.126 C 
BRANCH  12  16
HETATM   16  C   UNL     1      43.011 -16.626   3.544  1.00  0.00     0.254 C 
BRANCH  16  17
HETATM   17  C   UNL     1      43.378 -18.104   3.428  1.00  0.00    -0.023 A 
HETATM   18  C   UNL     1      43.029 -18.802   2.253  1.00  0.00     0.009 A 
HETATM   19  C   UNL     1      43.304 -20.165   2.110  1.00  0.00     0.001 A 
HETATM   20  C   UNL     1      43.935 -20.859   3.135  1.00  0.00     0.000 A 
HETATM   21  C   UNL     1      44.301 -20.191   4.298  1.00  0.00     0.001 A 
HETATM   22  C   UNL     1      44.031 -18.827   4.440  1.00  0.00     0.009 A 
ENDBRANCH  16  17
BRANCH  16  23
HETATM   23  C   UNL     1      42.957 -16.009   4.942  1.00  0.00    -0.023 A 
HETATM   24  C   UNL     1      42.157 -16.634   5.923  1.00  0.00     0.009 A 
HETATM   25  C   UNL     1      42.100 -16.147   7.230  1.00  0.00     0.001 A 
HETATM   26  C   UNL     1      42.842 -15.026   7.585  1.00  0.00     0.000 A 
HETATM   27  C   UNL     1      43.636 -14.392   6.635  1.00  0.00     0.001 A 
HETATM   28  C   UNL     1      43.695 -14.879   5.324  1.00  0.00     0.009 A 
ENDBRANCH  16  23
ENDBRANCH  12  16
ENDBRANCH   1   9
BRANCH   3  29
HETATM   29  C   UNL     1      40.494 -11.672   4.487  1.00  0.00     0.245 C 
HETATM   30  N   UNL     1      41.416 -10.668   4.742  1.00  0.00    -0.325 N 
HETATM   31  H   UNL     1      41.472  -9.897   4.086  1.00  0.00     0.169 HD
HETATM   32  O   UNL     1      40.364 -12.716   5.128  1.00  0.00    -0.271 OA
BRANCH  30  33
HETATM   33  C   UNL     1      42.289 -10.566   5.849  1.00  0.00     0.035 A 
HETATM   34  C   UNL     1      43.610 -11.021   5.848  1.00  0.00     0.032 A 
HETATM   35  C   UNL     1      44.391 -10.928   7.005  1.00  0.00     0.039 A 
HETATM   36  C   UNL     1      43.866 -10.360   8.162  1.00  0.00     0.076 A 
HETATM   37  C   UNL     1      42.547  -9.915   8.182  1.00  0.00     0.039 A 
HETATM   38  C   UNL     1      41.764 -10.011   7.027  1.00  0.00     0.032 A 
BRANCH  36  39
HETATM   39  O   UNL     1      44.667 -10.356   9.279  1.00  0.00    -0.311 OA
BRANCH  39  40
HETATM   40  C   UNL     1      44.097  -9.999  10.481  1.00  0.00     0.076 A 
HETATM   41  C   UNL     1      43.972  -8.630  10.725  1.00  0.00     0.037 A 
HETATM   42  C   UNL     1      43.359  -8.183  11.897  1.00  0.00     0.003 A 
HETATM   43  C   UNL     1      42.861  -9.103  12.817  1.00  0.00     0.000 A 
HETATM   44  C   UNL     1      42.967 -10.471  12.564  1.00  0.00     0.003 A 
HETATM   45  C   UNL     1      43.577 -10.922  11.392  1.00  0.00     0.037 A 
ENDBRANCH  39  40
ENDBRANCH  36  39
ENDBRANCH  30  33
ENDBRANCH   3  29
TORSDOF 8
ENDMDL
MODEL 3
REMARK VINA RESULT:     -10.1      0.575      2.968
REMARK  8 active torsions:
REMARK  status: ('A' for Active; 'I' for Inactive)
REMARK    1  A    between atoms: C_4  and  C_5 
REMARK    2  A    between atoms: C_5  and  N_6 
REMARK    3  A    between atoms: C_5  and  C_36 
REMARK    4  A    between atoms: N_10  and  C_11 
REMARK    5  A    between atoms: C_13  and  C_14 
REMARK       I    between atoms: C_14  and  N_15 
REMARK    6  A    between atoms: N_15  and  C_16 
REMARK    7  A    between atoms: C_19  and  O_20 
REMARK    8  A    between atoms: O_20  and  C_21 
ROOT
HETATM    1  C   UNL     1      40.458  -9.799   4.389  1.00  0.00     0.181 C 
HETATM    2  N   UNL     1      39.499 -10.404   5.128  1.00  0.00    -0.351 N 
HETATM    3  C   UNL     1      39.919 -11.194   6.276  1.00  0.00     0.185 C 
HETATM    4  C   UNL     1      41.001 -10.441   7.015  1.00  0.00     0.140 C 
HETATM    5  C   UNL     1      42.044  -9.956   6.038  1.00  0.00     0.248 C 
HETATM    6  O   UNL     1      43.217  -9.876   6.394  1.00  0.00    -0.271 OA
HETATM    7  N   UNL     1      41.656  -9.546   4.784  1.00  0.00    -0.185 NA
HETATM    8  H   UNL     1      38.745 -10.814   4.584  1.00  0.00     0.163 HD
ENDROOT
BRANCH   1   9
HETATM    9  N   UNL     1      40.023  -9.513   3.114  1.00  0.00    -0.250 NA
HETATM   10  C   UNL     1      38.659 -10.006   2.795  1.00  0.00     0.126 C 
HETATM   11  C   UNL     1      38.671 -11.530   2.538  1.00  0.00     0.251 C 
HETATM   12  N   UNL     1      39.620 -11.843   1.378  1.00  0.00    -0.057 N 
HETATM   13  H   UNL     1      39.284 -11.306   0.573  1.00  0.00     0.281 HD
HETATM   14  C   UNL     1      41.021 -11.309   1.655  1.00  0.00     0.251 C 
HETATM   15  C   UNL     1      40.972  -9.805   2.009  1.00  0.00     0.126 C 
BRANCH  12  16
HETATM   16  C   UNL     1      39.535 -13.301   0.918  1.00  0.00     0.254 C 
BRANCH  16  17
HETATM   17  C   UNL     1      40.564 -14.259   1.515  1.00  0.00    -0.023 A 
HETATM   18  C   UNL     1      40.120 -15.280   2.381  1.00  0.00     0.009 A 
HETATM   19  C   UNL     1      41.022 -16.159   2.987  1.00  0.00     0.001 A 
HETATM   20  C   UNL     1      42.385 -16.039   2.741  1.00  0.00     0.000 A 
HETATM   21  C   UNL     1      42.845 -15.050   1.881  1.00  0.00     0.001 A 
HETATM   22  C   UNL     1      41.944 -14.173   1.270  1.00  0.00     0.009 A 
ENDBRANCH  16  17
BRANCH  16  23
HETATM   23  C   UNL     1      39.248 -13.401  -0.580  1.00  0.00    -0.023 A 
HETATM   24  C   UNL     1      39.406 -14.653  -1.213  1.00  0.00     0.009 A 
HETATM   25  C   UNL     1      39.116 -14.823  -2.568  1.00  0.00     0.001 A 
HETATM   26  C   UNL     1      38.661 -13.744  -3.320  1.00  0.00     0.000 A 
HETATM   27  C   UNL     1      38.501 -12.500  -2.718  1.00  0.00     0.001 A 
HETATM   28  C   UNL     1      38.790 -12.329  -1.360  1.00  0.00     0.009 A 
ENDBRANCH  16  23
ENDBRANCH  12  16
ENDBRANCH   1   9
BRANCH   3  29
HETATM   29  C   UNL     1      40.372 -12.609   5.834  1.00  0.00     0.245 C 
HETATM   30  N   UNL     1      41.517 -13.041   6.487  1.00  0.00    -0.325 N 
HETATM   31  H   UNL     1      42.005 -12.377   7.079  1.00  0.00     0.169 HD
HETATM   32  O   UNL     1      39.721 -13.255   5.012  1.00  0.00    -0.271 OA
BRANCH  30  33
HETATM   33  C   UNL     1      42.086 -14.334   6.457  1.00  0.00     0.035 A 
HETATM   34  C   UNL     1      41.359 -15.512   6.643  1.00  0.00     0.032 A 
HETATM   35  C   UNL     1      42.009 -16.751   6.649  1.00  0.00     0.039 A 
HETATM   36  C   UNL     1      43.385 -16.823   6.448  1.00  0.00     0.076 A 
HETATM   37  C   UNL     1      44.124 -15.656   6.275  1.00  0.00     0.039 A 
HETATM   38  C   UNL     1      43.475 -14.417   6.273  1.00  0.00     0.032 A 
BRANCH  36  39
HETATM   39  O   UNL     1      43.967 -18.066   6.527  1.00  0.00    -0.311 OA
BRANCH  39  40
HETATM   40  C   UNL     1      43.963 -18.853   5.398  1.00  0.00     0.076 A 
HETATM   41  C   UNL     1      43.753 -20.220   5.595  1.00  0.00     0.037 A 
HETATM   42  C   UNL     1      43.684 -21.081   4.500  1.00  0.00     0.003 A 
HETATM   43  C   UNL     1      43.812 -20.576   3.207  1.00  0.00     0.000 A 
HETATM   44  C   UNL     1      44.001 -19.208   3.008  1.00  0.00     0.003 A 
HETATM   45  C   UNL     1      44.069 -18.343   4.101  1.00  0.00     0.037 A 
ENDBRANCH  39  40
ENDBRANCH  36  39
ENDBRANCH  30  33
ENDBRANCH   3  29
TORSDOF 8
ENDMDL
MODEL 4
REMARK VINA RESULT:      -9.4      4.242      8.681
REMARK  8 active torsions:
REMARK  status: ('A' for Active; 'I' for Inactive)
REMARK    1  A    between atoms: C_4  and  C_5 
REMARK    2  A    between atoms: C_5  and  N_6 
REMARK    3  A    between atoms: C_5  and  C_36 
REMARK    4  A    between atoms: N_10  and  C_11 
REMARK    5  A    between atoms: C_13  and  C_14 
REMARK       I    between atoms: C_14  and  N_15 
REMARK    6  A    between atoms: N_15  and  C_16 
REMARK    7  A    between atoms: C_19  and  O_20 
REMARK    8  A    between atoms: O_20  and  C_21 
ROOT
HETATM    1  C   UNL     1      39.270  -8.638   7.333  1.00  0.00     0.181 C 
HETATM    2  N   UNL     1      40.578  -8.306   7.232  1.00  0.00    -0.351 N 
HETATM    3  C   UNL     1      41.356  -8.915   6.163  1.00  0.00     0.185 C 
HETATM    4  C   UNL     1      40.531  -8.905   4.896  1.00  0.00     0.140 C 
HETATM    5  C   UNL     1      39.146  -9.430   5.184  1.00  0.00     0.248 C 
HETATM    6  O   UNL     1      38.542 -10.054   4.315  1.00  0.00    -0.271 OA
HETATM    7  N   UNL     1      38.553  -9.144   6.391  1.00  0.00    -0.185 NA
HETATM    8  H   UNL     1      41.063  -8.235   8.122  1.00  0.00     0.163 HD
ENDROOT
BRANCH   1   9
HETATM    9  N   UNL     1      38.777  -8.417   8.600  1.00  0.00    -0.250 NA
HETATM   10  C   UNL     1      38.992  -7.043   9.121  1.00  0.00     0.126 C 
HETATM   11  C   UNL     1      40.458  -6.847   9.567  1.00  0.00     0.251 C 
HETATM   12  N   UNL     1      40.802  -7.873  10.652  1.00  0.00    -0.057 N 
HETATM   13  H   UNL     1      40.131  -7.728  11.412  1.00  0.00     0.281 HD
HETATM   14  C   UNL     1      40.547  -9.295  10.163  1.00  0.00     0.251 C 
HETATM   15  C   UNL     1      39.105  -9.439   9.627  1.00  0.00     0.126 C 
BRANCH  12  16
HETATM   16  C   UNL     1      42.164  -7.618  11.300  1.00  0.00     0.254 C 
BRANCH  16  17
HETATM   17  C   UNL     1      43.372  -8.238  10.601  1.00  0.00    -0.023 A 
HETATM   18  C   UNL     1      43.806  -7.688   9.377  1.00  0.00     0.009 A 
HETATM   19  C   UNL     1      44.880  -8.241   8.674  1.00  0.00     0.001 A 
HETATM   20  C   UNL     1      45.545  -9.352   9.179  1.00  0.00     0.000 A 
HETATM   21  C   UNL     1      45.146  -9.904  10.390  1.00  0.00     0.001 A 
HETATM   22  C   UNL     1      44.075  -9.349  11.097  1.00  0.00     0.009 A 
ENDBRANCH  16  17
BRANCH  16  23
HETATM   23  C   UNL     1      42.089  -7.719  12.824  1.00  0.00    -0.023 A 
HETATM   24  C   UNL     1      42.923  -6.881  13.596  1.00  0.00     0.009 A 
HETATM   25  C   UNL     1      42.870  -6.892  14.991  1.00  0.00     0.001 A 
HETATM   26  C   UNL     1      41.982  -7.741  15.645  1.00  0.00     0.000 A 
HETATM   27  C   UNL     1      41.154  -8.578  14.905  1.00  0.00     0.001 A 
HETATM   28  C   UNL     1      41.204  -8.567  13.507  1.00  0.00     0.009 A 
ENDBRANCH  16  23
ENDBRANCH  12  16
ENDBRANCH   1   9
BRANCH   3  29
HETATM   29  C   UNL     1      41.821 -10.339   6.562  1.00  0.00     0.245 C 
HETATM   30  N   UNL     1      41.174 -11.339   5.852  1.00  0.00    -0.325 N 
HETATM   31  H   UNL     1      40.404 -11.072   5.249  1.00  0.00     0.169 HD
HETATM   32  O   UNL     1      42.706 -10.503   7.402  1.00  0.00    -0.271 OA
BRANCH  30  33
HETATM   33  C   UNL     1      41.484 -12.718   5.836  1.00  0.00     0.035 A 
HETATM   34  C   UNL     1      40.575 -13.727   6.165  1.00  0.00     0.032 A 
HETATM   35  C   UNL     1      40.978 -15.067   6.174  1.00  0.00     0.039 A 
HETATM   36  C   UNL     1      42.285 -15.409   5.835  1.00  0.00     0.076 A 
HETATM   37  C   UNL     1      43.205 -14.413   5.520  1.00  0.00     0.039 A 
HETATM   38  C   UNL     1      42.803 -13.072   5.514  1.00  0.00     0.032 A 
BRANCH  36  39
HETATM   39  O   UNL     1      42.630 -16.736   5.925  1.00  0.00    -0.311 OA
BRANCH  39  40
HETATM   40  C   UNL     1      43.011 -17.383   4.771  1.00  0.00     0.076 A 
HETATM   41  C   UNL     1      43.918 -18.435   4.919  1.00  0.00     0.037 A 
HETATM   42  C   UNL     1      44.317 -19.175   3.806  1.00  0.00     0.003 A 
HETATM   43  C   UNL     1      43.801 -18.873   2.547  1.00  0.00     0.000 A 
HETATM   44  C   UNL     1      42.880 -17.835   2.400  1.00  0.00     0.003 A 
HETATM   45  C   UNL     1      42.477 -17.094   3.512  1.00  0.00     0.037 A 
ENDBRANCH  39  40
ENDBRANCH  36  39
ENDBRANCH  30  33
ENDBRANCH   3  29
TORSDOF 8
ENDMDL
MODEL 5
REMARK VINA RESULT:      -9.2      3.863      8.038
REMARK  8 active torsions:
REMARK  status: ('A' for Active; 'I' for Inactive)
REMARK    1  A    between atoms: C_4  and  C_5 
REMARK    2  A    between atoms: C_5  and  N_6 
REMARK    3  A    between atoms: C_5  and  C_36 
REMARK    4  A    between atoms: N_10  and  C_11 
REMARK    5  A    between atoms: C_13  and  C_14 
REMARK       I    between atoms: C_14  and  N_15 
REMARK    6  A    between atoms: N_15  and  C_16 
REMARK    7  A    between atoms: C_19  and  O_20 
REMARK    8  A    between atoms: O_20  and  C_21 
ROOT
HETATM    1  C   UNL     1      39.267 -10.197   3.465  1.00  0.00     0.181 C 
HETATM    2  N   UNL     1      38.238  -9.997   4.320  1.00  0.00    -0.351 N 
HETATM    3  C   UNL     1      38.434  -9.059   5.415  1.00  0.00     0.185 C 
HETATM    4  C   UNL     1      39.153  -7.839   4.887  1.00  0.00     0.140 C 
HETATM    5  C   UNL     1      40.344  -8.264   4.065  1.00  0.00     0.248 C 
HETATM    6  O   UNL     1      41.351  -7.559   4.047  1.00  0.00    -0.271 OA
HETATM    7  N   UNL     1      40.263  -9.399   3.295  1.00  0.00    -0.185 NA
HETATM    8  H   UNL     1      37.729 -10.840   4.570  1.00  0.00     0.163 HD
ENDROOT
BRANCH   1   9
HETATM    9  N   UNL     1      39.165 -11.403   2.806  1.00  0.00    -0.250 NA
HETATM   10  C   UNL     1      39.136 -12.595   3.690  1.00  0.00     0.126 C 
HETATM   11  C   UNL     1      40.547 -12.915   4.230  1.00  0.00     0.251 C 
HETATM   12  N   UNL     1      41.497 -13.165   3.054  1.00  0.00    -0.057 N 
HETATM   13  H   UNL     1      41.094 -13.935   2.512  1.00  0.00     0.281 HD
HETATM   14  C   UNL     1      41.516 -11.975   2.101  1.00  0.00     0.251 C 
HETATM   15  C   UNL     1      40.081 -11.610   1.655  1.00  0.00     0.126 C 
BRANCH  12  16
HETATM   16  C   UNL     1      42.863 -13.694   3.497  1.00  0.00     0.254 C 
BRANCH  16  17
HETATM   17  C   UNL     1      43.102 -15.190   3.309  1.00  0.00    -0.023 A 
HETATM   18  C   UNL     1      43.019 -15.735   2.010  1.00  0.00     0.009 A 
HETATM   19  C   UNL     1      43.188 -17.104   1.787  1.00  0.00     0.001 A 
HETATM   20  C   UNL     1      43.447 -17.958   2.852  1.00  0.00     0.000 A 
HETATM   21  C   UNL     1      43.548 -17.444   4.139  1.00  0.00     0.001 A 
HETATM   22  C   UNL     1      43.384 -16.074   4.364  1.00  0.00     0.009 A 
ENDBRANCH  16  17
BRANCH  16  23
HETATM   23  C   UNL     1      43.314 -13.056   4.812  1.00  0.00    -0.023 A 
HETATM   24  C   UNL     1      43.890 -11.768   4.772  1.00  0.00     0.009 A 
HETATM   25  C   UNL     1      44.280 -11.112   5.941  1.00  0.00     0.001 A 
HETATM   26  C   UNL     1      44.101 -11.729   7.175  1.00  0.00     0.000 A 
HETATM   27  C   UNL     1      43.538 -13.000   7.238  1.00  0.00     0.001 A 
HETATM   28  C   UNL     1      43.146 -13.658   6.068  1.00  0.00     0.009 A 
ENDBRANCH  16  23
ENDBRANCH  12  16
ENDBRANCH   1   9
BRANCH   3  29
HETATM   29  C   UNL     1      39.187  -9.734   6.590  1.00  0.00     0.245 C 
HETATM   30  N   UNL     1      39.898  -8.831   7.368  1.00  0.00    -0.325 N 
HETATM   31  H   UNL     1      39.960  -7.872   7.045  1.00  0.00     0.169 HD
HETATM   32  O   UNL     1      39.094 -10.945   6.789  1.00  0.00    -0.271 OA
BRANCH  30  33
HETATM   33  C   UNL     1      40.536  -9.081   8.604  1.00  0.00     0.035 A 
HETATM   34  C   UNL     1      41.919  -9.212   8.757  1.00  0.00     0.032 A 
HETATM   35  C   UNL     1      42.467  -9.511  10.009  1.00  0.00     0.039 A 
HETATM   36  C   UNL     1      41.640  -9.659  11.120  1.00  0.00     0.076 A 
HETATM   37  C   UNL     1      40.259  -9.544  10.979  1.00  0.00     0.039 A 
HETATM   38  C   UNL     1      39.711  -9.250   9.726  1.00  0.00     0.032 A 
BRANCH  36  39
HETATM   39  O   UNL     1      42.238 -10.012  12.306  1.00  0.00    -0.311 OA
BRANCH  39  40
HETATM   40  C   UNL     1      42.299  -9.066  13.304  1.00  0.00     0.076 A 
HETATM   41  C   UNL     1      43.243  -8.050  13.139  1.00  0.00     0.037 A 
HETATM   42  C   UNL     1      43.336  -7.023  14.079  1.00  0.00     0.003 A 
HETATM   43  C   UNL     1      42.478  -7.004  15.177  1.00  0.00     0.000 A 
HETATM   44  C   UNL     1      41.521  -8.007  15.333  1.00  0.00     0.003 A 
HETATM   45  C   UNL     1      41.423  -9.034  14.393  1.00  0.00     0.037 A 
ENDBRANCH  39  40
ENDBRANCH  36  39
ENDBRANCH  30  33
ENDBRANCH   3  29
TORSDOF 8
ENDMDL
MODEL 6
REMARK VINA RESULT:      -9.1      1.752      6.741
REMARK  8 active torsions:
REMARK  status: ('A' for Active; 'I' for Inactive)
REMARK    1  A    between atoms: C_4  and  C_5 
REMARK    2  A    between atoms: C_5  and  N_6 
REMARK    3  A    between atoms: C_5  and  C_36 
REMARK    4  A    between atoms: N_10  and  C_11 
REMARK    5  A    between atoms: C_13  and  C_14 
REMARK       I    between atoms: C_14  and  N_15 
REMARK    6  A    between atoms: N_15  and  C_16 
REMARK    7  A    between atoms: C_19  and  O_20 
REMARK    8  A    between atoms: O_20  and  C_21 
ROOT
HETATM    1  C   UNL     1      41.957 -12.844   6.720  1.00  0.00     0.181 C 
HETATM    2  N   UNL     1      42.307 -11.540   6.787  1.00  0.00    -0.351 N 
HETATM    3  C   UNL     1      41.400 -10.558   6.211  1.00  0.00     0.185 C 
HETATM    4  C   UNL     1      39.983 -10.924   6.592  1.00  0.00     0.140 C 
HETATM    5  C   UNL     1      39.744 -12.389   6.325  1.00  0.00     0.248 C 
HETATM    6  O   UNL     1      38.625 -12.768   5.985  1.00  0.00    -0.271 OA
HETATM    7  N   UNL     1      40.763 -13.288   6.529  1.00  0.00    -0.185 NA
HETATM    8  H   UNL     1      43.292 -11.359   6.614  1.00  0.00     0.163 HD
ENDROOT
BRANCH   1   9
HETATM    9  N   UNL     1      43.047 -13.679   6.832  1.00  0.00    -0.250 NA
HETATM   10  C   UNL     1      44.092 -13.480   5.796  1.00  0.00     0.126 C 
HETATM   11  C   UNL     1      43.655 -14.095   4.448  1.00  0.00     0.251 C 
HETATM   12  N   UNL     1      43.388 -15.592   4.634  1.00  0.00    -0.057 N 
HETATM   13  H   UNL     1      44.255 -16.000   4.996  1.00  0.00     0.281 HD
HETATM   14  C   UNL     1      42.350 -15.833   5.725  1.00  0.00     0.251 C 
HETATM   15  C   UNL     1      42.759 -15.122   7.035  1.00  0.00     0.126 C 
BRANCH  12  16
HETATM   16  C   UNL     1      43.154 -16.322   3.309  1.00  0.00     0.254 C 
BRANCH  16  17
HETATM   17  C   UNL     1      41.951 -15.863   2.488  1.00  0.00    -0.023 A 
HETATM   18  C   UNL     1      42.174 -15.265   1.230  1.00  0.00     0.009 A 
HETATM   19  C   UNL     1      41.113 -14.790   0.455  1.00  0.00     0.001 A 
HETATM   20  C   UNL     1      39.807 -14.904   0.916  1.00  0.00     0.000 A 
HETATM   21  C   UNL     1      39.560 -15.501   2.147  1.00  0.00     0.001 A 
HETATM   22  C   UNL     1      40.619 -15.982   2.921  1.00  0.00     0.009 A 
ENDBRANCH  16  17
BRANCH  16  23
HETATM   23  C   UNL     1      43.396 -17.826   3.447  1.00  0.00    -0.023 A 
HETATM   24  C   UNL     1      43.085 -18.660   2.351  1.00  0.00     0.009 A 
HETATM   25  C   UNL     1      43.325 -20.035   2.395  1.00  0.00     0.001 A 
HETATM   26  C   UNL     1      43.880 -20.605   3.536  1.00  0.00     0.000 A 
HETATM   27  C   UNL     1      44.191 -19.803   4.629  1.00  0.00     0.001 A 
HETATM   28  C   UNL     1      43.953 -18.425   4.586  1.00  0.00     0.009 A 
ENDBRANCH  16  23
ENDBRANCH  12  16
ENDBRANCH   1   9
BRANCH   3  29
HETATM   29  C   UNL     1      41.598 -10.460   4.677  1.00  0.00     0.245 C 
HETATM   30  N   UNL     1      40.585 -11.077   3.958  1.00  0.00    -0.325 N 
HETATM   31  H   UNL     1      39.900 -11.618   4.473  1.00  0.00     0.169 HD
HETATM   32  O   UNL     1      42.555  -9.848   4.200  1.00  0.00    -0.271 OA
BRANCH  30  33
HETATM   33  C   UNL     1      40.363 -11.016   2.564  1.00  0.00     0.035 A 
HETATM   34  C   UNL     1      39.139 -10.678   1.981  1.00  0.00     0.032 A 
HETATM   35  C   UNL     1      38.989 -10.692   0.590  1.00  0.00     0.039 A 
HETATM   36  C   UNL     1      40.066 -11.023  -0.228  1.00  0.00     0.076 A 
HETATM   37  C   UNL     1      41.288 -11.375   0.339  1.00  0.00     0.039 A 
HETATM   38  C   UNL     1      41.437 -11.365   1.730  1.00  0.00     0.032 A 
BRANCH  36  39
HETATM   39  O   UNL     1      39.834 -11.076  -1.582  1.00  0.00    -0.311 OA
BRANCH  39  40
HETATM   40  C   UNL     1      39.298 -12.234  -2.099  1.00  0.00     0.076 A 
HETATM   41  C   UNL     1      37.911 -12.257  -2.262  1.00  0.00     0.037 A 
HETATM   42  C   UNL     1      37.292 -13.373  -2.827  1.00  0.00     0.003 A 
HETATM   43  C   UNL     1      38.060 -14.461  -3.239  1.00  0.00     0.000 A 
HETATM   44  C   UNL     1      39.447 -14.431  -3.095  1.00  0.00     0.003 A 
HETATM   45  C   UNL     1      40.070 -13.315  -2.533  1.00  0.00     0.037 A 
ENDBRANCH  39  40
ENDBRANCH  36  39
ENDBRANCH  30  33
ENDBRANCH   3  29
TORSDOF 8
ENDMDL
MODEL 7
REMARK VINA RESULT:      -9.1      2.245      7.192
REMARK  8 active torsions:
REMARK  status: ('A' for Active; 'I' for Inactive)
REMARK    1  A    between atoms: C_4  and  C_5 
REMARK    2  A    between atoms: C_5  and  N_6 
REMARK    3  A    between atoms: C_5  and  C_36 
REMARK    4  A    between atoms: N_10  and  C_11 
REMARK    5  A    between atoms: C_13  and  C_14 
REMARK       I    between atoms: C_14  and  N_15 
REMARK    6  A    between atoms: N_15  and  C_16 
REMARK    7  A    between atoms: C_19  and  O_20 
REMARK    8  A    between atoms: O_20  and  C_21 
ROOT
HETATM    1  C   UNL     1      42.218 -10.626   6.115  1.00  0.00     0.181 C 
HETATM    2  N   UNL     1      42.460  -9.536   5.352  1.00  0.00    -0.351 N 
HETATM    3  C   UNL     1      41.321  -8.743   4.916  1.00  0.00     0.185 C 
HETATM    4  C   UNL     1      40.363  -8.588   6.075  1.00  0.00     0.140 C 
HETATM    5  C   UNL     1      40.118  -9.931   6.717  1.00  0.00     0.248 C 
HETATM    6  O   UNL     1      39.022 -10.172   7.219  1.00  0.00    -0.271 OA
HETATM    7  N   UNL     1      41.145 -10.841   6.792  1.00  0.00    -0.185 NA
HETATM    8  H   UNL     1      43.180  -9.666   4.648  1.00  0.00     0.163 HD
ENDROOT
BRANCH   1   9
HETATM    9  N   UNL     1      43.251 -11.537   6.057  1.00  0.00    -0.250 NA
HETATM   10  C   UNL     1      43.768 -11.805   4.691  1.00  0.00     0.126 C 
HETATM   11  C   UNL     1      42.803 -12.724   3.908  1.00  0.00     0.251 C 
HETATM   12  N   UNL     1      42.629 -14.044   4.666  1.00  0.00    -0.057 N 
HETATM   13  H   UNL     1      43.566 -14.445   4.769  1.00  0.00     0.281 HD
HETATM   14  C   UNL     1      42.142 -13.799   6.090  1.00  0.00     0.251 C 
HETATM   15  C   UNL     1      43.067 -12.798   6.819  1.00  0.00     0.126 C 
BRANCH  12  16
HETATM   16  C   UNL     1      41.858 -15.093   3.862  1.00  0.00     0.254 C 
BRANCH  16  17
HETATM   17  C   UNL     1      42.572 -16.422   3.625  1.00  0.00    -0.023 A 
HETATM   18  C   UNL     1      43.551 -16.844   4.548  1.00  0.00     0.009 A 
HETATM   19  C   UNL     1      44.263 -18.031   4.358  1.00  0.00     0.001 A 
HETATM   20  C   UNL     1      44.013 -18.823   3.245  1.00  0.00     0.000 A 
HETATM   21  C   UNL     1      43.044 -18.437   2.327  1.00  0.00     0.001 A 
HETATM   22  C   UNL     1      42.327 -17.253   2.518  1.00  0.00     0.009 A 
ENDBRANCH  16  17
BRANCH  16  23
HETATM   23  C   UNL     1      41.109 -14.462   2.687  1.00  0.00    -0.023 A 
HETATM   24  C   UNL     1      39.862 -13.849   2.936  1.00  0.00     0.009 A 
HETATM   25  C   UNL     1      39.150 -13.216   1.916  1.00  0.00     0.001 A 
HETATM   26  C   UNL     1      39.669 -13.181   0.626  1.00  0.00     0.000 A 
HETATM   27  C   UNL     1      40.895 -13.781   0.357  1.00  0.00     0.001 A 
HETATM   28  C   UNL     1      41.611 -14.415   1.378  1.00  0.00     0.009 A 
ENDBRANCH  16  23
ENDBRANCH  12  16
ENDBRANCH   1   9
BRANCH   3  29
HETATM   29  C   UNL     1      40.652  -9.379   3.670  1.00  0.00     0.245 C 
HETATM   30  N   UNL     1      40.915  -8.684   2.499  1.00  0.00    -0.325 N 
HETATM   31  H   UNL     1      41.397  -7.795   2.572  1.00  0.00     0.169 HD
HETATM   32  O   UNL     1      39.999 -10.419   3.764  1.00  0.00    -0.271 OA
BRANCH  30  33
HETATM   33  C   UNL     1      40.617  -9.086   1.177  1.00  0.00     0.035 A 
HETATM   34  C   UNL     1      39.383  -8.878   0.556  1.00  0.00     0.032 A 
HETATM   35  C   UNL     1      39.153  -9.354  -0.739  1.00  0.00     0.039 A 
HETATM   36  C   UNL     1      40.161 -10.022  -1.430  1.00  0.00     0.076 A 
HETATM   37  C   UNL     1      41.391 -10.248  -0.819  1.00  0.00     0.039 A 
HETATM   38  C   UNL     1      41.620  -9.775   0.478  1.00  0.00     0.032 A 
BRANCH  36  39
HETATM   39  O   UNL     1      39.848 -10.516  -2.674  1.00  0.00    -0.311 OA
BRANCH  39  40
HETATM   40  C   UNL     1      39.335 -11.792  -2.750  1.00  0.00     0.076 A 
HETATM   41  C   UNL     1      40.252 -12.814  -3.005  1.00  0.00     0.037 A 
HETATM   42  C   UNL     1      39.823 -14.141  -3.048  1.00  0.00     0.003 A 
HETATM   43  C   UNL     1      38.482 -14.448  -2.825  1.00  0.00     0.000 A 
HETATM   44  C   UNL     1      37.569 -13.429  -2.550  1.00  0.00     0.003 A 
HETATM   45  C   UNL     1      37.995 -12.101  -2.504  1.00  0.00     0.037 A 
ENDBRANCH  39  40
ENDBRANCH  36  39
ENDBRANCH  30  33
ENDBRANCH   3  29
TORSDOF 8
ENDMDL
MODEL 8
REMARK VINA RESULT:      -9.0      3.105      8.630
REMARK  8 active torsions:
REMARK  status: ('A' for Active; 'I' for Inactive)
REMARK    1  A    between atoms: C_4  and  C_5 
REMARK    2  A    between atoms: C_5  and  N_6 
REMARK    3  A    between atoms: C_5  and  C_36 
REMARK    4  A    between atoms: N_10  and  C_11 
REMARK    5  A    between atoms: C_13  and  C_14 
REMARK       I    between atoms: C_14  and  N_15 
REMARK    6  A    between atoms: N_15  and  C_16 
REMARK    7  A    between atoms: C_19  and  O_20 
REMARK    8  A    between atoms: O_20  and  C_21 
ROOT
HETATM    1  C   UNL     1      41.318 -16.117   4.477  1.00  0.00     0.181 C 
HETATM    2  N   UNL     1      40.025 -16.047   4.084  1.00  0.00    -0.351 N 
HETATM    3  C   UNL     1      39.753 -15.819   2.673  1.00  0.00     0.185 C 
HETATM    4  C   UNL     1      40.689 -16.676   1.852  1.00  0.00     0.140 C 
HETATM    5  C   UNL     1      42.101 -16.521   2.360  1.00  0.00     0.248 C 
HETATM    6  O   UNL     1      43.041 -16.600   1.572  1.00  0.00    -0.271 OA
HETATM    7  N   UNL     1      42.321 -16.362   3.707  1.00  0.00    -0.185 NA
HETATM    8  H   UNL     1      39.419 -15.538   4.721  1.00  0.00     0.163 HD
ENDROOT
BRANCH   1   9
HETATM    9  N   UNL     1      41.466 -15.846   5.820  1.00  0.00    -0.250 NA
HETATM   10  C   UNL     1      40.442 -14.930   6.386  1.00  0.00     0.126 C 
HETATM   11  C   UNL     1      40.723 -13.468   5.974  1.00  0.00     0.251 C 
HETATM   12  N   UNL     1      42.115 -13.059   6.467  1.00  0.00    -0.057 N 
HETATM   13  H   UNL     1      42.115 -13.194   7.482  1.00  0.00     0.281 HD
HETATM   14  C   UNL     1      43.185 -14.008   5.939  1.00  0.00     0.251 C 
HETATM   15  C   UNL     1      42.829 -15.474   6.276  1.00  0.00     0.126 C 
BRANCH  12  16
HETATM   16  C   UNL     1      42.392 -11.565   6.288  1.00  0.00     0.254 C 
BRANCH  16  17
HETATM   17  C   UNL     1      42.036 -10.970   4.927  1.00  0.00    -0.023 A 
HETATM   18  C   UNL     1      41.075  -9.939   4.865  1.00  0.00     0.009 A 
HETATM   19  C   UNL     1      40.682  -9.388   3.643  1.00  0.00     0.001 A 
HETATM   20  C   UNL     1      41.241  -9.849   2.457  1.00  0.00     0.000 A 
HETATM   21  C   UNL     1      42.200 -10.854   2.493  1.00  0.00     0.001 A 
HETATM   22  C   UNL     1      42.598 -11.404   3.715  1.00  0.00     0.009 A 
ENDBRANCH  16  17
BRANCH  16  23
HETATM   23  C   UNL     1      43.725 -11.161   6.919  1.00  0.00    -0.023 A 
HETATM   24  C   UNL     1      43.720 -10.664   8.240  1.00  0.00     0.009 A 
HETATM   25  C   UNL     1      44.908 -10.320   8.890  1.00  0.00     0.001 A 
HETATM   26  C   UNL     1      46.125 -10.468   8.234  1.00  0.00     0.000 A 
HETATM   27  C   UNL     1      46.153 -10.953   6.930  1.00  0.00     0.001 A 
HETATM   28  C   UNL     1      44.965 -11.299   6.278  1.00  0.00     0.009 A 
ENDBRANCH  16  23
ENDBRANCH  12  16
ENDBRANCH   1   9
BRANCH   3  29
HETATM   29  C   UNL     1      39.866 -14.312   2.327  1.00  0.00     0.245 C 
HETATM   30  N   UNL     1      39.991 -14.076   0.966  1.00  0.00    -0.325 N 
HETATM   31  H   UNL     1      40.114 -14.875   0.355  1.00  0.00     0.169 HD
HETATM   32  O   UNL     1      39.805 -13.454   3.208  1.00  0.00    -0.271 OA
BRANCH  30  33
HETATM   33  C   UNL     1      39.933 -12.829   0.303  1.00  0.00     0.035 A 
HETATM   34  C   UNL     1      38.870 -11.930   0.421  1.00  0.00     0.032 A 
HETATM   35  C   UNL     1      38.866 -10.738  -0.311  1.00  0.00     0.039 A 
HETATM   36  C   UNL     1      39.934 -10.426  -1.149  1.00  0.00     0.076 A 
HETATM   37  C   UNL     1      40.994 -11.319  -1.286  1.00  0.00     0.039 A 
HETATM   38  C   UNL     1      40.995 -12.513  -0.557  1.00  0.00     0.032 A 
BRANCH  36  39
HETATM   39  O   UNL     1      39.838  -9.269  -1.884  1.00  0.00    -0.311 OA
BRANCH  39  40
HETATM   40  C   UNL     1      40.970  -8.497  -2.023  1.00  0.00     0.076 A 
HETATM   41  C   UNL     1      41.402  -8.259  -3.329  1.00  0.00     0.037 A 
HETATM   42  C   UNL     1      42.512  -7.445  -3.561  1.00  0.00     0.003 A 
HETATM   43  C   UNL     1      43.181  -6.859  -2.488  1.00  0.00     0.000 A 
HETATM   44  C   UNL     1      42.738  -7.079  -1.183  1.00  0.00     0.003 A 
HETATM   45  C   UNL     1      41.627  -7.891  -0.949  1.00  0.00     0.037 A 
ENDBRANCH  39  40
ENDBRANCH  36  39
ENDBRANCH  30  33
ENDBRANCH   3  29
TORSDOF 8
ENDMDL
MODEL 9
REMARK VINA RESULT:      -9.0      2.387      3.458
REMARK  8 active torsions:
REMARK  status: ('A' for Active; 'I' for Inactive)
REMARK    1  A    between atoms: C_4  and  C_5 
REMARK    2  A    between atoms: C_5  and  N_6 
REMARK    3  A    between atoms: C_5  and  C_36 
REMARK    4  A    between atoms: N_10  and  C_11 
REMARK    5  A    between atoms: C_13  and  C_14 
REMARK       I    between atoms: C_14  and  N_15 
REMARK    6  A    between atoms: N_15  and  C_16 
REMARK    7  A    between atoms: C_19  and  O_20 
REMARK    8  A    between atoms: O_20  and  C_21 
ROOT
HETATM    1  C   UNL     1      39.064  -9.403   3.307  1.00  0.00     0.181 C 
HETATM    2  N   UNL     1      38.331 -10.347   3.940  1.00  0.00    -0.351 N 
HETATM    3  C   UNL     1      39.042 -11.399   4.653  1.00  0.00     0.185 C 
HETATM    4  C   UNL     1      40.193 -10.779   5.412  1.00  0.00     0.140 C 
HETATM    5  C   UNL     1      40.967  -9.858   4.503  1.00  0.00     0.248 C 
HETATM    6  O   UNL     1      42.179  -9.729   4.660  1.00  0.00    -0.271 OA
HETATM    7  N   UNL     1      40.296  -9.123   3.555  1.00  0.00    -0.185 NA
HETATM    8  H   UNL     1      37.514 -10.662   3.425  1.00  0.00     0.163 HD
ENDROOT
BRANCH   1   9
HETATM    9  N   UNL     1      38.352  -8.782   2.304  1.00  0.00    -0.250 NA
HETATM   10  C   UNL     1      37.487  -9.687   1.504  1.00  0.00     0.126 C 
HETATM   11  C   UNL     1      38.330 -10.514   0.507  1.00  0.00     0.251 C 
HETATM   12  N   UNL     1      39.093  -9.567  -0.424  1.00  0.00    -0.057 N 
HETATM   13  H   UNL     1      38.389  -8.983  -0.886  1.00  0.00     0.281 HD
HETATM   14  C   UNL     1      39.957  -8.594   0.371  1.00  0.00     0.251 C 
HETATM   15  C   UNL     1      39.111  -7.851   1.430  1.00  0.00     0.126 C 
BRANCH  12  16
HETATM   16  C   UNL     1      39.788 -10.298  -1.575  1.00  0.00     0.254 C 
BRANCH  16  17
HETATM   17  C   UNL     1      39.558  -9.729  -2.974  1.00  0.00    -0.023 A 
HETATM   18  C   UNL     1      40.675  -9.345  -3.744  1.00  0.00     0.009 A 
HETATM   19  C   UNL     1      40.520  -8.781  -5.014  1.00  0.00     0.001 A 
HETATM   20  C   UNL     1      39.249  -8.592  -5.542  1.00  0.00     0.000 A 
HETATM   21  C   UNL     1      38.133  -8.976  -4.809  1.00  0.00     0.001 A 
HETATM   22  C   UNL     1      38.286  -9.544  -3.541  1.00  0.00     0.009 A 
ENDBRANCH  16  17
BRANCH  16  23
HETATM   23  C   UNL     1      39.721 -11.815  -1.398  1.00  0.00    -0.023 A 
HETATM   24  C   UNL     1      40.594 -12.424  -0.471  1.00  0.00     0.009 A 
HETATM   25  C   UNL     1      40.552 -13.798  -0.230  1.00  0.00     0.001 A 
HETATM   26  C   UNL     1      39.636 -14.594  -0.910  1.00  0.00     0.000 A 
HETATM   27  C   UNL     1      38.768 -14.016  -1.831  1.00  0.00     0.001 A 
HETATM   28  C   UNL     1      38.808 -12.639  -2.074  1.00  0.00     0.009 A 
ENDBRANCH  16  23
ENDBRANCH  12  16
ENDBRANCH   1   9
BRANCH   3  29
HETATM   29  C   UNL     1      39.501 -12.512   3.676  1.00  0.00     0.245 C 
HETATM   30  N   UNL     1      40.744 -13.037   3.999  1.00  0.00    -0.325 N 
HETATM   31  H   UNL     1      41.272 -12.587   4.738  1.00  0.00     0.169 HD
HETATM   32  O   UNL     1      38.778 -12.879   2.750  1.00  0.00    -0.271 OA
BRANCH  30  33
HETATM   33  C   UNL     1      41.367 -14.173   3.435  1.00  0.00     0.035 A 
HETATM   34  C   UNL     1      40.823 -15.460   3.468  1.00  0.00     0.032 A 
HETATM   35  C   UNL     1      41.530 -16.541   2.931  1.00  0.00     0.039 A 
HETATM   36  C   UNL     1      42.774 -16.341   2.338  1.00  0.00     0.076 A 
HETATM   37  C   UNL     1      43.334 -15.067   2.310  1.00  0.00     0.039 A 
HETATM   38  C   UNL     1      42.629 -13.986   2.851  1.00  0.00     0.032 A 
BRANCH  36  39
HETATM   39  O   UNL     1      43.441 -17.455   1.885  1.00  0.00    -0.311 OA
BRANCH  39  40
HETATM   40  C   UNL     1      43.629 -18.496   2.766  1.00  0.00     0.076 A 
HETATM   41  C   UNL     1      43.438 -19.782   2.256  1.00  0.00     0.037 A 
HETATM   42  C   UNL     1      43.658 -20.895   3.067  1.00  0.00     0.003 A 
HETATM   43  C   UNL     1      44.079 -20.724   4.385  1.00  0.00     0.000 A 
HETATM   44  C   UNL     1      44.290 -19.441   4.890  1.00  0.00     0.003 A 
HETATM   45  C   UNL     1      44.074 -18.325   4.080  1.00  0.00     0.037 A 
ENDBRANCH  39  40
ENDBRANCH  36  39
ENDBRANCH  30  33
ENDBRANCH   3  29
TORSDOF 8
ENDMDL
MODEL 10
REMARK VINA RESULT:      -9.0      3.735      8.041
REMARK  8 active torsions:
REMARK  status: ('A' for Active; 'I' for Inactive)
REMARK    1  A    between atoms: C_4  and  C_5 
REMARK    2  A    between atoms: C_5  and  N_6 
REMARK    3  A    between atoms: C_5  and  C_36 
REMARK    4  A    between atoms: N_10  and  C_11 
REMARK    5  A    between atoms: C_13  and  C_14 
REMARK       I    between atoms: C_14  and  N_15 
REMARK    6  A    between atoms: N_15  and  C_16 
REMARK    7  A    between atoms: C_19  and  O_20 
REMARK    8  A    between atoms: O_20  and  C_21 
ROOT
HETATM    1  C   UNL     1      39.334  -9.837   3.055  1.00  0.00     0.181 C 
HETATM    2  N   UNL     1      38.257  -9.812   3.873  1.00  0.00    -0.351 N 
HETATM    3  C   UNL     1      38.312  -8.953   5.047  1.00  0.00     0.185 C 
HETATM    4  C   UNL     1      38.922  -7.628   4.651  1.00  0.00     0.140 C 
HETATM    5  C   UNL     1      40.182  -7.863   3.856  1.00  0.00     0.248 C 
HETATM    6  O   UNL     1      41.110  -7.062   3.941  1.00  0.00    -0.271 OA
HETATM    7  N   UNL     1      40.248  -8.932   2.996  1.00  0.00    -0.185 NA
HETATM    8  H   UNL     1      37.828 -10.719   4.031  1.00  0.00     0.163 HD
ENDROOT
BRANCH   1   9
HETATM    9  N   UNL     1      39.382 -10.988   2.299  1.00  0.00    -0.250 NA
HETATM   10  C   UNL     1      38.787 -12.184   2.948  1.00  0.00     0.126 C 
HETATM   11  C   UNL     1      39.735 -12.754   4.027  1.00  0.00     0.251 C 
HETATM   12  N   UNL     1      41.074 -13.125   3.383  1.00  0.00    -0.057 N 
HETATM   13  H   UNL     1      40.864 -13.799   2.642  1.00  0.00     0.281 HD
HETATM   14  C   UNL     1      41.691 -11.928   2.669  1.00  0.00     0.251 C 
HETATM   15  C   UNL     1      40.687 -11.312   1.667  1.00  0.00     0.126 C 
BRANCH  12  16
HETATM   16  C   UNL     1      41.998 -13.890   4.334  1.00  0.00     0.254 C 
BRANCH  16  17
HETATM   17  C   UNL     1      43.001 -13.051   5.122  1.00  0.00    -0.023 A 
HETATM   18  C   UNL     1      43.072 -13.211   6.522  1.00  0.00     0.009 A 
HETATM   19  C   UNL     1      43.943 -12.440   7.296  1.00  0.00     0.001 A 
HETATM   20  C   UNL     1      44.764 -11.495   6.691  1.00  0.00     0.000 A 
HETATM   21  C   UNL     1      44.723 -11.328   5.312  1.00  0.00     0.001 A 
HETATM   22  C   UNL     1      43.856 -12.102   4.535  1.00  0.00     0.009 A 
ENDBRANCH  16  17
BRANCH  16  23
HETATM   23  C   UNL     1      42.490 -15.196   3.710  1.00  0.00    -0.023 A 
HETATM   24  C   UNL     1      42.770 -15.217   2.326  1.00  0.00     0.009 A 
HETATM   25  C   UNL     1      43.266 -16.364   1.704  1.00  0.00     0.001 A 
HETATM   26  C   UNL     1      43.492 -17.515   2.451  1.00  0.00     0.000 A 
HETATM   27  C   UNL     1      43.221 -17.519   3.815  1.00  0.00     0.001 A 
HETATM   28  C   UNL     1      42.725 -16.370   4.441  1.00  0.00     0.009 A 
ENDBRANCH  16  23
ENDBRANCH  12  16
ENDBRANCH   1   9
BRANCH   3  29
HETATM   29  C   UNL     1      39.083  -9.645   6.200  1.00  0.00     0.245 C 
HETATM   30  N   UNL     1      39.873  -8.766   6.927  1.00  0.00    -0.325 N 
HETATM   31  H   UNL     1      39.968  -7.817   6.584  1.00  0.00     0.169 HD
HETATM   32  O   UNL     1      38.940 -10.847   6.426  1.00  0.00    -0.271 OA
BRANCH  30  33
HETATM   33  C   UNL     1      40.553  -9.027   8.138  1.00  0.00     0.035 A 
HETATM   34  C   UNL     1      41.918  -9.315   8.222  1.00  0.00     0.032 A 
HETATM   35  C   UNL     1      42.505  -9.612   9.456  1.00  0.00     0.039 A 
HETATM   36  C   UNL     1      41.737  -9.602  10.618  1.00  0.00     0.076 A 
HETATM   37  C   UNL     1      40.373  -9.331  10.548  1.00  0.00     0.039 A 
HETATM   38  C   UNL     1      39.786  -9.037   9.313  1.00  0.00     0.032 A 
BRANCH  36  39
HETATM   39  O   UNL     1      42.363  -9.963  11.787  1.00  0.00    -0.311 OA
BRANCH  39  40
HETATM   40  C   UNL     1      42.393  -9.045  12.813  1.00  0.00     0.076 A 
HETATM   41  C   UNL     1      41.526  -9.281  13.882  1.00  0.00     0.037 A 
HETATM   42  C   UNL     1      41.529  -8.427  14.985  1.00  0.00     0.003 A 
HETATM   43  C   UNL     1      42.406  -7.345  15.026  1.00  0.00     0.000 A 
HETATM   44  C   UNL     1      43.287  -7.120  13.968  1.00  0.00     0.003 A 
HETATM   45  C   UNL     1      43.289  -7.974  12.864  1.00  0.00     0.037 A 
ENDBRANCH  39  40
ENDBRANCH  36  39
ENDBRANCH  30  33
ENDBRANCH   3  29
TORSDOF 8
ENDMDL
