MODEL 1
REMARK VINA RESULT:     -10.8      0.000      0.000
REMARK  4 active torsions:
REMARK  status: ('A' for Active; 'I' for Inactive)
REMARK    1  A    between atoms: C_4  and  C_5 
REMARK    2  A    between atoms: C_16  and  C_17 
REMARK    3  A    between atoms: C_20  and  C_21 
REMARK    4  A    between atoms: C_21  and  N_22 
REMARK       I    between atoms: N_22  and  C_23 
REMARK       I    between atoms: C_23  and  N_24 
ROOT
HETATM    1  C   UNL     1      41.629 -11.257   5.169  1.00  0.00     0.067 C 
HETATM    2  C   UNL     1      40.150 -11.218   4.734  1.00  0.00     0.001 C 
HETATM    3  C   UNL     1      40.004 -11.378   3.205  1.00  0.00     0.040 C 
HETATM    4  C   UNL     1      40.714 -10.242   2.449  1.00  0.00     0.206 C 
HETATM    5  N   UNL     1      41.442  -9.414   3.493  1.00  0.00    -0.065 N 
HETATM    6  H   UNL     1      42.017  -8.710   2.978  1.00  0.00     0.280 HD
HETATM    7  C   UNL     1      42.418 -10.220   4.322  1.00  0.00     0.246 C 
HETATM    8  C   UNL     1      39.614  -9.800   5.081  1.00  0.00     0.033 C 
HETATM    9  C   UNL     1      40.458  -8.716   4.394  1.00  0.00     0.236 C 
ENDROOT
BRANCH   1  10
HETATM   10  C   UNL     1      42.405 -12.548   5.230  1.00  0.00     0.038 C 
HETATM   11  N   UNL     1      43.307 -13.050   6.140  1.00  0.00    -0.277 N 
HETATM   12  C   UNL     1      44.011 -12.434   7.239  1.00  0.00     0.179 C 
HETATM   13  N   UNL     1      43.555 -14.362   5.957  1.00  0.00    -0.172 NA
HETATM   14  C   UNL     1      43.020 -14.668   4.770  1.00  0.00     0.089 C 
HETATM   15  C   UNL     1      42.316 -13.551   4.272  1.00  0.00     0.061 C 
BRANCH  14  16
HETATM   16  C   UNL     1      43.117 -15.999   4.170  1.00  0.00    -0.005 A 
HETATM   17  C   UNL     1      43.432 -17.114   4.961  1.00  0.00     0.026 A 
HETATM   18  C   UNL     1      43.608 -18.388   4.391  1.00  0.00    -0.025 A 
HETATM   19  C   UNL     1      43.457 -18.547   2.995  1.00  0.00    -0.026 A 
HETATM   20  C   UNL     1      43.940 -19.502   5.179  1.00  0.00     0.012 A 
HETATM   21  C   UNL     1      43.115 -17.435   2.211  1.00  0.00     0.013 A 
HETATM   22  C   UNL     1      43.656 -19.815   2.425  1.00  0.00     0.012 A 
HETATM   23  C   UNL     1      42.943 -16.175   2.795  1.00  0.00     0.014 A 
HETATM   24  C   UNL     1      43.994 -20.911   3.221  1.00  0.00     0.001 A 
HETATM   25  C   UNL     1      44.132 -20.755   4.596  1.00  0.00     0.001 A 
ENDBRANCH  14  16
ENDBRANCH   1  10
BRANCH   4  26
HETATM   26  C   UNL     1      41.630 -10.782   1.320  1.00  0.00     0.157 C 
BRANCH  26  27
HETATM   27  N   UNL     1      40.967 -11.354   0.160  1.00  0.00    -0.341 N 
HETATM   28  C   UNL     1      40.740 -12.684  -0.036  1.00  0.00     0.318 C 
HETATM   29  N   UNL     1      39.791 -12.992  -0.989  1.00  0.00    -0.330 N 
HETATM   30  O   UNL     1      41.373 -13.527   0.598  1.00  0.00    -0.247 OA
HETATM   31  C   UNL     1      38.634 -12.120  -1.267  1.00  0.00     0.153 C 
HETATM   32  C   UNL     1      39.501 -14.417  -1.191  1.00  0.00     0.153 C 
HETATM   33  C   UNL     1      37.947 -12.480  -2.588  1.00  0.00     0.187 C 
HETATM   34  O   UNL     1      37.605 -13.869  -2.626  1.00  0.00    -0.388 OA
HETATM   35  C   UNL     1      38.783 -14.677  -2.516  1.00  0.00     0.187 C 
HETATM   36  H   UNL     1      40.695 -10.728  -0.585  1.00  0.00     0.164 HD
ENDBRANCH  26  27
ENDBRANCH   4  26
TORSDOF 4
ENDMDL
MODEL 2
REMARK VINA RESULT:     -10.5      0.901      1.575
REMARK  4 active torsions:
REMARK  status: ('A' for Active; 'I' for Inactive)
REMARK    1  A    between atoms: C_4  and  C_5 
REMARK    2  A    between atoms: C_16  and  C_17 
REMARK    3  A    between atoms: C_20  and  C_21 
REMARK    4  A    between atoms: C_21  and  N_22 
REMARK       I    between atoms: N_22  and  C_23 
REMARK       I    between atoms: C_23  and  N_24 
ROOT
HETATM    1  C   UNL     1      41.282 -11.836   5.650  1.00  0.00     0.067 C 
HETATM    2  C   UNL     1      39.803 -12.144   5.342  1.00  0.00     0.001 C 
HETATM    3  C   UNL     1      39.603 -12.553   3.866  1.00  0.00     0.040 C 
HETATM    4  C   UNL     1      40.026 -11.428   2.907  1.00  0.00     0.206 C 
HETATM    5  N   UNL     1      40.634 -10.331   3.765  1.00  0.00    -0.065 N 
HETATM    6  H   UNL     1      41.025  -9.615   3.113  1.00  0.00     0.280 HD
HETATM    7  C   UNL     1      41.797 -10.805   4.607  1.00  0.00     0.246 C 
HETATM    8  C   UNL     1      39.015 -10.818   5.541  1.00  0.00     0.033 C 
HETATM    9  C   UNL     1      39.583  -9.708   4.645  1.00  0.00     0.236 C 
ENDROOT
BRANCH   1  10
HETATM   10  C   UNL     1      42.303 -12.933   5.816  1.00  0.00     0.038 C 
HETATM   11  N   UNL     1      43.470 -13.016   6.540  1.00  0.00    -0.277 N 
HETATM   12  C   UNL     1      44.259 -12.013   7.214  1.00  0.00     0.179 C 
HETATM   13  N   UNL     1      43.938 -14.277   6.630  1.00  0.00    -0.172 NA
HETATM   14  C   UNL     1      43.227 -14.989   5.750  1.00  0.00     0.089 C 
HETATM   15  C   UNL     1      42.211 -14.176   5.201  1.00  0.00     0.061 C 
BRANCH  14  16
HETATM   16  C   UNL     1      43.460 -16.411   5.499  1.00  0.00    -0.005 A 
HETATM   17  C   UNL     1      43.513 -16.901   4.185  1.00  0.00     0.026 A 
HETATM   18  C   UNL     1      43.656 -18.276   3.923  1.00  0.00    -0.025 A 
HETATM   19  C   UNL     1      43.755 -19.179   5.005  1.00  0.00    -0.026 A 
HETATM   20  C   UNL     1      43.693 -18.770   2.609  1.00  0.00     0.012 A 
HETATM   21  C   UNL     1      43.730 -18.682   6.317  1.00  0.00     0.013 A 
HETATM   22  C   UNL     1      43.874 -20.553   4.742  1.00  0.00     0.012 A 
HETATM   23  C   UNL     1      43.587 -17.311   6.561  1.00  0.00     0.014 A 
HETATM   24  C   UNL     1      43.901 -21.029   3.431  1.00  0.00     0.001 A 
HETATM   25  C   UNL     1      43.813 -20.138   2.365  1.00  0.00     0.001 A 
ENDBRANCH  14  16
ENDBRANCH   1  10
BRANCH   4  26
HETATM   26  C   UNL     1      40.965 -11.945   1.786  1.00  0.00     0.157 C 
BRANCH  26  27
HETATM   27  N   UNL     1      40.369 -12.140   0.475  1.00  0.00    -0.341 N 
HETATM   28  C   UNL     1      40.181 -13.348  -0.128  1.00  0.00     0.318 C 
HETATM   29  N   UNL     1      39.284 -13.357  -1.176  1.00  0.00    -0.330 N 
HETATM   30  O   UNL     1      40.804 -14.340   0.249  1.00  0.00    -0.247 OA
HETATM   31  C   UNL     1      38.121 -12.451  -1.234  1.00  0.00     0.153 C 
HETATM   32  C   UNL     1      39.037 -14.655  -1.818  1.00  0.00     0.153 C 
HETATM   33  C   UNL     1      37.504 -12.395  -2.634  1.00  0.00     0.187 C 
HETATM   34  O   UNL     1      37.196 -13.709  -3.112  1.00  0.00    -0.388 OA
HETATM   35  C   UNL     1      38.386 -14.503  -3.194  1.00  0.00     0.187 C 
HETATM   36  H   UNL     1      40.117 -11.319  -0.057  1.00  0.00     0.164 HD
ENDBRANCH  26  27
ENDBRANCH   4  26
TORSDOF 4
ENDMDL
MODEL 3
REMARK VINA RESULT:     -10.0      3.502      5.545
REMARK  4 active torsions:
REMARK  status: ('A' for Active; 'I' for Inactive)
REMARK    1  A    between atoms: C_4  and  C_5 
REMARK    2  A    between atoms: C_16  and  C_17 
REMARK    3  A    between atoms: C_20  and  C_21 
REMARK    4  A    between atoms: C_21  and  N_22 
REMARK       I    between atoms: N_22  and  C_23 
REMARK       I    between atoms: C_23  and  N_24 
ROOT
HETATM    1  C   UNL     1      39.534 -13.653  -0.287  1.00  0.00     0.067 C 
HETATM    2  C   UNL     1      39.559 -14.194  -1.731  1.00  0.00     0.001 C 
HETATM    3  C   UNL     1      40.554 -13.409  -2.613  1.00  0.00     0.040 C 
HETATM    4  C   UNL     1      40.173 -11.921  -2.707  1.00  0.00     0.206 C 
HETATM    5  N   UNL     1      38.999 -11.713  -1.767  1.00  0.00    -0.065 N 
HETATM    6  H   UNL     1      38.808 -10.687  -1.739  1.00  0.00     0.280 HD
HETATM    7  C   UNL     1      39.296 -12.118  -0.339  1.00  0.00     0.246 C 
HETATM    8  C   UNL     1      38.147 -13.942  -2.331  1.00  0.00     0.033 C 
HETATM    9  C   UNL     1      37.785 -12.451  -2.267  1.00  0.00     0.236 C 
ENDROOT
BRANCH   1  10
HETATM   10  C   UNL     1      40.640 -13.954   0.693  1.00  0.00     0.038 C 
HETATM   11  N   UNL     1      41.432 -13.150   1.479  1.00  0.00    -0.277 N 
HETATM   12  C   UNL     1      41.653 -11.724   1.483  1.00  0.00     0.179 C 
HETATM   13  N   UNL     1      42.108 -13.842   2.417  1.00  0.00    -0.172 NA
HETATM   14  C   UNL     1      41.967 -15.130   2.086  1.00  0.00     0.089 C 
HETATM   15  C   UNL     1      41.077 -15.239   0.996  1.00  0.00     0.061 C 
BRANCH  14  16
HETATM   16  C   UNL     1      42.600 -16.219   2.830  1.00  0.00    -0.005 A 
HETATM   17  C   UNL     1      42.732 -17.491   2.252  1.00  0.00     0.026 A 
HETATM   18  C   UNL     1      43.263 -18.572   2.978  1.00  0.00    -0.025 A 
HETATM   19  C   UNL     1      43.679 -18.370   4.314  1.00  0.00    -0.026 A 
HETATM   20  C   UNL     1      43.381 -19.850   2.407  1.00  0.00     0.012 A 
HETATM   21  C   UNL     1      43.571 -17.090   4.879  1.00  0.00     0.013 A 
HETATM   22  C   UNL     1      44.187 -19.455   5.045  1.00  0.00     0.012 A 
HETATM   23  C   UNL     1      43.040 -16.025   4.142  1.00  0.00     0.014 A 
HETATM   24  C   UNL     1      44.291 -20.721   4.465  1.00  0.00     0.001 A 
HETATM   25  C   UNL     1      43.891 -20.917   3.147  1.00  0.00     0.001 A 
ENDBRANCH  14  16
ENDBRANCH   1  10
BRANCH   4  26
HETATM   26  C   UNL     1      41.383 -10.995  -2.421  1.00  0.00     0.157 C 
BRANCH  26  27
HETATM   27  N   UNL     1      41.176  -9.570  -2.620  1.00  0.00    -0.341 N 
HETATM   28  C   UNL     1      41.994  -8.586  -2.150  1.00  0.00     0.318 C 
HETATM   29  N   UNL     1      41.841  -7.351  -2.745  1.00  0.00    -0.330 N 
HETATM   30  O   UNL     1      42.790  -8.815  -1.240  1.00  0.00    -0.247 OA
HETATM   31  C   UNL     1      41.430  -7.193  -4.153  1.00  0.00     0.153 C 
HETATM   32  C   UNL     1      42.737  -6.283  -2.281  1.00  0.00     0.153 C 
HETATM   33  C   UNL     1      40.980  -5.762  -4.464  1.00  0.00     0.187 C 
HETATM   34  O   UNL     1      41.980  -4.814  -4.078  1.00  0.00    -0.388 OA
HETATM   35  C   UNL     1      42.227  -4.894  -2.668  1.00  0.00     0.187 C 
HETATM   36  H   UNL     1      40.337  -9.278  -3.101  1.00  0.00     0.164 HD
ENDBRANCH  26  27
ENDBRANCH   4  26
TORSDOF 4
ENDMDL
MODEL 4
REMARK VINA RESULT:     -10.0      2.382      5.295
REMARK  4 active torsions:
REMARK  status: ('A' for Active; 'I' for Inactive)
REMARK    1  A    between atoms: C_4  and  C_5 
REMARK    2  A    between atoms: C_16  and  C_17 
REMARK    3  A    between atoms: C_20  and  C_21 
REMARK    4  A    between atoms: C_21  and  N_22 
REMARK       I    between atoms: N_22  and  C_23 
REMARK       I    between atoms: C_23  and  N_24 
ROOT
HETATM    1  C   UNL     1      39.648 -13.066  -0.611  1.00  0.00     0.067 C 
HETATM    2  C   UNL     1      40.645 -12.477  -1.629  1.00  0.00     0.001 C 
HETATM    3  C   UNL     1      41.115 -11.066  -1.213  1.00  0.00     0.040 C 
HETATM    4  C   UNL     1      39.937 -10.080  -1.132  1.00  0.00     0.206 C 
HETATM    5  N   UNL     1      38.675 -10.892  -1.364  1.00  0.00    -0.065 N 
HETATM    6  H   UNL     1      37.866 -10.253  -1.198  1.00  0.00     0.280 HD
HETATM    7  C   UNL     1      38.508 -12.034  -0.385  1.00  0.00     0.246 C 
HETATM    8  C   UNL     1      39.874 -12.306  -2.969  1.00  0.00     0.033 C 
HETATM    9  C   UNL     1      38.637 -11.417  -2.775  1.00  0.00     0.236 C 
ENDROOT
BRANCH   1  10
HETATM   10  C   UNL     1      40.101 -13.609   0.720  1.00  0.00     0.038 C 
HETATM   11  N   UNL     1      39.660 -13.407   2.007  1.00  0.00    -0.277 N 
HETATM   12  C   UNL     1      38.761 -12.431   2.575  1.00  0.00     0.179 C 
HETATM   13  N   UNL     1      40.165 -14.303   2.878  1.00  0.00    -0.172 NA
HETATM   14  C   UNL     1      41.141 -14.935   2.219  1.00  0.00     0.089 C 
HETATM   15  C   UNL     1      41.150 -14.509   0.873  1.00  0.00     0.061 C 
BRANCH  14  16
HETATM   16  C   UNL     1      41.985 -15.962   2.832  1.00  0.00    -0.005 A 
HETATM   17  C   UNL     1      42.178 -17.197   2.194  1.00  0.00     0.026 A 
HETATM   18  C   UNL     1      42.919 -18.226   2.804  1.00  0.00    -0.025 A 
HETATM   19  C   UNL     1      43.485 -18.007   4.080  1.00  0.00    -0.026 A 
HETATM   20  C   UNL     1      43.101 -19.467   2.175  1.00  0.00     0.012 A 
HETATM   21  C   UNL     1      43.313 -16.761   4.702  1.00  0.00     0.013 A 
HETATM   22  C   UNL     1      44.204 -19.042   4.697  1.00  0.00     0.012 A 
HETATM   23  C   UNL     1      42.573 -15.748   4.082  1.00  0.00     0.014 A 
HETATM   24  C   UNL     1      44.369 -20.274   4.062  1.00  0.00     0.001 A 
HETATM   25  C   UNL     1      43.820 -20.486   2.801  1.00  0.00     0.001 A 
ENDBRANCH  14  16
ENDBRANCH   1  10
BRANCH   4  26
HETATM   26  C   UNL     1      39.940  -9.284   0.199  1.00  0.00     0.157 C 
BRANCH  26  27
HETATM   27  N   UNL     1      40.989  -9.608   1.151  1.00  0.00    -0.341 N 
HETATM   28  C   UNL     1      40.846  -9.603   2.507  1.00  0.00     0.318 C 
HETATM   29  N   UNL     1      41.818 -10.284   3.210  1.00  0.00    -0.330 N 
HETATM   30  O   UNL     1      39.910  -9.003   3.035  1.00  0.00    -0.247 OA
HETATM   31  C   UNL     1      42.509 -11.468   2.666  1.00  0.00     0.153 C 
HETATM   32  C   UNL     1      41.665 -10.324   4.671  1.00  0.00     0.153 C 
HETATM   33  C   UNL     1      43.773 -11.812   3.460  1.00  0.00     0.187 C 
HETATM   34  O   UNL     1      43.482 -11.942   4.856  1.00  0.00    -0.388 OA
HETATM   35  C   UNL     1      42.965 -10.711   5.376  1.00  0.00     0.187 C 
HETATM   36  H   UNL     1      41.911  -9.805   0.788  1.00  0.00     0.164 HD
ENDBRANCH  26  27
ENDBRANCH   4  26
TORSDOF 4
ENDMDL
MODEL 5
REMARK VINA RESULT:     -10.0      2.724      6.116
REMARK  4 active torsions:
REMARK  status: ('A' for Active; 'I' for Inactive)
REMARK    1  A    between atoms: C_4  and  C_5 
REMARK    2  A    between atoms: C_16  and  C_17 
REMARK    3  A    between atoms: C_20  and  C_21 
REMARK    4  A    between atoms: C_21  and  N_22 
REMARK       I    between atoms: N_22  and  C_23 
REMARK       I    between atoms: C_23  and  N_24 
ROOT
HETATM    1  C   UNL     1      38.944 -11.570   0.786  1.00  0.00     0.067 C 
HETATM    2  C   UNL     1      39.747 -10.254   0.797  1.00  0.00     0.001 C 
HETATM    3  C   UNL     1      40.299  -9.938   2.203  1.00  0.00     0.040 C 
HETATM    4  C   UNL     1      39.167  -9.770   3.230  1.00  0.00     0.206 C 
HETATM    5  N   UNL     1      37.874 -10.115   2.511  1.00  0.00    -0.065 N 
HETATM    6  H   UNL     1      37.116 -10.114   3.229  1.00  0.00     0.280 HD
HETATM    7  C   UNL     1      37.875 -11.504   1.912  1.00  0.00     0.246 C 
HETATM    8  C   UNL     1      38.748  -9.113   0.451  1.00  0.00     0.033 C 
HETATM    9  C   UNL     1      37.576  -9.096   1.443  1.00  0.00     0.236 C 
ENDROOT
BRANCH   1  10
HETATM   10  C   UNL     1      39.624 -12.915   0.821  1.00  0.00     0.038 C 
HETATM   11  N   UNL     1      39.810 -13.889  -0.133  1.00  0.00    -0.277 N 
HETATM   12  C   UNL     1      39.226 -14.083  -1.439  1.00  0.00     0.179 C 
HETATM   13  N   UNL     1      40.715 -14.816   0.239  1.00  0.00    -0.172 NA
HETATM   14  C   UNL     1      40.935 -14.603   1.540  1.00  0.00     0.089 C 
HETATM   15  C   UNL     1      40.249 -13.438   1.947  1.00  0.00     0.061 C 
BRANCH  14  16
HETATM   16  C   UNL     1      41.826 -15.438   2.347  1.00  0.00    -0.005 A 
HETATM   17  C   UNL     1      42.113 -16.755   1.957  1.00  0.00     0.026 A 
HETATM   18  C   UNL     1      42.901 -17.599   2.760  1.00  0.00    -0.025 A 
HETATM   19  C   UNL     1      43.419 -17.108   3.979  1.00  0.00    -0.026 A 
HETATM   20  C   UNL     1      43.176 -18.922   2.379  1.00  0.00     0.012 A 
HETATM   21  C   UNL     1      43.153 -15.781   4.352  1.00  0.00     0.013 A 
HETATM   22  C   UNL     1      44.187 -17.959   4.790  1.00  0.00     0.012 A 
HETATM   23  C   UNL     1      42.367 -14.954   3.541  1.00  0.00     0.014 A 
HETATM   24  C   UNL     1      44.444 -19.275   4.401  1.00  0.00     0.001 A 
HETATM   25  C   UNL     1      43.942 -19.755   3.196  1.00  0.00     0.001 A 
ENDBRANCH  14  16
ENDBRANCH   1  10
BRANCH   4  26
HETATM   26  C   UNL     1      39.419 -10.605   4.512  1.00  0.00     0.157 C 
BRANCH  26  27
HETATM   27  N   UNL     1      40.803 -10.766   4.924  1.00  0.00    -0.341 N 
HETATM   28  C   UNL     1      41.387 -10.124   5.975  1.00  0.00     0.318 C 
HETATM   29  N   UNL     1      42.569 -10.675   6.427  1.00  0.00    -0.330 N 
HETATM   30  O   UNL     1      40.878  -9.110   6.451  1.00  0.00    -0.247 OA
HETATM   31  C   UNL     1      42.850 -12.122   6.353  1.00  0.00     0.153 C 
HETATM   32  C   UNL     1      43.198 -10.023   7.583  1.00  0.00     0.153 C 
HETATM   33  C   UNL     1      44.334 -12.431   6.567  1.00  0.00     0.187 C 
HETATM   34  O   UNL     1      44.811 -11.844   7.782  1.00  0.00    -0.388 OA
HETATM   35  C   UNL     1      44.667 -10.419   7.739  1.00  0.00     0.187 C 
HETATM   36  H   UNL     1      41.397 -11.360   4.363  1.00  0.00     0.164 HD
ENDBRANCH  26  27
ENDBRANCH   4  26
TORSDOF 4
ENDMDL
MODEL 6
REMARK VINA RESULT:      -9.8      3.623      7.020
REMARK  4 active torsions:
REMARK  status: ('A' for Active; 'I' for Inactive)
REMARK    1  A    between atoms: C_4  and  C_5 
REMARK    2  A    between atoms: C_16  and  C_17 
REMARK    3  A    between atoms: C_20  and  C_21 
REMARK    4  A    between atoms: C_21  and  N_22 
REMARK       I    between atoms: N_22  and  C_23 
REMARK       I    between atoms: C_23  and  N_24 
ROOT
HETATM    1  C   UNL     1      39.952 -11.502   3.070  1.00  0.00     0.067 C 
HETATM    2  C   UNL     1      40.518 -10.085   2.848  1.00  0.00     0.001 C 
HETATM    3  C   UNL     1      41.669  -9.774   3.829  1.00  0.00     0.040 C 
HETATM    4  C   UNL     1      41.196  -9.835   5.291  1.00  0.00     0.206 C 
HETATM    5  N   UNL     1      39.758 -10.324   5.263  1.00  0.00    -0.065 N 
HETATM    6  H   UNL     1      39.468 -10.476   6.255  1.00  0.00     0.280 HD
HETATM    7  C   UNL     1      39.594 -11.661   4.574  1.00  0.00     0.246 C 
HETATM    8  C   UNL     1      39.374  -9.086   3.181  1.00  0.00     0.033 C 
HETATM    9  C   UNL     1      38.865  -9.299   4.615  1.00  0.00     0.236 C 
ENDROOT
BRANCH   1  10
HETATM   10  C   UNL     1      40.686 -12.733   2.599  1.00  0.00     0.038 C 
HETATM   11  N   UNL     1      41.205 -13.097   1.377  1.00  0.00    -0.277 N 
HETATM   12  C   UNL     1      41.034 -12.544   0.055  1.00  0.00     0.179 C 
HETATM   13  N   UNL     1      42.027 -14.161   1.458  1.00  0.00    -0.172 NA
HETATM   14  C   UNL     1      41.851 -14.662   2.684  1.00  0.00     0.089 C 
HETATM   15  C   UNL     1      40.997 -13.810   3.419  1.00  0.00     0.061 C 
BRANCH  14  16
HETATM   16  C   UNL     1      42.529 -15.868   3.161  1.00  0.00    -0.005 A 
HETATM   17  C   UNL     1      42.544 -17.032   2.377  1.00  0.00     0.026 A 
HETATM   18  C   UNL     1      43.120 -18.224   2.851  1.00  0.00    -0.025 A 
HETATM   19  C   UNL     1      43.701 -18.247   4.139  1.00  0.00    -0.026 A 
HETATM   20  C   UNL     1      43.122 -19.394   2.075  1.00  0.00     0.012 A 
HETATM   21  C   UNL     1      43.709 -17.073   4.908  1.00  0.00     0.013 A 
HETATM   22  C   UNL     1      44.255 -19.444   4.619  1.00  0.00     0.012 A 
HETATM   23  C   UNL     1      43.131 -15.895   4.422  1.00  0.00     0.014 A 
HETATM   24  C   UNL     1      44.242 -20.601   3.838  1.00  0.00     0.001 A 
HETATM   25  C   UNL     1      43.678 -20.575   2.566  1.00  0.00     0.001 A 
ENDBRANCH  14  16
ENDBRANCH   1  10
BRANCH   4  26
HETATM   26  C   UNL     1      42.139 -10.697   6.169  1.00  0.00     0.157 C 
BRANCH  26  27
HETATM   27  N   UNL     1      42.112 -10.443   7.600  1.00  0.00    -0.341 N 
HETATM   28  C   UNL     1      43.146  -9.929   8.325  1.00  0.00     0.318 C 
HETATM   29  N   UNL     1      42.811  -9.423   9.563  1.00  0.00    -0.330 N 
HETATM   30  O   UNL     1      44.293  -9.951   7.880  1.00  0.00    -0.247 OA
HETATM   31  C   UNL     1      41.498  -8.812   9.843  1.00  0.00     0.153 C 
HETATM   32  C   UNL     1      43.903  -8.830  10.348  1.00  0.00     0.153 C 
HETATM   33  C   UNL     1      41.238  -8.669  11.346  1.00  0.00     0.187 C 
HETATM   34  O   UNL     1      42.312  -7.973  11.988  1.00  0.00    -0.388 OA
HETATM   35  C   UNL     1      43.541  -8.692  11.827  1.00  0.00     0.187 C 
HETATM   36  H   UNL     1      41.283 -10.711   8.112  1.00  0.00     0.164 HD
ENDBRANCH  26  27
ENDBRANCH   4  26
TORSDOF 4
ENDMDL
MODEL 7
REMARK VINA RESULT:      -9.7      2.279      2.911
REMARK  4 active torsions:
REMARK  status: ('A' for Active; 'I' for Inactive)
REMARK    1  A    between atoms: C_4  and  C_5 
REMARK    2  A    between atoms: C_16  and  C_17 
REMARK    3  A    between atoms: C_20  and  C_21 
REMARK    4  A    between atoms: C_21  and  N_22 
REMARK       I    between atoms: N_22  and  C_23 
REMARK       I    between atoms: C_23  and  N_24 
ROOT
HETATM    1  C   UNL     1      41.815 -11.167   5.004  1.00  0.00     0.067 C 
HETATM    2  C   UNL     1      40.276 -11.070   4.963  1.00  0.00     0.001 C 
HETATM    3  C   UNL     1      39.717 -11.503   3.590  1.00  0.00     0.040 C 
HETATM    4  C   UNL     1      40.244 -10.605   2.458  1.00  0.00     0.206 C 
HETATM    5  N   UNL     1      41.261  -9.667   3.085  1.00  0.00    -0.065 N 
HETATM    6  H   UNL     1      41.705  -9.133   2.305  1.00  0.00     0.280 HD
HETATM    7  C   UNL     1      42.389 -10.390   3.786  1.00  0.00     0.246 C 
HETATM    8  C   UNL     1      39.914  -9.567   5.131  1.00  0.00     0.033 C 
HETATM    9  C   UNL     1      40.586  -8.720   4.041  1.00  0.00     0.236 C 
ENDROOT
BRANCH   1  10
HETATM   10  C   UNL     1      42.524 -12.491   5.132  1.00  0.00     0.038 C 
HETATM   11  N   UNL     1      43.329 -13.025   6.112  1.00  0.00    -0.277 N 
HETATM   12  C   UNL     1      43.975 -12.430   7.257  1.00  0.00     0.179 C 
HETATM   13  N   UNL     1      43.529 -14.348   5.957  1.00  0.00    -0.172 NA
HETATM   14  C   UNL     1      43.073 -14.642   4.736  1.00  0.00     0.089 C 
HETATM   15  C   UNL     1      42.461 -13.499   4.177  1.00  0.00     0.061 C 
BRANCH  14  16
HETATM   16  C   UNL     1      43.153 -15.982   4.154  1.00  0.00    -0.005 A 
HETATM   17  C   UNL     1      43.470 -17.088   4.957  1.00  0.00     0.026 A 
HETATM   18  C   UNL     1      43.631 -18.371   4.403  1.00  0.00    -0.025 A 
HETATM   19  C   UNL     1      43.462 -18.549   3.011  1.00  0.00    -0.026 A 
HETATM   20  C   UNL     1      43.964 -19.476   5.202  1.00  0.00     0.012 A 
HETATM   21  C   UNL     1      43.118 -17.446   2.216  1.00  0.00     0.013 A 
HETATM   22  C   UNL     1      43.646 -19.826   2.457  1.00  0.00     0.012 A 
HETATM   23  C   UNL     1      42.962 -16.176   2.783  1.00  0.00     0.014 A 
HETATM   24  C   UNL     1      43.985 -20.913   3.264  1.00  0.00     0.001 A 
HETATM   25  C   UNL     1      44.141 -20.738   4.636  1.00  0.00     0.001 A 
ENDBRANCH  14  16
ENDBRANCH   1  10
BRANCH   4  26
HETATM   26  C   UNL     1      40.798 -11.435   1.271  1.00  0.00     0.157 C 
BRANCH  26  27
HETATM   27  N   UNL     1      41.460 -10.694   0.210  1.00  0.00    -0.341 N 
HETATM   28  C   UNL     1      40.859 -10.255  -0.932  1.00  0.00     0.318 C 
HETATM   29  N   UNL     1      41.539  -9.274  -1.623  1.00  0.00    -0.330 N 
HETATM   30  O   UNL     1      39.790 -10.739  -1.303  1.00  0.00    -0.247 OA
HETATM   31  C   UNL     1      42.393  -8.276  -0.951  1.00  0.00     0.153 C 
HETATM   32  C   UNL     1      40.894  -8.758  -2.837  1.00  0.00     0.153 C 
HETATM   33  C   UNL     1      43.311  -7.547  -1.937  1.00  0.00     0.187 C 
HETATM   34  O   UNL     1      42.561  -6.984  -3.017  1.00  0.00    -0.388 OA
HETATM   35  C   UNL     1      41.877  -8.015  -3.742  1.00  0.00     0.187 C 
HETATM   36  H   UNL     1      42.453 -10.532   0.296  1.00  0.00     0.164 HD
ENDBRANCH  26  27
ENDBRANCH   4  26
TORSDOF 4
ENDMDL
MODEL 8
REMARK VINA RESULT:      -9.5      4.156      7.287
REMARK  4 active torsions:
REMARK  status: ('A' for Active; 'I' for Inactive)
REMARK    1  A    between atoms: C_4  and  C_5 
REMARK    2  A    between atoms: C_16  and  C_17 
REMARK    3  A    between atoms: C_20  and  C_21 
REMARK    4  A    between atoms: C_21  and  N_22 
REMARK       I    between atoms: N_22  and  C_23 
REMARK       I    between atoms: C_23  and  N_24 
ROOT
HETATM    1  C   UNL     1      41.303 -11.574   4.109  1.00  0.00     0.067 C 
HETATM    2  C   UNL     1      41.713 -10.090   4.189  1.00  0.00     0.001 C 
HETATM    3  C   UNL     1      41.521  -9.524   5.613  1.00  0.00     0.040 C 
HETATM    4  C   UNL     1      40.050  -9.598   6.056  1.00  0.00     0.206 C 
HETATM    5  N   UNL     1      39.304 -10.344   4.962  1.00  0.00    -0.065 N 
HETATM    6  H   UNL     1      38.331 -10.497   5.307  1.00  0.00     0.280 HD
HETATM    7  C   UNL     1      39.867 -11.721   4.686  1.00  0.00     0.246 C 
HETATM    8  C   UNL     1      40.738  -9.302   3.268  1.00  0.00     0.033 C 
HETATM    9  C   UNL     1      39.281  -9.534   3.693  1.00  0.00     0.236 C 
ENDROOT
BRANCH   1  10
HETATM   10  C   UNL     1      42.178 -12.670   4.662  1.00  0.00     0.038 C 
HETATM   11  N   UNL     1      42.968 -12.753   5.785  1.00  0.00    -0.277 N 
HETATM   12  C   UNL     1      43.429 -11.750   6.715  1.00  0.00     0.179 C 
HETATM   13  N   UNL     1      43.364 -14.014   6.051  1.00  0.00    -0.172 NA
HETATM   14  C   UNL     1      43.055 -14.726   4.963  1.00  0.00     0.089 C 
HETATM   15  C   UNL     1      42.335 -13.913   4.060  1.00  0.00     0.061 C 
BRANCH  14  16
HETATM   16  C   UNL     1      43.369 -16.148   4.824  1.00  0.00    -0.005 A 
HETATM   17  C   UNL     1      43.238 -16.786   3.580  1.00  0.00     0.026 A 
HETATM   18  C   UNL     1      43.457 -18.169   3.442  1.00  0.00    -0.025 A 
HETATM   19  C   UNL     1      43.823 -18.927   4.576  1.00  0.00    -0.026 A 
HETATM   20  C   UNL     1      43.311 -18.811   2.202  1.00  0.00     0.012 A 
HETATM   21  C   UNL     1      43.980 -18.281   5.812  1.00  0.00     0.013 A 
HETATM   22  C   UNL     1      44.018 -20.311   4.441  1.00  0.00     0.012 A 
HETATM   23  C   UNL     1      43.758 -16.905   5.932  1.00  0.00     0.014 A 
HETATM   24  C   UNL     1      43.861 -20.937   3.203  1.00  0.00     0.001 A 
HETATM   25  C   UNL     1      43.511 -20.187   2.085  1.00  0.00     0.001 A 
ENDBRANCH  14  16
ENDBRANCH   1  10
BRANCH   4  26
HETATM   26  C   UNL     1      39.901 -10.228   7.465  1.00  0.00     0.157 C 
BRANCH  26  27
HETATM   27  N   UNL     1      40.629  -9.587   8.547  1.00  0.00    -0.341 N 
HETATM   28  C   UNL     1      40.153  -9.404   9.811  1.00  0.00     0.318 C 
HETATM   29  N   UNL     1      41.105  -9.124  10.770  1.00  0.00    -0.330 N 
HETATM   30  O   UNL     1      38.947  -9.470  10.041  1.00  0.00    -0.247 OA
HETATM   31  C   UNL     1      42.482  -9.647  10.698  1.00  0.00     0.153 C 
HETATM   32  C   UNL     1      40.620  -8.959  12.147  1.00  0.00     0.153 C 
HETATM   33  C   UNL     1      43.427  -8.913  11.654  1.00  0.00     0.187 C 
HETATM   34  O   UNL     1      42.911  -8.916  12.989  1.00  0.00    -0.388 OA
HETATM   35  C   UNL     1      41.643  -8.250  13.036  1.00  0.00     0.187 C 
HETATM   36  H   UNL     1      41.540  -9.202   8.340  1.00  0.00     0.164 HD
ENDBRANCH  26  27
ENDBRANCH   4  26
TORSDOF 4
ENDMDL
MODEL 9
REMARK VINA RESULT:      -9.4      3.449      5.949
REMARK  4 active torsions:
REMARK  status: ('A' for Active; 'I' for Inactive)
REMARK    1  A    between atoms: C_4  and  C_5 
REMARK    2  A    between atoms: C_16  and  C_17 
REMARK    3  A    between atoms: C_20  and  C_21 
REMARK    4  A    between atoms: C_21  and  N_22 
REMARK       I    between atoms: N_22  and  C_23 
REMARK       I    between atoms: C_23  and  N_24 
ROOT
HETATM    1  C   UNL     1      40.423 -11.850   2.174  1.00  0.00     0.067 C 
HETATM    2  C   UNL     1      40.710 -10.353   1.940  1.00  0.00     0.001 C 
HETATM    3  C   UNL     1      40.911  -9.600   3.272  1.00  0.00     0.040 C 
HETATM    4  C   UNL     1      39.655  -9.673   4.158  1.00  0.00     0.206 C 
HETATM    5  N   UNL     1      38.680 -10.598   3.451  1.00  0.00    -0.065 N 
HETATM    6  H   UNL     1      37.873 -10.743   4.099  1.00  0.00     0.280 HD
HETATM    7  C   UNL     1      39.247 -11.975   3.183  1.00  0.00     0.246 C 
HETATM    8  C   UNL     1      39.438  -9.748   1.280  1.00  0.00     0.033 C 
HETATM    9  C   UNL     1      38.204  -9.979   2.164  1.00  0.00     0.236 C 
ENDROOT
BRANCH   1  10
HETATM   10  C   UNL     1      41.515 -12.818   2.556  1.00  0.00     0.038 C 
HETATM   11  N   UNL     1      42.732 -12.650   3.174  1.00  0.00    -0.277 N 
HETATM   12  C   UNL     1      43.508 -11.470   3.470  1.00  0.00     0.179 C 
HETATM   13  N   UNL     1      43.277 -13.816   3.576  1.00  0.00    -0.172 NA
HETATM   14  C   UNL     1      42.547 -14.774   2.995  1.00  0.00     0.089 C 
HETATM   15  C   UNL     1      41.451 -14.187   2.326  1.00  0.00     0.061 C 
BRANCH  14  16
HETATM   16  C   UNL     1      42.844 -16.200   3.135  1.00  0.00    -0.005 A 
HETATM   17  C   UNL     1      42.997 -16.772   4.408  1.00  0.00     0.026 A 
HETATM   18  C   UNL     1      43.361 -18.122   4.562  1.00  0.00    -0.025 A 
HETATM   19  C   UNL     1      43.569 -18.918   3.413  1.00  0.00    -0.026 A 
HETATM   20  C   UNL     1      43.530 -18.692   5.834  1.00  0.00     0.012 A 
HETATM   21  C   UNL     1      43.388 -18.349   2.143  1.00  0.00     0.013 A 
HETATM   22  C   UNL     1      43.955 -20.258   3.570  1.00  0.00     0.012 A 
HETATM   23  C   UNL     1      43.025 -17.004   2.007  1.00  0.00     0.014 A 
HETATM   24  C   UNL     1      44.127 -20.808   4.841  1.00  0.00     0.001 A 
HETATM   25  C   UNL     1      43.913 -20.026   5.972  1.00  0.00     0.001 A 
ENDBRANCH  14  16
ENDBRANCH   1  10
BRANCH   4  26
HETATM   26  C   UNL     1      39.994 -10.102   5.609  1.00  0.00     0.157 C 
BRANCH  26  27
HETATM   27  N   UNL     1      41.402 -10.117   5.972  1.00  0.00    -0.341 N 
HETATM   28  C   UNL     1      41.926  -9.556   7.099  1.00  0.00     0.318 C 
HETATM   29  N   UNL     1      43.189  -9.989   7.447  1.00  0.00    -0.330 N 
HETATM   30  O   UNL     1      41.295  -8.707   7.727  1.00  0.00    -0.247 OA
HETATM   31  C   UNL     1      43.669 -11.353   7.155  1.00  0.00     0.153 C 
HETATM   32  C   UNL     1      43.760  -9.426   8.677  1.00  0.00     0.153 C 
HETATM   33  C   UNL     1      45.189 -11.470   7.300  1.00  0.00     0.187 C 
HETATM   34  O   UNL     1      45.621 -11.002   8.581  1.00  0.00    -0.388 OA
HETATM   35  C   UNL     1      45.275  -9.622   8.752  1.00  0.00     0.187 C 
HETATM   36  H   UNL     1      42.053 -10.531   5.321  1.00  0.00     0.164 HD
ENDBRANCH  26  27
ENDBRANCH   4  26
TORSDOF 4
ENDMDL
MODEL 10
REMARK VINA RESULT:      -9.4      1.710      2.202
REMARK  4 active torsions:
REMARK  status: ('A' for Active; 'I' for Inactive)
REMARK    1  A    between atoms: C_4  and  C_5 
REMARK    2  A    between atoms: C_16  and  C_17 
REMARK    3  A    between atoms: C_20  and  C_21 
REMARK    4  A    between atoms: C_21  and  N_22 
REMARK       I    between atoms: N_22  and  C_23 
REMARK       I    between atoms: C_23  and  N_24 
ROOT
HETATM    1  C   UNL     1      42.220 -11.164   4.390  1.00  0.00     0.067 C 
HETATM    2  C   UNL     1      41.105 -10.529   5.245  1.00  0.00     0.001 C 
HETATM    3  C   UNL     1      39.730 -11.167   4.950  1.00  0.00     0.040 C 
HETATM    4  C   UNL     1      39.322 -10.972   3.480  1.00  0.00     0.206 C 
HETATM    5  N   UNL     1      40.504 -10.321   2.783  1.00  0.00    -0.065 N 
HETATM    6  H   UNL     1      40.277 -10.289   1.764  1.00  0.00     0.280 HD
HETATM    7  C   UNL     1      41.782 -11.121   2.899  1.00  0.00     0.246 C 
HETATM    8  C   UNL     1      40.999  -9.039   4.814  1.00  0.00     0.033 C 
HETATM    9  C   UNL     1      40.722  -8.926   3.307  1.00  0.00     0.236 C 
ENDROOT
BRANCH   1  10
HETATM   10  C   UNL     1      42.785 -12.526   4.706  1.00  0.00     0.038 C 
HETATM   11  N   UNL     1      43.376 -13.050   5.832  1.00  0.00    -0.277 N 
HETATM   12  C   UNL     1      43.880 -12.429   7.033  1.00  0.00     0.179 C 
HETATM   13  N   UNL     1      43.485 -14.393   5.786  1.00  0.00    -0.172 NA
HETATM   14  C   UNL     1      43.206 -14.734   4.524  1.00  0.00     0.089 C 
HETATM   15  C   UNL     1      42.789 -13.589   3.810  1.00  0.00     0.061 C 
BRANCH  14  16
HETATM   16  C   UNL     1      43.263 -16.113   4.038  1.00  0.00    -0.005 A 
HETATM   17  C   UNL     1      43.528 -17.169   4.924  1.00  0.00     0.026 A 
HETATM   18  C   UNL     1      43.667 -18.491   4.464  1.00  0.00    -0.025 A 
HETATM   19  C   UNL     1      43.529 -18.760   3.084  1.00  0.00    -0.026 A 
HETATM   20  C   UNL     1      43.948 -19.546   5.347  1.00  0.00     0.012 A 
HETATM   21  C   UNL     1      43.237 -17.706   2.205  1.00  0.00     0.013 A 
HETATM   22  C   UNL     1      43.691 -20.077   2.624  1.00  0.00     0.012 A 
HETATM   23  C   UNL     1      43.101 -16.397   2.679  1.00  0.00     0.014 A 
HETATM   24  C   UNL     1      43.979 -21.114   3.514  1.00  0.00     0.001 A 
HETATM   25  C   UNL     1      44.104 -20.849   4.874  1.00  0.00     0.001 A 
ENDBRANCH  14  16
ENDBRANCH   1  10
BRANCH   4  26
HETATM   26  C   UNL     1      38.857 -12.300   2.827  1.00  0.00     0.157 C 
BRANCH  26  27
HETATM   27  N   UNL     1      38.120 -12.191   1.579  1.00  0.00    -0.341 N 
HETATM   28  C   UNL     1      37.625 -11.031   1.060  1.00  0.00     0.318 C 
HETATM   29  N   UNL     1      37.294 -11.072  -0.278  1.00  0.00    -0.330 N 
HETATM   30  O   UNL     1      37.478 -10.039   1.773  1.00  0.00    -0.247 OA
HETATM   31  C   UNL     1      38.005 -11.928  -1.247  1.00  0.00     0.153 C 
HETATM   32  C   UNL     1      36.793  -9.823  -0.869  1.00  0.00     0.153 C 
HETATM   33  C   UNL     1      37.231 -12.075  -2.560  1.00  0.00     0.187 C 
HETATM   34  O   UNL     1      36.898 -10.795  -3.106  1.00  0.00    -0.388 OA
HETATM   35  C   UNL     1      36.069 -10.063  -2.194  1.00  0.00     0.187 C 
HETATM   36  H   UNL     1      37.912 -13.042   1.077  1.00  0.00     0.164 HD
ENDBRANCH  26  27
ENDBRANCH   4  26
TORSDOF 4
ENDMDL
