MODEL 1
REMARK VINA RESULT:      -8.2      0.000      0.000
REMARK  3 active torsions:
REMARK  status: ('A' for Active; 'I' for Inactive)
REMARK    1  A    between atoms: C_2  and  O_3 
REMARK    2  A    between atoms: O_3  and  C_4 
REMARK    3  A    between atoms: C_8  and  N_9 
REMARK       I    between atoms: N_9  and  C_10 
REMARK       I    between atoms: C_10  and  N_11 
ROOT
HETATM    1  N   UNL     1      40.986 -14.623   0.181  1.00  0.00    -0.306 N 
HETATM    2  C   UNL     1      40.688 -13.286   0.043  1.00  0.00     0.323 C 
HETATM    3  N   UNL     1      40.003 -12.953  -1.121  1.00  0.00    -0.328 N 
HETATM    4  C   UNL     1      39.665 -11.532  -1.303  1.00  0.00     0.185 C 
HETATM    5  C   UNL     1      38.333 -11.435  -1.962  1.00  0.00     0.035 A 
HETATM    6  C   UNL     1      37.616 -12.461  -2.546  1.00  0.00    -0.020 A 
HETATM    7  C   UNL     1      38.127 -13.856  -2.540  1.00  0.00     0.061 C 
HETATM    8  C   UNL     1      39.639 -13.862  -2.233  1.00  0.00     0.132 C 
HETATM    9  N   UNL     1      37.596 -10.288  -2.073  1.00  0.00    -0.357 N 
HETATM   10  H   UNL     1      37.861  -9.382  -1.714  1.00  0.00     0.166 HD
HETATM   11  C   UNL     1      36.414 -10.554  -2.732  1.00  0.00     0.043 A 
HETATM   12  C   UNL     1      36.404 -11.916  -3.046  1.00  0.00    -0.001 A 
HETATM   13  C   UNL     1      35.355  -9.699  -3.061  1.00  0.00     0.030 A 
HETATM   14  C   UNL     1      34.260 -10.251  -3.732  1.00  0.00     0.002 A 
HETATM   15  C   UNL     1      34.226 -11.604  -4.060  1.00  0.00     0.001 A 
HETATM   16  C   UNL     1      35.290 -12.448  -3.722  1.00  0.00     0.014 A 
HETATM   17  O   UNL     1      41.022 -12.429   0.858  1.00  0.00    -0.247 OA
HETATM   18  H   UNL     1      41.241 -15.092  -0.671  1.00  0.00     0.171 HD
ENDROOT
BRANCH   1  19
HETATM   19  C   UNL     1      41.412 -15.250   1.375  1.00  0.00     0.075 A 
HETATM   20  C   UNL     1      40.554 -15.694   2.389  1.00  0.00     0.145 A 
HETATM   21  C   UNL     1      41.048 -16.279   3.557  1.00  0.00     0.081 A 
HETATM   22  F   UNL     1      39.221 -15.653   2.246  1.00  0.00    -0.204 F 
HETATM   23  C   UNL     1      42.419 -16.447   3.722  1.00  0.00     0.072 A 
HETATM   24  C   UNL     1      43.280 -16.075   2.687  1.00  0.00     0.039 A 
HETATM   25  C   UNL     1      42.784 -15.479   1.523  1.00  0.00     0.035 A 
BRANCH  23  26
HETATM   26  O   UNL     1      43.034 -16.996   4.811  1.00  0.00    -0.347 OA
BRANCH  26  27
HETATM   27  C   UNL     1      43.387 -16.132   5.899  1.00  0.00     0.120 C 
HETATM   28  C   UNL     1      44.799 -16.443   6.396  1.00  0.00     0.040 C 
HETATM   29  C   UNL     1      42.376 -16.401   7.013  1.00  0.00     0.040 C 
ENDBRANCH  26  27
ENDBRANCH  23  26
ENDBRANCH   1  19
TORSDOF 3
ENDMDL
MODEL 2
REMARK VINA RESULT:      -8.2      6.908     10.660
REMARK  3 active torsions:
REMARK  status: ('A' for Active; 'I' for Inactive)
REMARK    1  A    between atoms: C_2  and  O_3 
REMARK    2  A    between atoms: O_3  and  C_4 
REMARK    3  A    between atoms: C_8  and  N_9 
REMARK       I    between atoms: N_9  and  C_10 
REMARK       I    between atoms: C_10  and  N_11 
ROOT
HETATM    1  N   UNL     1      42.618 -12.237   5.714  1.00  0.00    -0.306 N 
HETATM    2  C   UNL     1      43.577 -11.917   6.649  1.00  0.00     0.323 C 
HETATM    3  N   UNL     1      43.392 -10.695   7.288  1.00  0.00    -0.328 N 
HETATM    4  C   UNL     1      44.396 -10.319   8.296  1.00  0.00     0.185 C 
HETATM    5  C   UNL     1      43.714  -9.604   9.411  1.00  0.00     0.035 A 
HETATM    6  C   UNL     1      42.417  -9.132   9.427  1.00  0.00    -0.020 A 
HETATM    7  C   UNL     1      41.510  -9.336   8.268  1.00  0.00     0.061 C 
HETATM    8  C   UNL     1      42.332  -9.696   7.013  1.00  0.00     0.132 C 
HETATM    9  N   UNL     1      44.283  -9.320  10.621  1.00  0.00    -0.357 N 
HETATM   10  H   UNL     1      45.221  -9.569  10.903  1.00  0.00     0.166 HD
HETATM   11  C   UNL     1      43.376  -8.657  11.420  1.00  0.00     0.043 A 
HETATM   12  C   UNL     1      42.192  -8.521  10.689  1.00  0.00    -0.001 A 
HETATM   13  C   UNL     1      43.508  -8.182  12.730  1.00  0.00     0.030 A 
HETATM   14  C   UNL     1      42.403  -7.548  13.306  1.00  0.00     0.002 A 
HETATM   15  C   UNL     1      41.213  -7.395  12.597  1.00  0.00     0.001 A 
HETATM   16  C   UNL     1      41.093  -7.878  11.290  1.00  0.00     0.014 A 
HETATM   17  O   UNL     1      44.550 -12.627   6.892  1.00  0.00    -0.247 OA
HETATM   18  H   UNL     1      42.281 -11.462   5.169  1.00  0.00     0.171 HD
ENDROOT
BRANCH   1  19
HETATM   19  C   UNL     1      42.422 -13.517   5.145  1.00  0.00     0.075 A 
HETATM   20  C   UNL     1      41.615 -14.518   5.701  1.00  0.00     0.145 A 
HETATM   21  C   UNL     1      41.491 -15.771   5.097  1.00  0.00     0.081 A 
HETATM   22  F   UNL     1      40.864 -14.289   6.788  1.00  0.00    -0.204 F 
HETATM   23  C   UNL     1      42.163 -16.039   3.909  1.00  0.00     0.072 A 
HETATM   24  C   UNL     1      42.911 -15.025   3.308  1.00  0.00     0.039 A 
HETATM   25  C   UNL     1      43.043 -13.774   3.919  1.00  0.00     0.035 A 
BRANCH  23  26
HETATM   26  O   UNL     1      42.133 -17.218   3.220  1.00  0.00    -0.347 OA
BRANCH  26  27
HETATM   27  C   UNL     1      43.377 -17.883   2.960  1.00  0.00     0.120 C 
HETATM   28  C   UNL     1      43.144 -19.159   2.151  1.00  0.00     0.040 C 
HETATM   29  C   UNL     1      43.972 -18.237   4.323  1.00  0.00     0.040 C 
ENDBRANCH  26  27
ENDBRANCH  23  26
ENDBRANCH   1  19
TORSDOF 3
ENDMDL
MODEL 3
REMARK VINA RESULT:      -8.2      7.151     11.133
REMARK  3 active torsions:
REMARK  status: ('A' for Active; 'I' for Inactive)
REMARK    1  A    between atoms: C_2  and  O_3 
REMARK    2  A    between atoms: O_3  and  C_4 
REMARK    3  A    between atoms: C_8  and  N_9 
REMARK       I    between atoms: N_9  and  C_10 
REMARK       I    between atoms: C_10  and  N_11 
ROOT
HETATM    1  N   UNL     1      42.761 -11.812   6.263  1.00  0.00    -0.306 N 
HETATM    2  C   UNL     1      43.683 -11.412   7.203  1.00  0.00     0.323 C 
HETATM    3  N   UNL     1      43.356 -10.247   7.890  1.00  0.00    -0.328 N 
HETATM    4  C   UNL     1      44.318  -9.789   8.906  1.00  0.00     0.185 C 
HETATM    5  C   UNL     1      43.565  -9.206  10.051  1.00  0.00     0.035 A 
HETATM    6  C   UNL     1      42.220  -8.896  10.093  1.00  0.00    -0.020 A 
HETATM    7  C   UNL     1      41.333  -9.167   8.933  1.00  0.00     0.061 C 
HETATM    8  C   UNL     1      42.179  -9.376   7.660  1.00  0.00     0.132 C 
HETATM    9  N   UNL     1      44.108  -8.899  11.268  1.00  0.00    -0.357 N 
HETATM   10  H   UNL     1      45.072  -9.042  11.536  1.00  0.00     0.166 HD
HETATM   11  C   UNL     1      43.134  -8.383  12.098  1.00  0.00     0.043 A 
HETATM   12  C   UNL     1      41.935  -8.366  11.379  1.00  0.00    -0.001 A 
HETATM   13  C   UNL     1      43.221  -7.945  13.425  1.00  0.00     0.030 A 
HETATM   14  C   UNL     1      42.053  -7.473  14.030  1.00  0.00     0.002 A 
HETATM   15  C   UNL     1      40.846  -7.441  13.335  1.00  0.00     0.001 A 
HETATM   16  C   UNL     1      40.772  -7.886  12.011  1.00  0.00     0.014 A 
HETATM   17  O   UNL     1      44.738 -12.006   7.413  1.00  0.00    -0.247 OA
HETATM   18  H   UNL     1      42.325 -11.065   5.750  1.00  0.00     0.171 HD
ENDROOT
BRANCH   1  19
HETATM   19  C   UNL     1      42.716 -13.084   5.646  1.00  0.00     0.075 A 
HETATM   20  C   UNL     1      43.086 -13.337   4.319  1.00  0.00     0.145 A 
HETATM   21  C   UNL     1      42.988 -14.617   3.767  1.00  0.00     0.081 A 
HETATM   22  F   UNL     1      43.625 -12.381   3.548  1.00  0.00    -0.204 F 
HETATM   23  C   UNL     1      42.534 -15.675   4.546  1.00  0.00     0.072 A 
HETATM   24  C   UNL     1      42.233 -15.450   5.891  1.00  0.00     0.039 A 
HETATM   25  C   UNL     1      42.320 -14.166   6.439  1.00  0.00     0.035 A 
BRANCH  23  26
HETATM   26  O   UNL     1      42.386 -16.969   4.133  1.00  0.00    -0.347 OA
BRANCH  26  27
HETATM   27  C   UNL     1      43.495 -17.606   3.486  1.00  0.00     0.120 C 
HETATM   28  C   UNL     1      43.010 -18.506   2.350  1.00  0.00     0.040 C 
HETATM   29  C   UNL     1      44.193 -18.450   4.552  1.00  0.00     0.040 C 
ENDBRANCH  26  27
ENDBRANCH  23  26
ENDBRANCH   1  19
TORSDOF 3
ENDMDL
MODEL 4
REMARK VINA RESULT:      -8.0      7.518     10.700
REMARK  3 active torsions:
REMARK  status: ('A' for Active; 'I' for Inactive)
REMARK    1  A    between atoms: C_2  and  O_3 
REMARK    2  A    between atoms: O_3  and  C_4 
REMARK    3  A    between atoms: C_8  and  N_9 
REMARK       I    between atoms: N_9  and  C_10 
REMARK       I    between atoms: C_10  and  N_11 
ROOT
HETATM    1  N   UNL     1      43.766 -10.117   8.891  1.00  0.00    -0.306 N 
HETATM    2  C   UNL     1      42.932 -10.140   7.797  1.00  0.00     0.323 C 
HETATM    3  N   UNL     1      43.314 -11.015   6.784  1.00  0.00    -0.328 N 
HETATM    4  C   UNL     1      42.445 -11.070   5.598  1.00  0.00     0.185 C 
HETATM    5  C   UNL     1      42.398 -12.473   5.101  1.00  0.00     0.035 A 
HETATM    6  C   UNL     1      43.203 -13.523   5.494  1.00  0.00    -0.020 A 
HETATM    7  C   UNL     1      44.239 -13.346   6.544  1.00  0.00     0.061 C 
HETATM    8  C   UNL     1      44.540 -11.846   6.739  1.00  0.00     0.132 C 
HETATM    9  N   UNL     1      41.513 -12.944   4.171  1.00  0.00    -0.357 N 
HETATM   10  H   UNL     1      40.787 -12.403   3.723  1.00  0.00     0.166 HD
HETATM   11  C   UNL     1      41.741 -14.285   3.945  1.00  0.00     0.043 A 
HETATM   12  C   UNL     1      42.806 -14.674   4.763  1.00  0.00    -0.001 A 
HETATM   13  C   UNL     1      41.083 -15.180   3.093  1.00  0.00     0.030 A 
HETATM   14  C   UNL     1      41.527 -16.505   3.075  1.00  0.00     0.002 A 
HETATM   15  C   UNL     1      42.589 -16.919   3.877  1.00  0.00     0.001 A 
HETATM   16  C   UNL     1      43.235 -16.015   4.727  1.00  0.00     0.014 A 
HETATM   17  O   UNL     1      41.937  -9.427   7.687  1.00  0.00    -0.247 OA
HETATM   18  H   UNL     1      44.746 -10.201   8.681  1.00  0.00     0.171 HD
ENDROOT
BRANCH   1  19
HETATM   19  C   UNL     1      43.457  -9.542  10.146  1.00  0.00     0.075 A 
HETATM   20  C   UNL     1      43.400  -8.165  10.397  1.00  0.00     0.145 A 
HETATM   21  C   UNL     1      43.116  -7.668  11.672  1.00  0.00     0.081 A 
HETATM   22  F   UNL     1      43.534  -7.268   9.410  1.00  0.00    -0.204 F 
HETATM   23  C   UNL     1      42.863  -8.548  12.719  1.00  0.00     0.072 A 
HETATM   24  C   UNL     1      42.844  -9.921  12.464  1.00  0.00     0.039 A 
HETATM   25  C   UNL     1      43.140 -10.417  11.190  1.00  0.00     0.035 A 
BRANCH  23  26
HETATM   26  O   UNL     1      42.579  -8.199  14.008  1.00  0.00    -0.347 OA
BRANCH  26  27
HETATM   27  C   UNL     1      41.281  -8.516  14.528  1.00  0.00     0.120 C 
HETATM   28  C   UNL     1      40.196  -7.763  13.758  1.00  0.00     0.040 C 
HETATM   29  C   UNL     1      41.279  -8.073  15.990  1.00  0.00     0.040 C 
ENDBRANCH  26  27
ENDBRANCH  23  26
ENDBRANCH   1  19
TORSDOF 3
ENDMDL
MODEL 5
REMARK VINA RESULT:      -8.0      3.051      4.253
REMARK  3 active torsions:
REMARK  status: ('A' for Active; 'I' for Inactive)
REMARK    1  A    between atoms: C_2  and  O_3 
REMARK    2  A    between atoms: O_3  and  C_4 
REMARK    3  A    between atoms: C_8  and  N_9 
REMARK       I    between atoms: N_9  and  C_10 
REMARK       I    between atoms: C_10  and  N_11 
ROOT
HETATM    1  N   UNL     1      41.305 -13.977   1.877  1.00  0.00    -0.306 N 
HETATM    2  C   UNL     1      40.629 -13.846   0.685  1.00  0.00     0.323 C 
HETATM    3  N   UNL     1      40.371 -12.536   0.295  1.00  0.00    -0.328 N 
HETATM    4  C   UNL     1      39.652 -12.357  -0.976  1.00  0.00     0.185 C 
HETATM    5  C   UNL     1      40.187 -11.149  -1.665  1.00  0.00     0.035 A 
HETATM    6  C   UNL     1      41.029 -10.193  -1.135  1.00  0.00    -0.020 A 
HETATM    7  C   UNL     1      41.542 -10.306   0.255  1.00  0.00     0.061 C 
HETATM    8  C   UNL     1      40.678 -11.302   1.056  1.00  0.00     0.132 C 
HETATM    9  N   UNL     1      39.929 -10.812  -2.965  1.00  0.00    -0.357 N 
HETATM   10  H   UNL     1      39.360 -11.343  -3.609  1.00  0.00     0.166 HD
HETATM   11  C   UNL     1      40.585  -9.641  -3.283  1.00  0.00     0.043 A 
HETATM   12  C   UNL     1      41.282  -9.227  -2.145  1.00  0.00    -0.001 A 
HETATM   13  C   UNL     1      40.623  -8.929  -4.488  1.00  0.00     0.030 A 
HETATM   14  C   UNL     1      41.390  -7.761  -4.528  1.00  0.00     0.002 A 
HETATM   15  C   UNL     1      42.092  -7.323  -3.406  1.00  0.00     0.001 A 
HETATM   16  C   UNL     1      42.048  -8.047  -2.209  1.00  0.00     0.014 A 
HETATM   17  O   UNL     1      40.244 -14.803   0.016  1.00  0.00    -0.247 OA
HETATM   18  H   UNL     1      41.048 -13.312   2.586  1.00  0.00     0.171 HD
ENDROOT
BRANCH   1  19
HETATM   19  C   UNL     1      41.927 -15.159   2.343  1.00  0.00     0.075 A 
HETATM   20  C   UNL     1      41.558 -15.844   3.507  1.00  0.00     0.145 A 
HETATM   21  C   UNL     1      42.238 -16.992   3.922  1.00  0.00     0.081 A 
HETATM   22  F   UNL     1      40.489 -15.476   4.227  1.00  0.00    -0.204 F 
HETATM   23  C   UNL     1      43.292 -17.487   3.162  1.00  0.00     0.072 A 
HETATM   24  C   UNL     1      43.621 -16.855   1.962  1.00  0.00     0.039 A 
HETATM   25  C   UNL     1      42.947 -15.699   1.553  1.00  0.00     0.035 A 
BRANCH  23  26
HETATM   26  O   UNL     1      44.042 -18.591   3.455  1.00  0.00    -0.347 OA
BRANCH  26  27
HETATM   27  C   UNL     1      43.427 -19.881   3.332  1.00  0.00     0.120 C 
HETATM   28  C   UNL     1      43.978 -20.841   4.385  1.00  0.00     0.040 C 
HETATM   29  C   UNL     1      43.770 -20.394   1.934  1.00  0.00     0.040 C 
ENDBRANCH  26  27
ENDBRANCH  23  26
ENDBRANCH   1  19
TORSDOF 3
ENDMDL
MODEL 6
REMARK VINA RESULT:      -8.0      6.147      9.835
REMARK  3 active torsions:
REMARK  status: ('A' for Active; 'I' for Inactive)
REMARK    1  A    between atoms: C_2  and  O_3 
REMARK    2  A    between atoms: O_3  and  C_4 
REMARK    3  A    between atoms: C_8  and  N_9 
REMARK       I    between atoms: N_9  and  C_10 
REMARK       I    between atoms: C_10  and  N_11 
ROOT
HETATM    1  N   UNL     1      42.033 -12.456   5.489  1.00  0.00    -0.306 N 
HETATM    2  C   UNL     1      42.183 -13.120   4.292  1.00  0.00     0.323 C 
HETATM    3  N   UNL     1      43.068 -14.193   4.321  1.00  0.00    -0.328 N 
HETATM    4  C   UNL     1      43.252 -14.930   3.061  1.00  0.00     0.185 C 
HETATM    5  C   UNL     1      43.422 -16.377   3.370  1.00  0.00     0.035 A 
HETATM    6  C   UNL     1      43.630 -16.945   4.611  1.00  0.00    -0.020 A 
HETATM    7  C   UNL     1      43.671 -16.111   5.840  1.00  0.00     0.061 C 
HETATM    8  C   UNL     1      43.901 -14.632   5.466  1.00  0.00     0.132 C 
HETATM    9  N   UNL     1      43.379 -17.384   2.446  1.00  0.00    -0.357 N 
HETATM   10  H   UNL     1      43.216 -17.268   1.456  1.00  0.00     0.166 HD
HETATM   11  C   UNL     1      43.567 -18.600   3.070  1.00  0.00     0.043 A 
HETATM   12  C   UNL     1      43.733 -18.350   4.435  1.00  0.00    -0.001 A 
HETATM   13  C   UNL     1      43.591 -19.893   2.535  1.00  0.00     0.030 A 
HETATM   14  C   UNL     1      43.794 -20.958   3.418  1.00  0.00     0.002 A 
HETATM   15  C   UNL     1      43.966 -20.736   4.782  1.00  0.00     0.001 A 
HETATM   16  C   UNL     1      43.936 -19.439   5.305  1.00  0.00     0.014 A 
HETATM   17  O   UNL     1      41.612 -12.787   3.256  1.00  0.00    -0.247 OA
HETATM   18  H   UNL     1      42.875 -12.363   6.031  1.00  0.00     0.171 HD
ENDROOT
BRANCH   1  19
HETATM   19  C   UNL     1      41.004 -11.534   5.793  1.00  0.00     0.075 A 
HETATM   20  C   UNL     1      39.650 -11.868   5.917  1.00  0.00     0.145 A 
HETATM   21  C   UNL     1      38.683 -10.897   6.190  1.00  0.00     0.081 A 
HETATM   22  F   UNL     1      39.235 -13.141   5.860  1.00  0.00    -0.204 F 
HETATM   23  C   UNL     1      39.062  -9.570   6.364  1.00  0.00     0.072 A 
HETATM   24  C   UNL     1      40.418  -9.238   6.316  1.00  0.00     0.039 A 
HETATM   25  C   UNL     1      41.383 -10.209   6.031  1.00  0.00     0.035 A 
BRANCH  23  26
HETATM   26  O   UNL     1      38.223  -8.526   6.629  1.00  0.00    -0.347 OA
BRANCH  26  27
HETATM   27  C   UNL     1      38.417  -7.300   5.910  1.00  0.00     0.120 C 
HETATM   28  C   UNL     1      38.088  -6.100   6.797  1.00  0.00     0.040 C 
HETATM   29  C   UNL     1      37.460  -7.340   4.719  1.00  0.00     0.040 C 
ENDBRANCH  26  27
ENDBRANCH  23  26
ENDBRANCH   1  19
TORSDOF 3
ENDMDL
MODEL 7
REMARK VINA RESULT:      -7.9      3.140      9.704
REMARK  3 active torsions:
REMARK  status: ('A' for Active; 'I' for Inactive)
REMARK    1  A    between atoms: C_2  and  O_3 
REMARK    2  A    between atoms: O_3  and  C_4 
REMARK    3  A    between atoms: C_8  and  N_9 
REMARK       I    between atoms: N_9  and  C_10 
REMARK       I    between atoms: C_10  and  N_11 
ROOT
HETATM    1  N   UNL     1      41.240 -12.625   2.406  1.00  0.00    -0.306 N 
HETATM    2  C   UNL     1      41.671 -13.711   1.678  1.00  0.00     0.323 C 
HETATM    3  N   UNL     1      42.606 -14.516   2.321  1.00  0.00    -0.328 N 
HETATM    4  C   UNL     1      43.090 -15.689   1.574  1.00  0.00     0.185 C 
HETATM    5  C   UNL     1      43.297 -16.814   2.529  1.00  0.00     0.035 A 
HETATM    6  C   UNL     1      43.292 -16.748   3.907  1.00  0.00    -0.020 A 
HETATM    7  C   UNL     1      43.029 -15.468   4.614  1.00  0.00     0.061 C 
HETATM    8  C   UNL     1      43.224 -14.282   3.647  1.00  0.00     0.132 C 
HETATM    9  N   UNL     1      43.509 -18.115   2.168  1.00  0.00    -0.357 N 
HETATM   10  H   UNL     1      43.539 -18.467   1.221  1.00  0.00     0.166 HD
HETATM   11  C   UNL     1      43.655 -18.895   3.296  1.00  0.00     0.043 A 
HETATM   12  C   UNL     1      43.528 -18.056   4.407  1.00  0.00    -0.001 A 
HETATM   13  C   UNL     1      43.876 -20.272   3.417  1.00  0.00     0.030 A 
HETATM   14  C   UNL     1      43.974 -20.804   4.706  1.00  0.00     0.002 A 
HETATM   15  C   UNL     1      43.855 -19.989   5.830  1.00  0.00     0.001 A 
HETATM   16  C   UNL     1      43.630 -18.615   5.695  1.00  0.00     0.014 A 
HETATM   17  O   UNL     1      41.296 -13.951   0.533  1.00  0.00    -0.247 OA
HETATM   18  H   UNL     1      41.948 -12.178   2.964  1.00  0.00     0.171 HD
ENDROOT
BRANCH   1  19
HETATM   19  C   UNL     1      40.108 -11.831   2.104  1.00  0.00     0.075 A 
HETATM   20  C   UNL     1      38.781 -12.255   2.243  1.00  0.00     0.145 A 
HETATM   21  C   UNL     1      37.712 -11.425   1.897  1.00  0.00     0.081 A 
HETATM   22  F   UNL     1      38.478 -13.441   2.791  1.00  0.00    -0.204 F 
HETATM   23  C   UNL     1      37.956 -10.142   1.420  1.00  0.00     0.072 A 
HETATM   24  C   UNL     1      39.272  -9.683   1.346  1.00  0.00     0.039 A 
HETATM   25  C   UNL     1      40.342 -10.518   1.683  1.00  0.00     0.035 A 
BRANCH  23  26
HETATM   26  O   UNL     1      37.008  -9.234   1.041  1.00  0.00    -0.347 OA
BRANCH  26  27
HETATM   27  C   UNL     1      35.803  -9.723   0.436  1.00  0.00     0.120 C 
HETATM   28  C   UNL     1      35.931  -9.728  -1.087  1.00  0.00     0.040 C 
HETATM   29  C   UNL     1      34.688  -8.767   0.858  1.00  0.00     0.040 C 
ENDBRANCH  26  27
ENDBRANCH  23  26
ENDBRANCH   1  19
TORSDOF 3
ENDMDL
MODEL 8
REMARK VINA RESULT:      -7.8      3.469      9.514
REMARK  3 active torsions:
REMARK  status: ('A' for Active; 'I' for Inactive)
REMARK    1  A    between atoms: C_2  and  O_3 
REMARK    2  A    between atoms: O_3  and  C_4 
REMARK    3  A    between atoms: C_8  and  N_9 
REMARK       I    between atoms: N_9  and  C_10 
REMARK       I    between atoms: C_10  and  N_11 
ROOT
HETATM    1  N   UNL     1      41.025 -12.842  -0.624  1.00  0.00    -0.306 N 
HETATM    2  C   UNL     1      40.254 -13.114   0.484  1.00  0.00     0.323 C 
HETATM    3  N   UNL     1      40.660 -14.218   1.226  1.00  0.00    -0.328 N 
HETATM    4  C   UNL     1      39.861 -14.540   2.420  1.00  0.00     0.185 C 
HETATM    5  C   UNL     1      40.772 -15.038   3.488  1.00  0.00     0.035 A 
HETATM    6  C   UNL     1      42.099 -15.391   3.353  1.00  0.00    -0.020 A 
HETATM    7  C   UNL     1      42.798 -15.267   2.048  1.00  0.00     0.061 C 
HETATM    8  C   UNL     1      41.767 -15.151   0.907  1.00  0.00     0.132 C 
HETATM    9  N   UNL     1      40.421 -15.205   4.799  1.00  0.00    -0.357 N 
HETATM   10  H   UNL     1      39.515 -15.001   5.197  1.00  0.00     0.166 HD
HETATM   11  C   UNL     1      41.502 -15.674   5.516  1.00  0.00     0.043 A 
HETATM   12  C   UNL     1      42.572 -15.805   4.626  1.00  0.00    -0.001 A 
HETATM   13  C   UNL     1      41.616 -15.978   6.878  1.00  0.00     0.030 A 
HETATM   14  C   UNL     1      42.854 -16.432   7.340  1.00  0.00     0.002 A 
HETATM   15  C   UNL     1      43.936 -16.576   6.474  1.00  0.00     0.001 A 
HETATM   16  C   UNL     1      43.809 -16.265   5.116  1.00  0.00     0.014 A 
HETATM   17  O   UNL     1      39.258 -12.463   0.793  1.00  0.00    -0.247 OA
HETATM   18  H   UNL     1      41.358 -13.651  -1.119  1.00  0.00     0.171 HD
ENDROOT
BRANCH   1  19
HETATM   19  C   UNL     1      40.999 -11.638  -1.365  1.00  0.00     0.075 A 
HETATM   20  C   UNL     1      40.412 -11.496  -2.629  1.00  0.00     0.145 A 
HETATM   21  C   UNL     1      40.450 -10.280  -3.317  1.00  0.00     0.081 A 
HETATM   22  F   UNL     1      39.719 -12.494  -3.195  1.00  0.00    -0.204 F 
HETATM   23  C   UNL     1      41.064  -9.175  -2.739  1.00  0.00     0.072 A 
HETATM   24  C   UNL     1      41.588  -9.285  -1.449  1.00  0.00     0.039 A 
HETATM   25  C   UNL     1      41.559 -10.504  -0.766  1.00  0.00     0.035 A 
BRANCH  23  26
HETATM   26  O   UNL     1      41.176  -7.935  -3.301  1.00  0.00    -0.347 OA
BRANCH  26  27
HETATM   27  C   UNL     1      42.419  -7.234  -3.157  1.00  0.00     0.120 C 
HETATM   28  C   UNL     1      42.193  -5.867  -2.513  1.00  0.00     0.040 C 
HETATM   29  C   UNL     1      42.982  -7.055  -4.566  1.00  0.00     0.040 C 
ENDBRANCH  26  27
ENDBRANCH  23  26
ENDBRANCH   1  19
TORSDOF 3
ENDMDL
MODEL 9
REMARK VINA RESULT:      -7.8      4.148      9.509
REMARK  3 active torsions:
REMARK  status: ('A' for Active; 'I' for Inactive)
REMARK    1  A    between atoms: C_2  and  O_3 
REMARK    2  A    between atoms: O_3  and  C_4 
REMARK    3  A    between atoms: C_8  and  N_9 
REMARK       I    between atoms: N_9  and  C_10 
REMARK       I    between atoms: C_10  and  N_11 
ROOT
HETATM    1  N   UNL     1      40.442 -12.000   0.974  1.00  0.00    -0.306 N 
HETATM    2  C   UNL     1      41.073 -12.290   2.163  1.00  0.00     0.323 C 
HETATM    3  N   UNL     1      40.979 -13.617   2.570  1.00  0.00    -0.328 N 
HETATM    4  C   UNL     1      41.644 -13.966   3.836  1.00  0.00     0.185 C 
HETATM    5  C   UNL     1      42.220 -15.335   3.715  1.00  0.00     0.035 A 
HETATM    6  C   UNL     1      41.985 -16.251   2.710  1.00  0.00    -0.020 A 
HETATM    7  C   UNL     1      41.103 -15.922   1.561  1.00  0.00     0.061 C 
HETATM    8  C   UNL     1      40.222 -14.703   1.905  1.00  0.00     0.132 C 
HETATM    9  N   UNL     1      43.104 -15.891   4.597  1.00  0.00    -0.357 N 
HETATM   10  H   UNL     1      43.477 -15.440   5.421  1.00  0.00     0.166 HD
HETATM   11  C   UNL     1      43.438 -17.164   4.184  1.00  0.00     0.043 A 
HETATM   12  C   UNL     1      42.742 -17.418   2.998  1.00  0.00    -0.001 A 
HETATM   13  C   UNL     1      44.307 -18.099   4.759  1.00  0.00     0.030 A 
HETATM   14  C   UNL     1      44.465 -19.326   4.107  1.00  0.00     0.002 A 
HETATM   15  C   UNL     1      43.779 -19.606   2.927  1.00  0.00     0.001 A 
HETATM   16  C   UNL     1      42.917 -18.661   2.361  1.00  0.00     0.014 A 
HETATM   17  O   UNL     1      41.653 -11.449   2.845  1.00  0.00    -0.247 OA
HETATM   18  H   UNL     1      39.572 -12.482   0.826  1.00  0.00     0.171 HD
ENDROOT
BRANCH   1  19
HETATM   19  C   UNL     1      40.625 -10.821   0.214  1.00  0.00     0.075 A 
HETATM   20  C   UNL     1      40.126  -9.562   0.569  1.00  0.00     0.145 A 
HETATM   21  C   UNL     1      40.322  -8.445  -0.247  1.00  0.00     0.081 A 
HETATM   22  F   UNL     1      39.512  -9.358   1.743  1.00  0.00    -0.204 F 
HETATM   23  C   UNL     1      41.042  -8.568  -1.430  1.00  0.00     0.072 A 
HETATM   24  C   UNL     1      41.607  -9.802  -1.758  1.00  0.00     0.039 A 
HETATM   25  C   UNL     1      41.401 -10.922  -0.946  1.00  0.00     0.035 A 
BRANCH  23  26
HETATM   26  O   UNL     1      41.301  -7.563  -2.319  1.00  0.00    -0.347 OA
BRANCH  26  27
HETATM   27  C   UNL     1      42.638  -7.428  -2.820  1.00  0.00     0.120 C 
HETATM   28  C   UNL     1      43.357  -6.272  -2.126  1.00  0.00     0.040 C 
HETATM   29  C   UNL     1      42.514  -7.137  -4.315  1.00  0.00     0.040 C 
ENDBRANCH  26  27
ENDBRANCH  23  26
ENDBRANCH   1  19
TORSDOF 3
ENDMDL
MODEL 10
REMARK VINA RESULT:      -7.5      7.505     11.486
REMARK  3 active torsions:
REMARK  status: ('A' for Active; 'I' for Inactive)
REMARK    1  A    between atoms: C_2  and  O_3 
REMARK    2  A    between atoms: O_3  and  C_4 
REMARK    3  A    between atoms: C_8  and  N_9 
REMARK       I    between atoms: N_9  and  C_10 
REMARK       I    between atoms: C_10  and  N_11 
ROOT
HETATM    1  N   UNL     1      40.812 -11.142   6.675  1.00  0.00    -0.306 N 
HETATM    2  C   UNL     1      41.760 -10.260   7.143  1.00  0.00     0.323 C 
HETATM    3  N   UNL     1      41.347  -9.464   8.207  1.00  0.00    -0.328 N 
HETATM    4  C   UNL     1      42.334  -8.509   8.737  1.00  0.00     0.185 C 
HETATM    5  C   UNL     1      42.169  -8.418  10.214  1.00  0.00     0.035 A 
HETATM    6  C   UNL     1      41.130  -8.924  10.969  1.00  0.00    -0.020 A 
HETATM    7  C   UNL     1      40.023  -9.687  10.338  1.00  0.00     0.061 C 
HETATM    8  C   UNL     1      39.998  -9.421   8.819  1.00  0.00     0.132 C 
HETATM    9  N   UNL     1      43.057  -7.819  11.064  1.00  0.00    -0.357 N 
HETATM   10  H   UNL     1      43.927  -7.382  10.795  1.00  0.00     0.166 HD
HETATM   11  C   UNL     1      42.602  -7.919  12.363  1.00  0.00     0.043 A 
HETATM   12  C   UNL     1      41.386  -8.607  12.330  1.00  0.00    -0.001 A 
HETATM   13  C   UNL     1      43.176  -7.466  13.556  1.00  0.00     0.030 A 
HETATM   14  C   UNL     1      42.487  -7.720  14.746  1.00  0.00     0.002 A 
HETATM   15  C   UNL     1      41.271  -8.400  14.741  1.00  0.00     0.001 A 
HETATM   16  C   UNL     1      40.710  -8.850  13.541  1.00  0.00     0.014 A 
HETATM   17  O   UNL     1      42.880 -10.145   6.652  1.00  0.00    -0.247 OA
HETATM   18  H   UNL     1      39.870 -10.790   6.667  1.00  0.00     0.171 HD
ENDROOT
BRANCH   1  19
HETATM   19  C   UNL     1      41.064 -12.235   5.812  1.00  0.00     0.075 A 
HETATM   20  C   UNL     1      42.069 -13.189   6.012  1.00  0.00     0.145 A 
HETATM   21  C   UNL     1      42.279 -14.227   5.101  1.00  0.00     0.081 A 
HETATM   22  F   UNL     1      42.817 -13.196   7.125  1.00  0.00    -0.204 F 
HETATM   23  C   UNL     1      41.468 -14.338   3.976  1.00  0.00     0.072 A 
HETATM   24  C   UNL     1      40.416 -13.436   3.805  1.00  0.00     0.039 A 
HETATM   25  C   UNL     1      40.214 -12.391   4.712  1.00  0.00     0.035 A 
BRANCH  23  26
HETATM   26  O   UNL     1      41.567 -15.296   3.008  1.00  0.00    -0.347 OA
BRANCH  26  27
HETATM   27  C   UNL     1      42.825 -15.965   2.841  1.00  0.00     0.120 C 
HETATM   28  C   UNL     1      43.536 -15.465   1.584  1.00  0.00     0.040 C 
HETATM   29  C   UNL     1      42.509 -17.453   2.699  1.00  0.00     0.040 C 
ENDBRANCH  26  27
ENDBRANCH  23  26
ENDBRANCH   1  19
TORSDOF 3
ENDMDL
