MODEL 1
REMARK VINA RESULT:      -8.0      0.000      0.000
REMARK  5 active torsions:
REMARK  status: ('A' for Active; 'I' for Inactive)
REMARK    1  A    between atoms: C_6  and  C_7 
REMARK    2  A    between atoms: C_7  and  C_8 
REMARK    3  A    between atoms: C_8  and  C_9 
REMARK    4  A    between atoms: C_9  and  N_10 
REMARK    5  A    between atoms: C_9  and  C_14 
ROOT
HETATM    1  C   UNL     1      41.587 -13.711   5.846  1.00  0.00     0.253 C 
ENDROOT
BRANCH   1   2
HETATM    2  C   UNL     1      42.170 -15.010   6.442  1.00  0.00     0.048 C 
BRANCH   2   3
HETATM    3  C   UNL     1      43.614 -15.364   6.061  1.00  0.00     0.081 C 
BRANCH   3   4
HETATM    4  C   UNL     1      43.677 -16.568   5.191  1.00  0.00     0.105 A 
HETATM    5  N   UNL     1      43.316 -16.595   3.922  1.00  0.00    -0.233 NA
HETATM    6  C   UNL     1      43.445 -17.915   3.541  1.00  0.00     0.085 A 
HETATM    7  C   UNL     1      43.909 -18.691   4.598  1.00  0.00     0.062 A 
HETATM    8  C   UNL     1      43.162 -18.528   2.312  1.00  0.00     0.034 A 
HETATM    9  C   UNL     1      44.111 -20.068   4.507  1.00  0.00     0.032 A 
HETATM   10  N   UNL     1      44.084 -17.803   5.628  1.00  0.00    -0.343 N 
HETATM   11  C   UNL     1      43.817 -20.665   3.276  1.00  0.00     0.002 A 
HETATM   12  C   UNL     1      43.351 -19.912   2.196  1.00  0.00     0.002 A 
HETATM   13  H   UNL     1      44.427 -18.036   6.551  1.00  0.00     0.167 HD
ENDBRANCH   3   4
ENDBRANCH   2   3
ENDBRANCH   1   2
BRANCH   1  14
HETATM   14  N   UNL     1      40.378 -13.283   6.592  1.00  0.00    -0.068 N 
HETATM   15  H   UNL     1      40.558 -12.394   7.070  1.00  0.00     0.275 HD
HETATM   16  H   UNL     1      39.591 -13.116   5.957  1.00  0.00     0.275 HD
HETATM   17  H   UNL     1      40.147 -13.993   7.310  1.00  0.00     0.275 HD
ENDBRANCH   1  14
BRANCH   1  18
HETATM   18  C   UNL     1      41.218 -13.908   4.411  1.00  0.00     0.136 A 
HETATM   19  N   UNL     1      41.473 -13.051   3.444  1.00  0.00    -0.231 NA
HETATM   20  C   UNL     1      40.978 -13.636   2.299  1.00  0.00     0.085 A 
HETATM   21  C   UNL     1      40.450 -14.891   2.578  1.00  0.00     0.062 A 
HETATM   22  C   UNL     1      40.950 -13.156   0.983  1.00  0.00     0.034 A 
HETATM   23  N   UNL     1      40.612 -15.043   3.931  1.00  0.00    -0.341 N 
HETATM   24  C   UNL     1      39.898 -15.726   1.604  1.00  0.00     0.032 A 
HETATM   25  H   UNL     1      40.331 -15.859   4.459  1.00  0.00     0.167 HD
HETATM   26  C   UNL     1      39.881 -15.232   0.295  1.00  0.00     0.002 A 
HETATM   27  C   UNL     1      40.394 -13.970  -0.012  1.00  0.00     0.002 A 
ENDBRANCH   1  18
TORSDOF 5
ENDMDL
MODEL 2
REMARK VINA RESULT:      -7.9      1.842      2.928
REMARK  5 active torsions:
REMARK  status: ('A' for Active; 'I' for Inactive)
REMARK    1  A    between atoms: C_6  and  C_7 
REMARK    2  A    between atoms: C_7  and  C_8 
REMARK    3  A    between atoms: C_8  and  C_9 
REMARK    4  A    between atoms: C_9  and  N_10 
REMARK    5  A    between atoms: C_9  and  C_14 
ROOT
HETATM    1  C   UNL     1      40.832 -14.080   2.883  1.00  0.00     0.253 C 
ENDROOT
BRANCH   1   2
HETATM    2  C   UNL     1      42.342 -14.299   3.118  1.00  0.00     0.048 C 
BRANCH   2   3
HETATM    3  C   UNL     1      43.070 -15.233   2.142  1.00  0.00     0.081 C 
BRANCH   3   4
HETATM    4  C   UNL     1      43.240 -16.598   2.707  1.00  0.00     0.105 A 
HETATM    5  N   UNL     1      43.568 -16.855   3.959  1.00  0.00    -0.233 NA
HETATM    6  C   UNL     1      43.709 -18.226   4.019  1.00  0.00     0.085 A 
HETATM    7  C   UNL     1      43.443 -18.803   2.782  1.00  0.00     0.062 A 
HETATM    8  C   UNL     1      44.084 -19.046   5.093  1.00  0.00     0.034 A 
HETATM    9  C   UNL     1      43.532 -20.175   2.541  1.00  0.00     0.032 A 
HETATM   10  N   UNL     1      43.111 -17.749   1.971  1.00  0.00    -0.343 N 
HETATM   11  C   UNL     1      43.915 -20.977   3.622  1.00  0.00     0.002 A 
HETATM   12  C   UNL     1      44.186 -20.426   4.876  1.00  0.00     0.002 A 
HETATM   13  H   UNL     1      42.847 -17.818   0.997  1.00  0.00     0.167 HD
ENDBRANCH   3   4
ENDBRANCH   2   3
ENDBRANCH   1   2
BRANCH   1  14
HETATM   14  N   UNL     1      40.047 -15.243   3.366  1.00  0.00    -0.068 N 
HETATM   15  H   UNL     1      39.156 -15.297   2.864  1.00  0.00     0.275 HD
HETATM   16  H   UNL     1      40.538 -16.124   3.179  1.00  0.00     0.275 HD
HETATM   17  H   UNL     1      39.843 -15.125   4.374  1.00  0.00     0.275 HD
ENDBRANCH   1  14
BRANCH   1  18
HETATM   18  C   UNL     1      40.548 -13.882   1.429  1.00  0.00     0.136 A 
HETATM   19  N   UNL     1      41.022 -12.894   0.697  1.00  0.00    -0.231 NA
HETATM   20  C   UNL     1      40.524 -13.108  -0.569  1.00  0.00     0.085 A 
HETATM   21  C   UNL     1      39.767 -14.274  -0.609  1.00  0.00     0.062 A 
HETATM   22  C   UNL     1      40.681 -12.352  -1.739  1.00  0.00     0.034 A 
HETATM   23  N   UNL     1      39.795 -14.749   0.677  1.00  0.00    -0.341 N 
HETATM   24  C   UNL     1      39.157 -14.754  -1.769  1.00  0.00     0.032 A 
HETATM   25  H   UNL     1      39.337 -15.596   0.990  1.00  0.00     0.167 HD
HETATM   26  C   UNL     1      39.327 -13.989  -2.928  1.00  0.00     0.002 A 
HETATM   27  C   UNL     1      40.072 -12.807  -2.915  1.00  0.00     0.002 A 
ENDBRANCH   1  18
TORSDOF 5
ENDMDL
MODEL 3
REMARK VINA RESULT:      -7.8      3.408      7.356
REMARK  5 active torsions:
REMARK  status: ('A' for Active; 'I' for Inactive)
REMARK    1  A    between atoms: C_6  and  C_7 
REMARK    2  A    between atoms: C_7  and  C_8 
REMARK    3  A    between atoms: C_8  and  C_9 
REMARK    4  A    between atoms: C_9  and  N_10 
REMARK    5  A    between atoms: C_9  and  C_14 
ROOT
HETATM    1  C   UNL     1      43.134 -16.273   6.956  1.00  0.00     0.253 C 
ENDROOT
BRANCH   1   2
HETATM    2  C   UNL     1      43.856 -14.974   6.541  1.00  0.00     0.048 C 
BRANCH   2   3
HETATM    3  C   UNL     1      42.977 -13.743   6.277  1.00  0.00     0.081 C 
BRANCH   3   4
HETATM    4  C   UNL     1      43.626 -12.490   6.746  1.00  0.00     0.105 A 
HETATM    5  N   UNL     1      44.929 -12.276   6.746  1.00  0.00    -0.233 NA
HETATM    6  C   UNL     1      45.089 -11.043   7.345  1.00  0.00     0.085 A 
HETATM    7  C   UNL     1      43.857 -10.502   7.696  1.00  0.00     0.062 A 
HETATM    8  C   UNL     1      46.261 -10.334   7.643  1.00  0.00     0.034 A 
HETATM    9  C   UNL     1      43.716  -9.272   8.341  1.00  0.00     0.032 A 
HETATM   10  N   UNL     1      42.938 -11.425   7.270  1.00  0.00    -0.343 N 
HETATM   11  C   UNL     1      44.896  -8.582   8.638  1.00  0.00     0.002 A 
HETATM   12  C   UNL     1      46.148  -9.099   8.296  1.00  0.00     0.002 A 
HETATM   13  H   UNL     1      41.934 -11.339   7.360  1.00  0.00     0.167 HD
ENDBRANCH   3   4
ENDBRANCH   2   3
ENDBRANCH   1   2
BRANCH   1  14
HETATM   14  N   UNL     1      43.663 -16.783   8.246  1.00  0.00    -0.068 N 
HETATM   15  H   UNL     1      43.313 -16.210   9.019  1.00  0.00     0.275 HD
HETATM   16  H   UNL     1      43.341 -17.740   8.426  1.00  0.00     0.275 HD
HETATM   17  H   UNL     1      44.697 -16.722   8.242  1.00  0.00     0.275 HD
ENDBRANCH   1  14
BRANCH   1  18
HETATM   18  C   UNL     1      43.311 -17.331   5.916  1.00  0.00     0.136 A 
HETATM   19  N   UNL     1      43.262 -17.123   4.615  1.00  0.00    -0.231 NA
HETATM   20  C   UNL     1      43.488 -18.354   4.041  1.00  0.00     0.085 A 
HETATM   21  C   UNL     1      43.719 -19.317   5.018  1.00  0.00     0.062 A 
HETATM   22  C   UNL     1      43.518 -18.727   2.690  1.00  0.00     0.034 A 
HETATM   23  N   UNL     1      43.599 -18.642   6.205  1.00  0.00    -0.341 N 
HETATM   24  C   UNL     1      44.000 -20.653   4.728  1.00  0.00     0.032 A 
HETATM   25  H   UNL     1      43.712 -19.058   7.121  1.00  0.00     0.167 HD
HETATM   26  C   UNL     1      44.029 -21.006   3.374  1.00  0.00     0.002 A 
HETATM   27  C   UNL     1      43.789 -20.063   2.372  1.00  0.00     0.002 A 
ENDBRANCH   1  18
TORSDOF 5
ENDMDL
MODEL 4
REMARK VINA RESULT:      -7.8      2.117      6.872
REMARK  5 active torsions:
REMARK  status: ('A' for Active; 'I' for Inactive)
REMARK    1  A    between atoms: C_6  and  C_7 
REMARK    2  A    between atoms: C_7  and  C_8 
REMARK    3  A    between atoms: C_8  and  C_9 
REMARK    4  A    between atoms: C_9  and  N_10 
REMARK    5  A    between atoms: C_9  and  C_14 
ROOT
HETATM    1  C   UNL     1      43.088 -15.062   2.927  1.00  0.00     0.253 C 
ENDROOT
BRANCH   1   2
HETATM    2  C   UNL     1      41.610 -14.669   3.137  1.00  0.00     0.048 C 
BRANCH   2   3
HETATM    3  C   UNL     1      40.562 -15.440   2.321  1.00  0.00     0.081 C 
BRANCH   3   4
HETATM    4  C   UNL     1      40.349 -14.831   0.982  1.00  0.00     0.105 A 
HETATM    5  N   UNL     1      40.840 -13.667   0.600  1.00  0.00    -0.233 NA
HETATM    6  C   UNL     1      40.319 -13.453  -0.659  1.00  0.00     0.085 A 
HETATM    7  C   UNL     1      39.513 -14.518  -1.047  1.00  0.00     0.062 A 
HETATM    8  C   UNL     1      40.475 -12.359  -1.523  1.00  0.00     0.034 A 
HETATM    9  C   UNL     1      38.836 -14.562  -2.266  1.00  0.00     0.032 A 
HETATM   10  N   UNL     1      39.577 -15.400  -0.000  1.00  0.00    -0.343 N 
HETATM   11  C   UNL     1      38.996 -13.459  -3.112  1.00  0.00     0.002 A 
HETATM   12  C   UNL     1      39.801 -12.376  -2.751  1.00  0.00     0.002 A 
HETATM   13  H   UNL     1      39.110 -16.297   0.041  1.00  0.00     0.167 HD
ENDBRANCH   3   4
ENDBRANCH   2   3
ENDBRANCH   1   2
BRANCH   1  14
HETATM   14  N   UNL     1      43.511 -14.801   1.529  1.00  0.00    -0.068 N 
HETATM   15  H   UNL     1      44.429 -15.222   1.356  1.00  0.00     0.275 HD
HETATM   16  H   UNL     1      42.865 -15.233   0.860  1.00  0.00     0.275 HD
HETATM   17  H   UNL     1      43.592 -13.779   1.378  1.00  0.00     0.275 HD
ENDBRANCH   1  14
BRANCH   1  18
HETATM   18  C   UNL     1      43.297 -16.511   3.227  1.00  0.00     0.136 A 
HETATM   19  N   UNL     1      43.325 -17.471   2.325  1.00  0.00    -0.231 NA
HETATM   20  C   UNL     1      43.553 -18.629   3.033  1.00  0.00     0.085 A 
HETATM   21  C   UNL     1      43.707 -18.355   4.388  1.00  0.00     0.062 A 
HETATM   22  C   UNL     1      43.649 -19.954   2.586  1.00  0.00     0.034 A 
HETATM   23  N   UNL     1      43.537 -16.998   4.488  1.00  0.00    -0.341 N 
HETATM   24  C   UNL     1      43.972 -19.337   5.345  1.00  0.00     0.032 A 
HETATM   25  H   UNL     1      43.590 -16.472   5.351  1.00  0.00     0.167 HD
HETATM   26  C   UNL     1      44.068 -20.653   4.880  1.00  0.00     0.002 A 
HETATM   27  C   UNL     1      43.906 -20.960   3.527  1.00  0.00     0.002 A 
ENDBRANCH   1  18
TORSDOF 5
ENDMDL
MODEL 5
REMARK VINA RESULT:      -7.7      3.207      5.264
REMARK  5 active torsions:
REMARK  status: ('A' for Active; 'I' for Inactive)
REMARK    1  A    between atoms: C_6  and  C_7 
REMARK    2  A    between atoms: C_7  and  C_8 
REMARK    3  A    between atoms: C_8  and  C_9 
REMARK    4  A    between atoms: C_9  and  N_10 
REMARK    5  A    between atoms: C_9  and  C_14 
ROOT
HETATM    1  C   UNL     1      42.456 -13.401   5.783  1.00  0.00     0.253 C 
ENDROOT
BRANCH   1   2
HETATM    2  C   UNL     1      42.630 -14.758   6.498  1.00  0.00     0.048 C 
BRANCH   2   3
HETATM    3  C   UNL     1      43.994 -15.449   6.357  1.00  0.00     0.081 C 
BRANCH   3   4
HETATM    4  C   UNL     1      43.940 -16.586   5.400  1.00  0.00     0.105 A 
HETATM    5  N   UNL     1      43.549 -16.490   4.143  1.00  0.00    -0.233 NA
HETATM    6  C   UNL     1      43.563 -17.784   3.664  1.00  0.00     0.085 A 
HETATM    7  C   UNL     1      43.988 -18.670   4.648  1.00  0.00     0.062 A 
HETATM    8  C   UNL     1      43.204 -18.279   2.402  1.00  0.00     0.034 A 
HETATM    9  C   UNL     1      44.077 -20.048   4.451  1.00  0.00     0.032 A 
HETATM   10  N   UNL     1      44.257 -17.878   5.734  1.00  0.00    -0.343 N 
HETATM   11  C   UNL     1      43.707 -20.526   3.188  1.00  0.00     0.002 A 
HETATM   12  C   UNL     1      43.279 -19.660   2.180  1.00  0.00     0.002 A 
HETATM   13  H   UNL     1      44.602 -18.206   6.627  1.00  0.00     0.167 HD
ENDBRANCH   3   4
ENDBRANCH   2   3
ENDBRANCH   1   2
BRANCH   1  14
HETATM   14  N   UNL     1      42.879 -13.493   4.364  1.00  0.00    -0.068 N 
HETATM   15  H   UNL     1      42.057 -13.497   3.753  1.00  0.00     0.275 HD
HETATM   16  H   UNL     1      43.438 -12.678   4.091  1.00  0.00     0.275 HD
HETATM   17  H   UNL     1      43.395 -14.378   4.216  1.00  0.00     0.275 HD
ENDBRANCH   1  14
BRANCH   1  18
HETATM   18  C   UNL     1      43.266 -12.342   6.457  1.00  0.00     0.136 A 
HETATM   19  N   UNL     1      44.581 -12.260   6.418  1.00  0.00    -0.231 NA
HETATM   20  C   UNL     1      44.898 -11.139   7.152  1.00  0.00     0.085 A 
HETATM   21  C   UNL     1      43.745 -10.508   7.608  1.00  0.00     0.062 A 
HETATM   22  C   UNL     1      46.149 -10.592   7.466  1.00  0.00     0.034 A 
HETATM   23  N   UNL     1      42.717 -11.294   7.154  1.00  0.00    -0.341 N 
HETATM   24  C   UNL     1      43.760  -9.333   8.361  1.00  0.00     0.032 A 
HETATM   25  H   UNL     1      41.735 -11.110   7.315  1.00  0.00     0.167 HD
HETATM   26  C   UNL     1      45.018  -8.799   8.663  1.00  0.00     0.002 A 
HETATM   27  C   UNL     1      46.193  -9.418   8.228  1.00  0.00     0.002 A 
ENDBRANCH   1  18
TORSDOF 5
ENDMDL
MODEL 6
REMARK VINA RESULT:      -7.6      4.060      7.594
REMARK  5 active torsions:
REMARK  status: ('A' for Active; 'I' for Inactive)
REMARK    1  A    between atoms: C_6  and  C_7 
REMARK    2  A    between atoms: C_7  and  C_8 
REMARK    3  A    between atoms: C_8  and  C_9 
REMARK    4  A    between atoms: C_9  and  N_10 
REMARK    5  A    between atoms: C_9  and  C_14 
ROOT
HETATM    1  C   UNL     1      42.748 -13.722   5.774  1.00  0.00     0.253 C 
ENDROOT
BRANCH   1   2
HETATM    2  C   UNL     1      43.916 -13.516   6.762  1.00  0.00     0.048 C 
BRANCH   2   3
HETATM    3  C   UNL     1      44.696 -12.198   6.653  1.00  0.00     0.081 C 
BRANCH   3   4
HETATM    4  C   UNL     1      44.362 -11.266   7.762  1.00  0.00     0.105 A 
HETATM    5  N   UNL     1      45.180 -10.950   8.748  1.00  0.00    -0.233 NA
HETATM    6  C   UNL     1      44.436 -10.146   9.587  1.00  0.00     0.085 A 
HETATM    7  C   UNL     1      43.152  -9.963   9.085  1.00  0.00     0.062 A 
HETATM    8  C   UNL     1      44.786  -9.554  10.809  1.00  0.00     0.034 A 
HETATM    9  C   UNL     1      42.173  -9.212   9.738  1.00  0.00     0.032 A 
HETATM   10  N   UNL     1      43.140 -10.656   7.902  1.00  0.00    -0.343 N 
HETATM   11  C   UNL     1      42.538  -8.636  10.960  1.00  0.00     0.002 A 
HETATM   12  C   UNL     1      43.820  -8.801  11.488  1.00  0.00     0.002 A 
HETATM   13  H   UNL     1      42.354 -10.721   7.269  1.00  0.00     0.167 HD
ENDBRANCH   3   4
ENDBRANCH   2   3
ENDBRANCH   1   2
BRANCH   1  14
HETATM   14  N   UNL     1      41.450 -13.765   6.491  1.00  0.00    -0.068 N 
HETATM   15  H   UNL     1      40.677 -13.705   5.821  1.00  0.00     0.275 HD
HETATM   16  H   UNL     1      41.332 -14.653   6.990  1.00  0.00     0.275 HD
HETATM   17  H   UNL     1      41.383 -12.954   7.132  1.00  0.00     0.275 HD
ENDBRANCH   1  14
BRANCH   1  18
HETATM   18  C   UNL     1      42.918 -14.998   5.015  1.00  0.00     0.136 A 
HETATM   19  N   UNL     1      42.377 -15.253   3.840  1.00  0.00    -0.231 NA
HETATM   20  C   UNL     1      42.803 -16.521   3.512  1.00  0.00     0.085 A 
HETATM   21  C   UNL     1      43.652 -17.023   4.492  1.00  0.00     0.062 A 
HETATM   22  C   UNL     1      42.511 -17.306   2.388  1.00  0.00     0.034 A 
HETATM   23  N   UNL     1      43.709 -16.036   5.441  1.00  0.00    -0.341 N 
HETATM   24  C   UNL     1      44.255 -18.280   4.414  1.00  0.00     0.032 A 
HETATM   25  H   UNL     1      44.250 -16.086   6.295  1.00  0.00     0.167 HD
HETATM   26  C   UNL     1      43.955 -19.049   3.284  1.00  0.00     0.002 A 
HETATM   27  C   UNL     1      43.096 -18.574   2.289  1.00  0.00     0.002 A 
ENDBRANCH   1  18
TORSDOF 5
ENDMDL
MODEL 7
REMARK VINA RESULT:      -7.6      1.806      4.020
REMARK  5 active torsions:
REMARK  status: ('A' for Active; 'I' for Inactive)
REMARK    1  A    between atoms: C_6  and  C_7 
REMARK    2  A    between atoms: C_7  and  C_8 
REMARK    3  A    between atoms: C_8  and  C_9 
REMARK    4  A    between atoms: C_9  and  N_10 
REMARK    5  A    between atoms: C_9  and  C_14 
ROOT
HETATM    1  C   UNL     1      40.520 -14.994   3.057  1.00  0.00     0.253 C 
ENDROOT
BRANCH   1   2
HETATM    2  C   UNL     1      41.221 -15.523   1.787  1.00  0.00     0.048 C 
BRANCH   2   3
HETATM    3  C   UNL     1      42.748 -15.670   1.845  1.00  0.00     0.081 C 
BRANCH   3   4
HETATM    4  C   UNL     1      43.155 -16.960   2.464  1.00  0.00     0.105 A 
HETATM    5  N   UNL     1      43.141 -18.125   1.845  1.00  0.00    -0.233 NA
HETATM    6  C   UNL     1      43.496 -19.047   2.808  1.00  0.00     0.085 A 
HETATM    7  C   UNL     1      43.744 -18.419   4.024  1.00  0.00     0.062 A 
HETATM    8  C   UNL     1      43.606 -20.442   2.720  1.00  0.00     0.034 A 
HETATM    9  C   UNL     1      44.100 -19.108   5.184  1.00  0.00     0.032 A 
HETATM   10  N   UNL     1      43.556 -17.085   3.770  1.00  0.00    -0.343 N 
HETATM   11  C   UNL     1      44.197 -20.501   5.080  1.00  0.00     0.002 A 
HETATM   12  C   UNL     1      43.957 -21.159   3.872  1.00  0.00     0.002 A 
HETATM   13  H   UNL     1      43.668 -16.338   4.443  1.00  0.00     0.167 HD
ENDBRANCH   3   4
ENDBRANCH   2   3
ENDBRANCH   1   2
BRANCH   1  14
HETATM   14  N   UNL     1      39.377 -14.117   2.703  1.00  0.00    -0.068 N 
HETATM   15  H   UNL     1      39.494 -13.755   1.752  1.00  0.00     0.275 HD
HETATM   16  H   UNL     1      38.494 -14.638   2.708  1.00  0.00     0.275 HD
HETATM   17  H   UNL     1      39.349 -13.310   3.353  1.00  0.00     0.275 HD
ENDBRANCH   1  14
BRANCH   1  18
HETATM   18  C   UNL     1      41.476 -14.218   3.903  1.00  0.00     0.136 A 
HETATM   19  N   UNL     1      42.042 -14.667   5.005  1.00  0.00    -0.231 NA
HETATM   20  C   UNL     1      42.847 -13.640   5.444  1.00  0.00     0.085 A 
HETATM   21  C   UNL     1      42.796 -12.564   4.564  1.00  0.00     0.062 A 
HETATM   22  C   UNL     1      43.658 -13.556   6.584  1.00  0.00     0.034 A 
HETATM   23  N   UNL     1      41.914 -12.955   3.590  1.00  0.00    -0.341 N 
HETATM   24  C   UNL     1      43.531 -11.390   4.743  1.00  0.00     0.032 A 
HETATM   25  H   UNL     1      41.653 -12.394   2.789  1.00  0.00     0.167 HD
HETATM   26  C   UNL     1      44.337 -11.325   5.885  1.00  0.00     0.002 A 
HETATM   27  C   UNL     1      44.399 -12.385   6.792  1.00  0.00     0.002 A 
ENDBRANCH   1  18
TORSDOF 5
ENDMDL
MODEL 8
REMARK VINA RESULT:      -7.4      2.077      6.389
REMARK  5 active torsions:
REMARK  status: ('A' for Active; 'I' for Inactive)
REMARK    1  A    between atoms: C_6  and  C_7 
REMARK    2  A    between atoms: C_7  and  C_8 
REMARK    3  A    between atoms: C_8  and  C_9 
REMARK    4  A    between atoms: C_9  and  N_10 
REMARK    5  A    between atoms: C_9  and  C_14 
ROOT
HETATM    1  C   UNL     1      40.424 -14.203   3.585  1.00  0.00     0.253 C 
ENDROOT
BRANCH   1   2
HETATM    2  C   UNL     1      41.162 -12.917   3.155  1.00  0.00     0.048 C 
BRANCH   2   3
HETATM    3  C   UNL     1      41.881 -12.947   1.799  1.00  0.00     0.081 C 
BRANCH   3   4
HETATM    4  C   UNL     1      40.924 -13.095   0.670  1.00  0.00     0.105 A 
HETATM    5  N   UNL     1      39.972 -12.230   0.376  1.00  0.00    -0.233 NA
HETATM    6  C   UNL     1      39.274 -12.805  -0.666  1.00  0.00     0.085 A 
HETATM    7  C   UNL     1      39.830 -14.031  -1.014  1.00  0.00     0.062 A 
HETATM    8  C   UNL     1      38.140 -12.345  -1.350  1.00  0.00     0.034 A 
HETATM    9  C   UNL     1      39.314 -14.847  -2.022  1.00  0.00     0.032 A 
HETATM   10  N   UNL     1      40.902 -14.177  -0.173  1.00  0.00    -0.343 N 
HETATM   11  C   UNL     1      38.177 -14.377  -2.689  1.00  0.00     0.002 A 
HETATM   12  C   UNL     1      37.599 -13.149  -2.362  1.00  0.00     0.002 A 
HETATM   13  H   UNL     1      41.540 -14.963  -0.167  1.00  0.00     0.167 HD
ENDBRANCH   3   4
ENDBRANCH   2   3
ENDBRANCH   1   2
BRANCH   1  14
HETATM   14  N   UNL     1      39.897 -14.074   4.966  1.00  0.00    -0.068 N 
HETATM   15  H   UNL     1      40.305 -13.252   5.421  1.00  0.00     0.275 HD
HETATM   16  H   UNL     1      38.882 -13.929   4.963  1.00  0.00     0.275 HD
HETATM   17  H   UNL     1      40.163 -14.912   5.515  1.00  0.00     0.275 HD
ENDBRANCH   1  14
BRANCH   1  18
HETATM   18  C   UNL     1      41.341 -15.381   3.530  1.00  0.00     0.136 A 
HETATM   19  N   UNL     1      41.398 -16.246   2.537  1.00  0.00    -0.231 NA
HETATM   20  C   UNL     1      42.377 -17.146   2.894  1.00  0.00     0.085 A 
HETATM   21  C   UNL     1      42.951 -16.791   4.111  1.00  0.00     0.062 A 
HETATM   22  C   UNL     1      42.837 -18.289   2.227  1.00  0.00     0.034 A 
HETATM   23  N   UNL     1      42.273 -15.664   4.498  1.00  0.00    -0.341 N 
HETATM   24  C   UNL     1      43.988 -17.509   4.709  1.00  0.00     0.032 A 
HETATM   25  H   UNL     1      42.451 -15.147   5.349  1.00  0.00     0.167 HD
HETATM   26  C   UNL     1      44.437 -18.645   4.027  1.00  0.00     0.002 A 
HETATM   27  C   UNL     1      43.871 -19.033   2.810  1.00  0.00     0.002 A 
ENDBRANCH   1  18
TORSDOF 5
ENDMDL
MODEL 9
REMARK VINA RESULT:      -7.3      3.360      7.050
REMARK  5 active torsions:
REMARK  status: ('A' for Active; 'I' for Inactive)
REMARK    1  A    between atoms: C_6  and  C_7 
REMARK    2  A    between atoms: C_7  and  C_8 
REMARK    3  A    between atoms: C_8  and  C_9 
REMARK    4  A    between atoms: C_9  and  N_10 
REMARK    5  A    between atoms: C_9  and  C_14 
ROOT
HETATM    1  C   UNL     1      41.765 -14.626   3.902  1.00  0.00     0.253 C 
ENDROOT
BRANCH   1   2
HETATM    2  C   UNL     1      42.753 -13.665   4.597  1.00  0.00     0.048 C 
BRANCH   2   3
HETATM    3  C   UNL     1      42.588 -13.472   6.111  1.00  0.00     0.081 C 
BRANCH   3   4
HETATM    4  C   UNL     1      43.375 -12.313   6.608  1.00  0.00     0.105 A 
HETATM    5  N   UNL     1      44.693 -12.269   6.661  1.00  0.00    -0.233 NA
HETATM    6  C   UNL     1      44.988 -11.066   7.270  1.00  0.00     0.085 A 
HETATM    7  C   UNL     1      43.823 -10.369   7.573  1.00  0.00     0.062 A 
HETATM    8  C   UNL     1      46.229 -10.514   7.616  1.00  0.00     0.034 A 
HETATM    9  C   UNL     1      43.817  -9.130   8.215  1.00  0.00     0.032 A 
HETATM   10  N   UNL     1      42.810 -11.167   7.108  1.00  0.00    -0.343 N 
HETATM   11  C   UNL     1      45.064  -8.597   8.561  1.00  0.00     0.002 A 
HETATM   12  C   UNL     1      46.251  -9.274   8.268  1.00  0.00     0.002 A 
HETATM   13  H   UNL     1      41.823 -10.950   7.158  1.00  0.00     0.167 HD
ENDBRANCH   3   4
ENDBRANCH   2   3
ENDBRANCH   1   2
BRANCH   1  14
HETATM   14  N   UNL     1      40.490 -14.710   4.656  1.00  0.00    -0.068 N 
HETATM   15  H   UNL     1      39.697 -14.665   4.009  1.00  0.00     0.275 HD
HETATM   16  H   UNL     1      40.410 -15.605   5.150  1.00  0.00     0.275 HD
HETATM   17  H   UNL     1      40.421 -13.906   5.306  1.00  0.00     0.275 HD
ENDBRANCH   1  14
BRANCH   1  18
HETATM   18  C   UNL     1      42.349 -15.998   3.796  1.00  0.00     0.136 A 
HETATM   19  N   UNL     1      42.953 -16.637   4.778  1.00  0.00    -0.231 NA
HETATM   20  C   UNL     1      43.315 -17.856   4.249  1.00  0.00     0.085 A 
HETATM   21  C   UNL     1      42.884 -17.968   2.932  1.00  0.00     0.062 A 
HETATM   22  C   UNL     1      44.010 -18.922   4.837  1.00  0.00     0.034 A 
HETATM   23  N   UNL     1      42.272 -16.771   2.664  1.00  0.00    -0.341 N 
HETATM   24  C   UNL     1      43.091 -19.107   2.150  1.00  0.00     0.032 A 
HETATM   25  H   UNL     1      41.843 -16.526   1.781  1.00  0.00     0.167 HD
HETATM   26  C   UNL     1      43.784 -20.162   2.754  1.00  0.00     0.002 A 
HETATM   27  C   UNL     1      44.239 -20.072   4.072  1.00  0.00     0.002 A 
ENDBRANCH   1  18
TORSDOF 5
ENDMDL
MODEL 10
REMARK VINA RESULT:      -7.2      1.749      6.093
REMARK  5 active torsions:
REMARK  status: ('A' for Active; 'I' for Inactive)
REMARK    1  A    between atoms: C_6  and  C_7 
REMARK    2  A    between atoms: C_7  and  C_8 
REMARK    3  A    between atoms: C_8  and  C_9 
REMARK    4  A    between atoms: C_9  and  N_10 
REMARK    5  A    between atoms: C_9  and  C_14 
ROOT
HETATM    1  C   UNL     1      40.975 -14.016   5.114  1.00  0.00     0.253 C 
ENDROOT
BRANCH   1   2
HETATM    2  C   UNL     1      40.960 -12.953   3.995  1.00  0.00     0.048 C 
BRANCH   2   3
HETATM    3  C   UNL     1      39.661 -12.811   3.188  1.00  0.00     0.081 C 
BRANCH   3   4
HETATM    4  C   UNL     1      39.894 -12.996   1.731  1.00  0.00     0.105 A 
HETATM    5  N   UNL     1      40.557 -12.149   0.965  1.00  0.00    -0.233 NA
HETATM    6  C   UNL     1      40.446 -12.660  -0.312  1.00  0.00     0.085 A 
HETATM    7  C   UNL     1      39.717 -13.844  -0.309  1.00  0.00     0.062 A 
HETATM    8  C   UNL     1      40.925 -12.151  -1.528  1.00  0.00     0.034 A 
HETATM    9  C   UNL     1      39.427 -14.568  -1.465  1.00  0.00     0.032 A 
HETATM   10  N   UNL     1      39.408 -14.057   1.010  1.00  0.00    -0.343 N 
HETATM   11  C   UNL     1      39.905 -14.043  -2.671  1.00  0.00     0.002 A 
HETATM   12  C   UNL     1      40.642 -12.857  -2.705  1.00  0.00     0.002 A 
HETATM   13  H   UNL     1      38.887 -14.846   1.370  1.00  0.00     0.167 HD
ENDBRANCH   3   4
ENDBRANCH   2   3
ENDBRANCH   1   2
BRANCH   1  14
HETATM   14  N   UNL     1      41.554 -13.461   6.363  1.00  0.00    -0.068 N 
HETATM   15  H   UNL     1      40.994 -13.753   7.169  1.00  0.00     0.275 HD
HETATM   16  H   UNL     1      42.501 -13.819   6.523  1.00  0.00     0.275 HD
HETATM   17  H   UNL     1      41.539 -12.426   6.319  1.00  0.00     0.275 HD
ENDBRANCH   1  14
BRANCH   1  18
HETATM   18  C   UNL     1      41.779 -15.205   4.702  1.00  0.00     0.136 A 
HETATM   19  N   UNL     1      42.591 -15.877   5.494  1.00  0.00    -0.231 NA
HETATM   20  C   UNL     1      43.106 -16.888   4.713  1.00  0.00     0.085 A 
HETATM   21  C   UNL     1      42.560 -16.849   3.435  1.00  0.00     0.062 A 
HETATM   22  C   UNL     1      44.040 -17.884   5.030  1.00  0.00     0.034 A 
HETATM   23  N   UNL     1      41.719 -15.767   3.450  1.00  0.00    -0.341 N 
HETATM   24  C   UNL     1      42.881 -17.769   2.434  1.00  0.00     0.032 A 
HETATM   25  H   UNL     1      41.159 -15.459   2.665  1.00  0.00     0.167 HD
HETATM   26  C   UNL     1      43.812 -18.757   2.770  1.00  0.00     0.002 A 
HETATM   27  C   UNL     1      44.386 -18.814   4.042  1.00  0.00     0.002 A 
ENDBRANCH   1  18
TORSDOF 5
ENDMDL
