MODEL 1
REMARK VINA RESULT:      -8.6      0.000      0.000
REMARK  5 active torsions:
REMARK  status: ('A' for Active; 'I' for Inactive)
REMARK    1  A    between atoms: C_4  and  N_5 
REMARK    2  A    between atoms: C_6  and  C_8 
REMARK    3  A    between atoms: C_6  and  O_7 
REMARK       I    between atoms: C_8  and  N_9 
REMARK    4  A    between atoms: N_9  and  C_10 
REMARK    5  A    between atoms: C_10  and  C_11 
ROOT
HETATM    1  N   UNL     1      40.831 -13.941   4.213  1.00  0.00    -0.254 N 
HETATM    2  C   UNL     1      40.759 -14.678   2.939  1.00  0.00     0.256 C 
HETATM    3  C   UNL     1      40.211 -13.833   1.803  1.00  0.00     0.035 A 
HETATM    4  C   UNL     1      39.370 -12.773   2.133  1.00  0.00     0.048 A 
HETATM    5  N   UNL     1      39.144 -12.486   3.472  1.00  0.00    -0.308 N 
HETATM    6  C   UNL     1      39.838 -13.021   4.520  1.00  0.00     0.330 C 
HETATM    7  O   UNL     1      39.585 -12.597   5.649  1.00  0.00    -0.246 OA
HETATM    8  C   UNL     1      40.419 -14.121   0.443  1.00  0.00     0.034 A 
HETATM    9  C   UNL     1      39.819 -13.335  -0.544  1.00  0.00     0.011 A 
HETATM   10 BR   UNL     1      40.135 -13.720  -2.369  1.00  0.00    -0.051 Br
HETATM   11  C   UNL     1      38.985 -12.277  -0.197  1.00  0.00     0.021 A 
HETATM   12  C   UNL     1      38.750 -12.000   1.148  1.00  0.00     0.031 A 
HETATM   13  H   UNL     1      38.501 -11.750   3.733  1.00  0.00     0.170 HD
ENDROOT
BRANCH   2  14
HETATM   14  C   UNL     1      42.124 -15.369   2.513  1.00  0.00     0.279 C 
HETATM   15  N   UNL     1      42.051 -16.750   2.455  1.00  0.00    -0.352 N 
HETATM   16  H   UNL     1      41.120 -17.151   2.384  1.00  0.00     0.162 HD
HETATM   17  O   UNL     1      43.171 -14.757   2.301  1.00  0.00    -0.268 OA
BRANCH  15  18
HETATM   18  C   UNL     1      43.179 -17.562   2.079  1.00  0.00     0.168 C 
BRANCH  18  19
HETATM   19  C   UNL     1      43.528 -18.420   3.251  1.00  0.00     0.000 A 
HETATM   20  S   UNL     1      43.776 -20.104   3.054  1.00  0.00    -0.105 SA
HETATM   21  C   UNL     1      44.090 -20.317   4.721  1.00  0.00     0.050 A 
HETATM   22  C   UNL     1      44.006 -19.134   5.419  1.00  0.00     0.008 A 
HETATM   23  C   UNL     1      43.679 -18.038   4.570  1.00  0.00     0.017 A 
ENDBRANCH  18  19
ENDBRANCH  15  18
ENDBRANCH   2  14
BRANCH   2  24
HETATM   24  O   UNL     1      39.785 -15.722   3.134  1.00  0.00    -0.359 OA
HETATM   25  H   UNL     1      39.109 -15.307   3.695  1.00  0.00     0.213 HD
ENDBRANCH   2  24
BRANCH   1  26
HETATM   26  C   UNL     1      41.618 -14.481   5.280  1.00  0.00     0.042 A 
HETATM   27  C   UNL     1      41.158 -15.560   6.044  1.00  0.00     0.030 A 
HETATM   28  C   UNL     1      41.940 -16.080   7.078  1.00  0.00     0.002 A 
HETATM   29  C   UNL     1      43.180 -15.515   7.370  1.00  0.00     0.000 A 
HETATM   30  C   UNL     1      43.632 -14.421   6.636  1.00  0.00     0.002 A 
HETATM   31  C   UNL     1      42.851 -13.902   5.602  1.00  0.00     0.030 A 
ENDBRANCH   1  26
TORSDOF 5
ENDMDL
MODEL 2
REMARK VINA RESULT:      -8.4      2.956      6.284
REMARK  5 active torsions:
REMARK  status: ('A' for Active; 'I' for Inactive)
REMARK    1  A    between atoms: C_4  and  N_5 
REMARK    2  A    between atoms: C_6  and  C_8 
REMARK    3  A    between atoms: C_6  and  O_7 
REMARK       I    between atoms: C_8  and  N_9 
REMARK    4  A    between atoms: N_9  and  C_10 
REMARK    5  A    between atoms: C_10  and  C_11 
ROOT
HETATM    1  N   UNL     1      42.090 -14.304   4.474  1.00  0.00    -0.254 N 
HETATM    2  C   UNL     1      42.306 -15.122   3.268  1.00  0.00     0.256 C 
HETATM    3  C   UNL     1      42.939 -16.466   3.577  1.00  0.00     0.035 A 
HETATM    4  C   UNL     1      43.716 -16.566   4.729  1.00  0.00     0.048 A 
HETATM    5  N   UNL     1      43.802 -15.471   5.578  1.00  0.00    -0.308 N 
HETATM    6  C   UNL     1      43.023 -14.351   5.500  1.00  0.00     0.330 C 
HETATM    7  O   UNL     1      43.153 -13.502   6.383  1.00  0.00    -0.246 OA
HETATM    8  C   UNL     1      42.873 -17.579   2.720  1.00  0.00     0.034 A 
HETATM    9  C   UNL     1      43.546 -18.760   3.043  1.00  0.00     0.011 A 
HETATM   10 BR   UNL     1      43.420 -20.255   1.892  1.00  0.00    -0.051 Br
HETATM   11  C   UNL     1      44.314 -18.843   4.201  1.00  0.00     0.021 A 
HETATM   12  C   UNL     1      44.408 -17.738   5.044  1.00  0.00     0.031 A 
HETATM   13  H   UNL     1      44.397 -15.506   6.396  1.00  0.00     0.170 HD
ENDROOT
BRANCH   2  14
HETATM   14  C   UNL     1      41.008 -15.310   2.372  1.00  0.00     0.279 C 
HETATM   15  N   UNL     1      41.127 -14.767   1.104  1.00  0.00    -0.352 N 
HETATM   16  H   UNL     1      42.072 -14.592   0.774  1.00  0.00     0.162 HD
HETATM   17  O   UNL     1      39.968 -15.838   2.765  1.00  0.00    -0.268 OA
BRANCH  15  18
HETATM   18  C   UNL     1      40.064 -14.840   0.136  1.00  0.00     0.168 C 
BRANCH  18  19
HETATM   19  C   UNL     1      40.318 -13.789  -0.895  1.00  0.00     0.000 A 
HETATM   20  S   UNL     1      40.819 -12.218  -0.432  1.00  0.00    -0.105 SA
HETATM   21  C   UNL     1      40.867 -11.685  -2.056  1.00  0.00     0.050 A 
HETATM   22  C   UNL     1      40.505 -12.678  -2.937  1.00  0.00     0.008 A 
HETATM   23  C   UNL     1      40.185 -13.894  -2.267  1.00  0.00     0.017 A 
ENDBRANCH  18  19
ENDBRANCH  15  18
ENDBRANCH   2  14
BRANCH   2  24
HETATM   24  O   UNL     1      43.284 -14.420   2.476  1.00  0.00    -0.359 OA
HETATM   25  H   UNL     1      42.781 -14.116   1.702  1.00  0.00     0.213 HD
ENDBRANCH   2  24
BRANCH   1  26
HETATM   26  C   UNL     1      41.217 -13.172   4.393  1.00  0.00     0.042 A 
HETATM   27  C   UNL     1      41.554 -12.051   3.625  1.00  0.00     0.030 A 
HETATM   28  C   UNL     1      40.689 -10.957   3.551  1.00  0.00     0.002 A 
HETATM   29  C   UNL     1      39.489 -10.965   4.260  1.00  0.00     0.000 A 
HETATM   30  C   UNL     1      39.160 -12.061   5.053  1.00  0.00     0.002 A 
HETATM   31  C   UNL     1      40.024 -13.156   5.125  1.00  0.00     0.030 A 
ENDBRANCH   1  26
TORSDOF 5
ENDMDL
MODEL 3
REMARK VINA RESULT:      -7.7      3.427      5.867
REMARK  5 active torsions:
REMARK  status: ('A' for Active; 'I' for Inactive)
REMARK    1  A    between atoms: C_4  and  N_5 
REMARK    2  A    between atoms: C_6  and  C_8 
REMARK    3  A    between atoms: C_6  and  O_7 
REMARK       I    between atoms: C_8  and  N_9 
REMARK    4  A    between atoms: N_9  and  C_10 
REMARK    5  A    between atoms: C_10  and  C_11 
ROOT
HETATM    1  N   UNL     1      40.667 -13.999   4.022  1.00  0.00    -0.254 N 
HETATM    2  C   UNL     1      39.880 -13.097   3.162  1.00  0.00     0.256 C 
HETATM    3  C   UNL     1      39.399 -11.860   3.897  1.00  0.00     0.035 A 
HETATM    4  C   UNL     1      39.238 -11.948   5.278  1.00  0.00     0.048 A 
HETATM    5  N   UNL     1      39.606 -13.121   5.923  1.00  0.00    -0.308 N 
HETATM    6  C   UNL     1      40.313 -14.144   5.356  1.00  0.00     0.330 C 
HETATM    7  O   UNL     1      40.645 -15.081   6.083  1.00  0.00    -0.246 OA
HETATM    8  C   UNL     1      39.008 -10.671   3.255  1.00  0.00     0.034 A 
HETATM    9  C   UNL     1      38.507  -9.600   3.999  1.00  0.00     0.011 A 
HETATM   10 BR   UNL     1      38.016  -7.998   3.122  1.00  0.00    -0.051 Br
HETATM   11  C   UNL     1      38.357  -9.704   5.379  1.00  0.00     0.021 A 
HETATM   12  C   UNL     1      38.715 -10.888   6.021  1.00  0.00     0.031 A 
HETATM   13  H   UNL     1      39.455 -13.223   6.919  1.00  0.00     0.170 HD
ENDROOT
BRANCH   2  14
HETATM   14  C   UNL     1      40.607 -12.696   1.809  1.00  0.00     0.279 C 
HETATM   15  N   UNL     1      39.992 -13.206   0.678  1.00  0.00    -0.352 N 
HETATM   16  H   UNL     1      39.026 -13.503   0.783  1.00  0.00     0.162 HD
HETATM   17  O   UNL     1      41.646 -12.039   1.751  1.00  0.00    -0.268 OA
BRANCH  15  18
HETATM   18  C   UNL     1      40.491 -12.949  -0.648  1.00  0.00     0.168 C 
BRANCH  18  19
HETATM   19  C   UNL     1      39.429 -13.353  -1.618  1.00  0.00     0.000 A 
HETATM   20  S   UNL     1      37.917 -12.550  -1.637  1.00  0.00    -0.105 SA
HETATM   21  C   UNL     1      37.335 -13.540  -2.905  1.00  0.00     0.050 A 
HETATM   22  C   UNL     1      38.269 -14.468  -3.306  1.00  0.00     0.008 A 
HETATM   23  C   UNL     1      39.478 -14.362  -2.561  1.00  0.00     0.017 A 
ENDBRANCH  18  19
ENDBRANCH  15  18
ENDBRANCH   2  14
BRANCH   2  24
HETATM   24  O   UNL     1      38.681 -13.819   2.816  1.00  0.00    -0.359 OA
HETATM   25  H   UNL     1      38.350 -13.355   2.029  1.00  0.00     0.213 HD
ENDBRANCH   2  24
BRANCH   1  26
HETATM   26  C   UNL     1      41.456 -15.024   3.408  1.00  0.00     0.042 A 
HETATM   27  C   UNL     1      42.851 -14.929   3.352  1.00  0.00     0.030 A 
HETATM   28  C   UNL     1      43.607 -15.940   2.755  1.00  0.00     0.002 A 
HETATM   29  C   UNL     1      42.974 -17.045   2.189  1.00  0.00     0.000 A 
HETATM   30  C   UNL     1      41.585 -17.133   2.209  1.00  0.00     0.002 A 
HETATM   31  C   UNL     1      40.830 -16.123   2.809  1.00  0.00     0.030 A 
ENDBRANCH   1  26
TORSDOF 5
ENDMDL
MODEL 4
REMARK VINA RESULT:      -7.3      2.832      4.610
REMARK  5 active torsions:
REMARK  status: ('A' for Active; 'I' for Inactive)
REMARK    1  A    between atoms: C_4  and  N_5 
REMARK    2  A    between atoms: C_6  and  C_8 
REMARK    3  A    between atoms: C_6  and  O_7 
REMARK       I    between atoms: C_8  and  N_9 
REMARK    4  A    between atoms: N_9  and  C_10 
REMARK    5  A    between atoms: C_10  and  C_11 
ROOT
HETATM    1  N   UNL     1      40.396 -13.685   1.368  1.00  0.00    -0.254 N 
HETATM    2  C   UNL     1      40.593 -12.329   1.912  1.00  0.00     0.256 C 
HETATM    3  C   UNL     1      39.372 -11.444   1.735  1.00  0.00     0.035 A 
HETATM    4  C   UNL     1      38.505 -11.739   0.685  1.00  0.00     0.048 A 
HETATM    5  N   UNL     1      38.746 -12.866  -0.088  1.00  0.00    -0.308 N 
HETATM    6  C   UNL     1      39.649 -13.848   0.210  1.00  0.00     0.330 C 
HETATM    7  O   UNL     1      39.683 -14.835  -0.526  1.00  0.00    -0.246 OA
HETATM    8  C   UNL     1      39.124 -10.291   2.501  1.00  0.00     0.034 A 
HETATM    9  C   UNL     1      38.013  -9.489   2.227  1.00  0.00     0.011 A 
HETATM   10 BR   UNL     1      37.679  -7.959   3.287  1.00  0.00    -0.051 Br
HETATM   11  C   UNL     1      37.155  -9.801   1.177  1.00  0.00     0.021 A 
HETATM   12  C   UNL     1      37.407 -10.926   0.395  1.00  0.00     0.031 A 
HETATM   13  H   UNL     1      38.156 -13.074  -0.884  1.00  0.00     0.170 HD
ENDROOT
BRANCH   2  14
HETATM   14  C   UNL     1      41.088 -12.302   3.420  1.00  0.00     0.279 C 
HETATM   15  N   UNL     1      40.246 -12.972   4.291  1.00  0.00    -0.352 N 
HETATM   16  H   UNL     1      39.604 -13.640   3.875  1.00  0.00     0.162 HD
HETATM   17  O   UNL     1      42.092 -11.706   3.807  1.00  0.00    -0.268 OA
BRANCH  15  18
HETATM   18  C   UNL     1      40.522 -13.071   5.701  1.00  0.00     0.168 C 
BRANCH  18  19
HETATM   19  C   UNL     1      41.328 -14.310   5.917  1.00  0.00     0.000 A 
HETATM   20  S   UNL     1      40.568 -15.772   6.385  1.00  0.00    -0.105 SA
HETATM   21  C   UNL     1      42.059 -16.609   6.428  1.00  0.00     0.050 A 
HETATM   22  C   UNL     1      43.118 -15.794   6.097  1.00  0.00     0.008 A 
HETATM   23  C   UNL     1      42.697 -14.466   5.805  1.00  0.00     0.017 A 
ENDBRANCH  18  19
ENDBRANCH  15  18
ENDBRANCH   2  14
BRANCH   2  24
HETATM   24  O   UNL     1      41.619 -11.718   1.105  1.00  0.00    -0.359 OA
HETATM   25  H   UNL     1      41.144 -11.421   0.311  1.00  0.00     0.213 HD
ENDBRANCH   2  24
BRANCH   1  26
HETATM   26  C   UNL     1      41.313 -14.718   1.743  1.00  0.00     0.042 A 
HETATM   27  C   UNL     1      42.668 -14.644   1.400  1.00  0.00     0.030 A 
HETATM   28  C   UNL     1      43.551 -15.658   1.780  1.00  0.00     0.002 A 
HETATM   29  C   UNL     1      43.084 -16.764   2.487  1.00  0.00     0.000 A 
HETATM   30  C   UNL     1      41.732 -16.863   2.803  1.00  0.00     0.002 A 
HETATM   31  C   UNL     1      40.850 -15.848   2.426  1.00  0.00     0.030 A 
ENDBRANCH   1  26
TORSDOF 5
ENDMDL
MODEL 5
REMARK VINA RESULT:      -7.3      3.483      4.931
REMARK  5 active torsions:
REMARK  status: ('A' for Active; 'I' for Inactive)
REMARK    1  A    between atoms: C_4  and  N_5 
REMARK    2  A    between atoms: C_6  and  C_8 
REMARK    3  A    between atoms: C_6  and  O_7 
REMARK       I    between atoms: C_8  and  N_9 
REMARK    4  A    between atoms: N_9  and  C_10 
REMARK    5  A    between atoms: C_10  and  C_11 
ROOT
HETATM    1  N   UNL     1      41.714 -12.735   2.460  1.00  0.00    -0.254 N 
HETATM    2  C   UNL     1      42.293 -11.843   3.481  1.00  0.00     0.256 C 
HETATM    3  C   UNL     1      41.678 -10.456   3.463  1.00  0.00     0.035 A 
HETATM    4  C   UNL     1      41.128 -10.007   2.265  1.00  0.00     0.048 A 
HETATM    5  N   UNL     1      41.088 -10.870   1.179  1.00  0.00    -0.308 N 
HETATM    6  C   UNL     1      41.353 -12.209   1.227  1.00  0.00     0.330 C 
HETATM    7  O   UNL     1      41.185 -12.863   0.197  1.00  0.00    -0.246 OA
HETATM    8  C   UNL     1      41.725  -9.565   4.550  1.00  0.00     0.034 A 
HETATM    9  C   UNL     1      41.199  -8.276   4.429  1.00  0.00     0.011 A 
HETATM   10 BR   UNL     1      41.244  -7.103   5.912  1.00  0.00    -0.051 Br
HETATM   11  C   UNL     1      40.649  -7.846   3.225  1.00  0.00     0.021 A 
HETATM   12  C   UNL     1      40.622  -8.711   2.134  1.00  0.00     0.031 A 
HETATM   13  H   UNL     1      40.734 -10.550   0.286  1.00  0.00     0.170 HD
ENDROOT
BRANCH   2  14
HETATM   14  C   UNL     1      42.275 -12.443   4.951  1.00  0.00     0.279 C 
HETATM   15  N   UNL     1      43.508 -12.907   5.374  1.00  0.00    -0.352 N 
HETATM   16  H   UNL     1      44.319 -12.559   4.871  1.00  0.00     0.162 HD
HETATM   17  O   UNL     1      41.262 -12.543   5.643  1.00  0.00    -0.268 OA
BRANCH  15  18
HETATM   18  C   UNL     1      43.704 -13.480   6.681  1.00  0.00     0.168 C 
BRANCH  18  19
HETATM   19  C   UNL     1      43.592 -14.963   6.546  1.00  0.00     0.000 A 
HETATM   20  S   UNL     1      42.156 -15.774   7.008  1.00  0.00    -0.105 SA
HETATM   21  C   UNL     1      42.805 -17.299   6.586  1.00  0.00     0.050 A 
HETATM   22  C   UNL     1      44.091 -17.199   6.106  1.00  0.00     0.008 A 
HETATM   23  C   UNL     1      44.547 -15.850   6.085  1.00  0.00     0.017 A 
ENDBRANCH  18  19
ENDBRANCH  15  18
ENDBRANCH   2  14
BRANCH   2  24
HETATM   24  O   UNL     1      43.671 -11.648   3.107  1.00  0.00    -0.359 OA
HETATM   25  H   UNL     1      43.621 -11.349   2.184  1.00  0.00     0.213 HD
ENDBRANCH   2  24
BRANCH   1  26
HETATM   26  C   UNL     1      41.946 -14.143   2.564  1.00  0.00     0.042 A 
HETATM   27  C   UNL     1      43.136 -14.717   2.102  1.00  0.00     0.030 A 
HETATM   28  C   UNL     1      43.350 -16.093   2.215  1.00  0.00     0.002 A 
HETATM   29  C   UNL     1      42.369 -16.910   2.773  1.00  0.00     0.000 A 
HETATM   30  C   UNL     1      41.168 -16.354   3.205  1.00  0.00     0.002 A 
HETATM   31  C   UNL     1      40.955 -14.978   3.093  1.00  0.00     0.030 A 
ENDBRANCH   1  26
TORSDOF 5
ENDMDL
MODEL 6
REMARK VINA RESULT:      -7.2      3.407      6.523
REMARK  5 active torsions:
REMARK  status: ('A' for Active; 'I' for Inactive)
REMARK    1  A    between atoms: C_4  and  N_5 
REMARK    2  A    between atoms: C_6  and  C_8 
REMARK    3  A    between atoms: C_6  and  O_7 
REMARK       I    between atoms: C_8  and  N_9 
REMARK    4  A    between atoms: N_9  and  C_10 
REMARK    5  A    between atoms: C_10  and  C_11 
ROOT
HETATM    1  N   UNL     1      40.207 -12.792   1.374  1.00  0.00    -0.254 N 
HETATM    2  C   UNL     1      40.213 -13.550   2.638  1.00  0.00     0.256 C 
HETATM    3  C   UNL     1      41.353 -14.549   2.717  1.00  0.00     0.035 A 
HETATM    4  C   UNL     1      41.869 -15.038   1.520  1.00  0.00     0.048 A 
HETATM    5  N   UNL     1      41.385 -14.530   0.322  1.00  0.00    -0.308 N 
HETATM    6  C   UNL     1      40.582 -13.431   0.200  1.00  0.00     0.330 C 
HETATM    7  O   UNL     1      40.310 -13.045  -0.938  1.00  0.00    -0.246 OA
HETATM    8  C   UNL     1      41.843 -15.083   3.922  1.00  0.00     0.034 A 
HETATM    9  C   UNL     1      42.847 -16.055   3.906  1.00  0.00     0.011 A 
HETATM   10 BR   UNL     1      43.514 -16.740   5.537  1.00  0.00    -0.051 Br
HETATM   11  C   UNL     1      43.354 -16.529   2.699  1.00  0.00     0.021 A 
HETATM   12  C   UNL     1      42.856 -16.026   1.499  1.00  0.00     0.031 A 
HETATM   13  H   UNL     1      41.713 -14.903  -0.560  1.00  0.00     0.170 HD
ENDROOT
BRANCH   2  14
HETATM   14  C   UNL     1      40.178 -12.639   3.938  1.00  0.00     0.279 C 
HETATM   15  N   UNL     1      41.299 -11.840   4.085  1.00  0.00    -0.352 N 
HETATM   16  H   UNL     1      41.855 -11.683   3.249  1.00  0.00     0.162 HD
HETATM   17  O   UNL     1      39.276 -12.664   4.775  1.00  0.00    -0.268 OA
BRANCH  15  18
HETATM   18  C   UNL     1      41.456 -10.934   5.194  1.00  0.00     0.168 C 
BRANCH  18  19
HETATM   19  C   UNL     1      42.678 -11.349   5.947  1.00  0.00     0.000 A 
HETATM   20  S   UNL     1      43.300 -10.368   7.205  1.00  0.00    -0.105 SA
HETATM   21  C   UNL     1      44.587 -11.453   7.502  1.00  0.00     0.050 A 
HETATM   22  C   UNL     1      44.551 -12.541   6.660  1.00  0.00     0.008 A 
HETATM   23  C   UNL     1      43.450 -12.480   5.759  1.00  0.00     0.017 A 
ENDBRANCH  18  19
ENDBRANCH  15  18
ENDBRANCH   2  14
BRANCH   2  24
HETATM   24  O   UNL     1      39.013 -14.348   2.633  1.00  0.00    -0.359 OA
HETATM   25  H   UNL     1      38.301 -13.698   2.749  1.00  0.00     0.213 HD
ENDBRANCH   2  24
BRANCH   1  26
HETATM   26  C   UNL     1      39.413 -11.605   1.285  1.00  0.00     0.042 A 
HETATM   27  C   UNL     1      40.006 -10.339   1.223  1.00  0.00     0.030 A 
HETATM   28  C   UNL     1      39.216  -9.190   1.130  1.00  0.00     0.002 A 
HETATM   29  C   UNL     1      37.827  -9.295   1.118  1.00  0.00     0.000 A 
HETATM   30  C   UNL     1      37.227 -10.548   1.213  1.00  0.00     0.002 A 
HETATM   31  C   UNL     1      38.016 -11.696   1.303  1.00  0.00     0.030 A 
ENDBRANCH   1  26
TORSDOF 5
ENDMDL
MODEL 7
REMARK VINA RESULT:      -7.0     15.355     17.424
REMARK  5 active torsions:
REMARK  status: ('A' for Active; 'I' for Inactive)
REMARK    1  A    between atoms: C_4  and  N_5 
REMARK    2  A    between atoms: C_6  and  C_8 
REMARK    3  A    between atoms: C_6  and  O_7 
REMARK       I    between atoms: C_8  and  N_9 
REMARK    4  A    between atoms: N_9  and  C_10 
REMARK    5  A    between atoms: C_10  and  C_11 
ROOT
HETATM    1  N   UNL     1      45.689 -29.424  -0.651  1.00  0.00    -0.254 N 
HETATM    2  C   UNL     1      47.114 -29.196  -0.349  1.00  0.00     0.256 C 
HETATM    3  C   UNL     1      47.469 -29.529   1.088  1.00  0.00     0.035 A 
HETATM    4  C   UNL     1      46.455 -29.454   2.040  1.00  0.00     0.048 A 
HETATM    5  N   UNL     1      45.162 -29.167   1.623  1.00  0.00    -0.308 N 
HETATM    6  C   UNL     1      44.739 -29.152   0.324  1.00  0.00     0.330 C 
HETATM    7  O   UNL     1      43.539 -28.972   0.116  1.00  0.00    -0.246 OA
HETATM    8  C   UNL     1      48.776 -29.806   1.528  1.00  0.00     0.034 A 
HETATM    9  C   UNL     1      49.031 -30.033   2.883  1.00  0.00     0.011 A 
HETATM   10 BR   UNL     1      50.790 -30.434   3.450  1.00  0.00    -0.051 Br
HETATM   11  C   UNL     1      48.004 -29.958   3.819  1.00  0.00     0.021 A 
HETATM   12  C   UNL     1      46.711 -29.657   3.398  1.00  0.00     0.031 A 
HETATM   13  H   UNL     1      44.419 -29.063   2.302  1.00  0.00     0.170 HD
ENDROOT
BRANCH   2  14
HETATM   14  C   UNL     1      48.111 -29.917  -1.352  1.00  0.00     0.279 C 
HETATM   15  N   UNL     1      48.088 -31.298  -1.258  1.00  0.00    -0.352 N 
HETATM   16  H   UNL     1      47.270 -31.707  -0.817  1.00  0.00     0.162 HD
HETATM   17  O   UNL     1      48.877 -29.323  -2.111  1.00  0.00    -0.268 OA
BRANCH  15  18
HETATM   18  C   UNL     1      48.913 -32.136  -2.089  1.00  0.00     0.168 C 
BRANCH  18  19
HETATM   19  C   UNL     1      50.216 -32.330  -1.385  1.00  0.00     0.000 A 
HETATM   20  S   UNL     1      51.697 -32.073  -2.206  1.00  0.00    -0.105 SA
HETATM   21  C   UNL     1      52.611 -32.485  -0.821  1.00  0.00     0.050 A 
HETATM   22  C   UNL     1      51.809 -32.815   0.248  1.00  0.00     0.008 A 
HETATM   23  C   UNL     1      50.425 -32.729  -0.078  1.00  0.00     0.017 A 
ENDBRANCH  18  19
ENDBRANCH  15  18
ENDBRANCH   2  14
BRANCH   2  24
HETATM   24  O   UNL     1      47.327 -27.775  -0.468  1.00  0.00    -0.359 OA
HETATM   25  H   UNL     1      48.282 -27.670  -0.322  1.00  0.00     0.213 HD
ENDBRANCH   2  24
BRANCH   1  26
HETATM   26  C   UNL     1      45.273 -29.472  -2.019  1.00  0.00     0.042 A 
HETATM   27  C   UNL     1      45.352 -28.341  -2.840  1.00  0.00     0.030 A 
HETATM   28  C   UNL     1      44.948 -28.406  -4.176  1.00  0.00     0.002 A 
HETATM   29  C   UNL     1      44.442 -29.595  -4.697  1.00  0.00     0.000 A 
HETATM   30  C   UNL     1      44.328 -30.716  -3.879  1.00  0.00     0.002 A 
HETATM   31  C   UNL     1      44.735 -30.652  -2.545  1.00  0.00     0.030 A 
ENDBRANCH   1  26
TORSDOF 5
ENDMDL
MODEL 8
REMARK VINA RESULT:      -6.9      7.903     10.417
REMARK  5 active torsions:
REMARK  status: ('A' for Active; 'I' for Inactive)
REMARK    1  A    between atoms: C_4  and  N_5 
REMARK    2  A    between atoms: C_6  and  C_8 
REMARK    3  A    between atoms: C_6  and  O_7 
REMARK       I    between atoms: C_8  and  N_9 
REMARK    4  A    between atoms: N_9  and  C_10 
REMARK    5  A    between atoms: C_10  and  C_11 
ROOT
HETATM    1  N   UNL     1      43.320  -9.750  10.058  1.00  0.00    -0.254 N 
HETATM    2  C   UNL     1      42.721  -9.037   8.915  1.00  0.00     0.256 C 
HETATM    3  C   UNL     1      42.880  -9.790   7.607  1.00  0.00     0.035 A 
HETATM    4  C   UNL     1      43.953 -10.671   7.493  1.00  0.00     0.048 A 
HETATM    5  N   UNL     1      44.766 -10.884   8.597  1.00  0.00    -0.308 N 
HETATM    6  C   UNL     1      44.495 -10.465   9.869  1.00  0.00     0.330 C 
HETATM    7  O   UNL     1      45.268 -10.812  10.763  1.00  0.00    -0.246 OA
HETATM    8  C   UNL     1      42.073  -9.573   6.476  1.00  0.00     0.034 A 
HETATM    9  C   UNL     1      42.331 -10.255   5.284  1.00  0.00     0.011 A 
HETATM   10 BR   UNL     1      41.216  -9.972   3.783  1.00  0.00    -0.051 Br
HETATM   11  C   UNL     1      43.405 -11.135   5.190  1.00  0.00     0.021 A 
HETATM   12  C   UNL     1      44.227 -11.337   6.296  1.00  0.00     0.031 A 
HETATM   13  H   UNL     1      45.578 -11.485   8.523  1.00  0.00     0.170 HD
ENDROOT
BRANCH   2  14
HETATM   14  C   UNL     1      41.205  -8.618   9.137  1.00  0.00     0.279 C 
HETATM   15  N   UNL     1      41.039  -7.273   9.418  1.00  0.00    -0.352 N 
HETATM   16  H   UNL     1      41.807  -6.659   9.162  1.00  0.00     0.162 HD
HETATM   17  O   UNL     1      40.260  -9.406   9.117  1.00  0.00    -0.268 OA
BRANCH  15  18
HETATM   18  C   UNL     1      39.741  -6.691   9.642  1.00  0.00     0.168 C 
BRANCH  18  19
HETATM   19  C   UNL     1      39.522  -6.631  11.118  1.00  0.00     0.000 A 
HETATM   20  S   UNL     1      40.306  -5.440  12.067  1.00  0.00    -0.105 SA
HETATM   21  C   UNL     1      39.593  -6.025  13.507  1.00  0.00     0.050 A 
HETATM   22  C   UNL     1      38.775  -7.108  13.276  1.00  0.00     0.008 A 
HETATM   23  C   UNL     1      38.736  -7.460  11.896  1.00  0.00     0.017 A 
ENDBRANCH  18  19
ENDBRANCH  15  18
ENDBRANCH   2  14
BRANCH   2  24
HETATM   24  O   UNL     1      43.488  -7.829   8.748  1.00  0.00    -0.359 OA
HETATM   25  H   UNL     1      42.984  -7.164   9.246  1.00  0.00     0.213 HD
ENDBRANCH   2  24
BRANCH   1  26
HETATM   26  C   UNL     1      42.973  -9.341  11.384  1.00  0.00     0.042 A 
HETATM   27  C   UNL     1      43.571  -8.223  11.978  1.00  0.00     0.030 A 
HETATM   28  C   UNL     1      43.216  -7.834  13.272  1.00  0.00     0.002 A 
HETATM   29  C   UNL     1      42.276  -8.569  13.991  1.00  0.00     0.000 A 
HETATM   30  C   UNL     1      41.700  -9.702  13.422  1.00  0.00     0.002 A 
HETATM   31  C   UNL     1      42.053 -10.089  12.128  1.00  0.00     0.030 A 
ENDBRANCH   1  26
TORSDOF 5
ENDMDL
MODEL 9
REMARK VINA RESULT:      -6.8      4.056      6.318
REMARK  5 active torsions:
REMARK  status: ('A' for Active; 'I' for Inactive)
REMARK    1  A    between atoms: C_4  and  N_5 
REMARK    2  A    between atoms: C_6  and  C_8 
REMARK    3  A    between atoms: C_6  and  O_7 
REMARK       I    between atoms: C_8  and  N_9 
REMARK    4  A    between atoms: N_9  and  C_10 
REMARK    5  A    between atoms: C_10  and  C_11 
ROOT
HETATM    1  N   UNL     1      42.695 -12.307   5.566  1.00  0.00    -0.254 N 
HETATM    2  C   UNL     1      41.343 -11.746   5.743  1.00  0.00     0.256 C 
HETATM    3  C   UNL     1      41.346 -10.448   6.530  1.00  0.00     0.035 A 
HETATM    4  C   UNL     1      42.396 -10.233   7.419  1.00  0.00     0.048 A 
HETATM    5  N   UNL     1      43.426 -11.161   7.481  1.00  0.00    -0.308 N 
HETATM    6  C   UNL     1      43.619 -12.183   6.594  1.00  0.00     0.330 C 
HETATM    7  O   UNL     1      44.633 -12.870   6.726  1.00  0.00    -0.246 OA
HETATM    8  C   UNL     1      40.303  -9.506   6.489  1.00  0.00     0.034 A 
HETATM    9  C   UNL     1      40.347  -8.369   7.300  1.00  0.00     0.011 A 
HETATM   10 BR   UNL     1      38.950  -7.098   7.210  1.00  0.00    -0.051 Br
HETATM   11  C   UNL     1      41.407  -8.168   8.180  1.00  0.00     0.021 A 
HETATM   12  C   UNL     1      42.432  -9.109   8.248  1.00  0.00     0.031 A 
HETATM   13  H   UNL     1      44.175 -11.048   8.152  1.00  0.00     0.170 HD
ENDROOT
BRANCH   2  14
HETATM   14  C   UNL     1      40.530 -11.577   4.390  1.00  0.00     0.279 C 
HETATM   15  N   UNL     1      39.599 -12.578   4.174  1.00  0.00    -0.352 N 
HETATM   16  H   UNL     1      39.316 -13.116   4.989  1.00  0.00     0.162 HD
HETATM   17  O   UNL     1      40.729 -10.678   3.573  1.00  0.00    -0.268 OA
BRANCH  15  18
HETATM   18  C   UNL     1      38.754 -12.601   3.009  1.00  0.00     0.168 C 
BRANCH  18  19
HETATM   19  C   UNL     1      39.371 -13.537   2.021  1.00  0.00     0.000 A 
HETATM   20  S   UNL     1      39.866 -12.975   0.481  1.00  0.00    -0.105 SA
HETATM   21  C   UNL     1      40.400 -14.530   0.013  1.00  0.00     0.050 A 
HETATM   22  C   UNL     1      40.205 -15.464   1.006  1.00  0.00     0.008 A 
HETATM   23  C   UNL     1      39.608 -14.891   2.165  1.00  0.00     0.017 A 
ENDBRANCH  18  19
ENDBRANCH  15  18
ENDBRANCH   2  14
BRANCH   2  24
HETATM   24  O   UNL     1      40.624 -12.684   6.569  1.00  0.00    -0.359 OA
HETATM   25  H   UNL     1      39.691 -12.470   6.405  1.00  0.00     0.213 HD
ENDBRANCH   2  24
BRANCH   1  26
HETATM   26  C   UNL     1      42.894 -13.330   4.585  1.00  0.00     0.042 A 
HETATM   27  C   UNL     1      43.234 -13.011   3.265  1.00  0.00     0.030 A 
HETATM   28  C   UNL     1      43.431 -14.022   2.321  1.00  0.00     0.002 A 
HETATM   29  C   UNL     1      43.270 -15.358   2.682  1.00  0.00     0.000 A 
HETATM   30  C   UNL     1      42.898 -15.683   3.984  1.00  0.00     0.002 A 
HETATM   31  C   UNL     1      42.704 -14.673   4.928  1.00  0.00     0.030 A 
ENDBRANCH   1  26
TORSDOF 5
ENDMDL
MODEL 10
REMARK VINA RESULT:      -6.8     15.173     16.532
REMARK  5 active torsions:
REMARK  status: ('A' for Active; 'I' for Inactive)
REMARK    1  A    between atoms: C_4  and  N_5 
REMARK    2  A    between atoms: C_6  and  C_8 
REMARK    3  A    between atoms: C_6  and  O_7 
REMARK       I    between atoms: C_8  and  N_9 
REMARK    4  A    between atoms: N_9  and  C_10 
REMARK    5  A    between atoms: C_10  and  C_11 
ROOT
HETATM    1  N   UNL     1      44.664 -29.960   1.062  1.00  0.00    -0.254 N 
HETATM    2  C   UNL     1      44.420 -30.171   2.501  1.00  0.00     0.256 C 
HETATM    3  C   UNL     1      43.074 -30.816   2.778  1.00  0.00     0.035 A 
HETATM    4  C   UNL     1      42.062 -30.629   1.839  1.00  0.00     0.048 A 
HETATM    5  N   UNL     1      42.350 -29.946   0.667  1.00  0.00    -0.308 N 
HETATM    6  C   UNL     1      43.603 -29.608   0.240  1.00  0.00     0.330 C 
HETATM    7  O   UNL     1      43.708 -29.084  -0.870  1.00  0.00    -0.246 OA
HETATM    8  C   UNL     1      42.763 -31.498   3.967  1.00  0.00     0.034 A 
HETATM    9  C   UNL     1      41.476 -32.001   4.176  1.00  0.00     0.011 A 
HETATM   10 BR   UNL     1      41.085 -32.941   5.770  1.00  0.00    -0.051 Br
HETATM   11  C   UNL     1      40.478 -31.809   3.226  1.00  0.00     0.021 A 
HETATM   12  C   UNL     1      40.768 -31.111   2.056  1.00  0.00     0.031 A 
HETATM   13  H   UNL     1      41.619 -29.759  -0.008  1.00  0.00     0.170 HD
ENDROOT
BRANCH   2  14
HETATM   14  C   UNL     1      45.580 -30.958   3.246  1.00  0.00     0.279 C 
HETATM   15  N   UNL     1      46.322 -30.166   4.105  1.00  0.00    -0.352 N 
HETATM   16  H   UNL     1      45.892 -29.295   4.402  1.00  0.00     0.162 HD
HETATM   17  O   UNL     1      45.844 -32.145   3.053  1.00  0.00    -0.268 OA
BRANCH  15  18
HETATM   18  C   UNL     1      47.414 -30.693   4.882  1.00  0.00     0.168 C 
BRANCH  18  19
HETATM   19  C   UNL     1      48.652 -30.585   4.054  1.00  0.00     0.000 A 
HETATM   20  S   UNL     1      49.431 -31.992   3.463  1.00  0.00    -0.105 SA
HETATM   21  C   UNL     1      50.654 -31.072   2.700  1.00  0.00     0.050 A 
HETATM   22  C   UNL     1      50.480 -29.720   2.891  1.00  0.00     0.008 A 
HETATM   23  C   UNL     1      49.325 -29.438   3.676  1.00  0.00     0.017 A 
ENDBRANCH  18  19
ENDBRANCH  15  18
ENDBRANCH   2  14
BRANCH   2  24
HETATM   24  O   UNL     1      44.335 -28.858   3.090  1.00  0.00    -0.359 OA
HETATM   25  H   UNL     1      43.714 -28.384   2.513  1.00  0.00     0.213 HD
ENDBRANCH   2  24
BRANCH   1  26
HETATM   26  C   UNL     1      45.996 -29.673   0.624  1.00  0.00     0.042 A 
HETATM   27  C   UNL     1      46.530 -28.383   0.725  1.00  0.00     0.030 A 
HETATM   28  C   UNL     1      47.834 -28.120   0.299  1.00  0.00     0.002 A 
HETATM   29  C   UNL     1      48.609 -29.139  -0.251  1.00  0.00     0.000 A 
HETATM   30  C   UNL     1      48.075 -30.418  -0.387  1.00  0.00     0.002 A 
HETATM   31  C   UNL     1      46.773 -30.681   0.042  1.00  0.00     0.030 A 
ENDBRANCH   1  26
TORSDOF 5
ENDMDL
