MODEL 1
REMARK VINA RESULT:      -8.8      0.000      0.000
REMARK  10 active torsions:
REMARK  status: ('A' for Active; 'I' for Inactive)
REMARK    1  A    between atoms: C_2  and  N_3 
REMARK    2  A    between atoms: N_3  and  C_5 
REMARK    3  A    between atoms: N_3  and  C_35 
REMARK    4  A    between atoms: C_5  and  C_6 
REMARK    5  A    between atoms: C_6  and  N_7 
REMARK       I    between atoms: N_7  and  C_8 
REMARK    6  A    between atoms: C_8  and  C_9 
REMARK    7  A    between atoms: N_15  and  C_16 
REMARK    8  A    between atoms: C_16  and  C_17 
REMARK       I    between atoms: C_17  and  N_18 
REMARK    9  A    between atoms: N_18  and  C_19 
REMARK   10  A    between atoms: C_21  and  C_22 
ROOT
HETATM    1  C   UNL     1      40.322 -12.609   1.723  1.00  0.00     0.081 A 
HETATM    2  S   UNL     1      40.702 -11.576   3.040  1.00  0.00    -0.063 SA
HETATM    3  C   UNL     1      40.760 -12.865   4.141  1.00  0.00     0.116 A 
HETATM    4  C   UNL     1      40.471 -14.070   3.540  1.00  0.00     0.075 A 
HETATM    5  C   UNL     1      40.553 -15.263   4.376  1.00  0.00     0.262 C 
HETATM    6  O   UNL     1      40.252 -16.383   3.972  1.00  0.00    -0.267 OA
HETATM    7  N   UNL     1      41.042 -15.025   5.656  1.00  0.00    -0.299 N 
HETATM    8  C   UNL     1      41.230 -13.743   6.132  1.00  0.00     0.214 C 
HETATM    9  N   UNL     1      41.097 -12.660   5.438  1.00  0.00    -0.235 NA
HETATM   10  C   UNL     1      40.188 -13.939   2.125  1.00  0.00    -0.021 A 
HETATM   11  C   UNL     1      39.880 -15.098   1.226  1.00  0.00     0.051 C 
ENDROOT
BRANCH   7  12
HETATM   12  C   UNL     1      41.354 -16.170   6.498  1.00  0.00     0.236 C 
BRANCH  12  13
HETATM   13  C   UNL     1      42.850 -16.245   6.807  1.00  0.00     0.240 C 
HETATM   14  N   UNL     1      43.744 -16.323   5.771  1.00  0.00    -0.326 N 
HETATM   15  H   UNL     1      44.668 -15.986   6.020  1.00  0.00     0.169 HD
HETATM   16  O   UNL     1      43.278 -16.035   7.946  1.00  0.00    -0.271 OA
BRANCH  14  17
HETATM   17  C   UNL     1      43.581 -16.804   4.462  1.00  0.00     0.035 A 
HETATM   18  C   UNL     1      43.551 -18.167   4.154  1.00  0.00     0.045 A 
HETATM   19  C   UNL     1      43.422 -18.601   2.823  1.00  0.00     0.050 A 
HETATM   20  C   UNL     1      43.329 -17.645   1.801  1.00  0.00     0.016 A 
HETATM   21  C   UNL     1      43.398 -16.285   2.101  1.00  0.00     0.003 A 
HETATM   22  C   UNL     1      43.548 -15.869   3.426  1.00  0.00     0.029 A 
BRANCH  19  23
HETATM   23  C   UNL     1      43.407 -20.072   2.478  1.00  0.00     0.417 C 
HETATM   24  F   UNL     1      43.580 -20.885   3.556  1.00  0.00    -0.166 F 
HETATM   25  F   UNL     1      42.232 -20.457   1.909  1.00  0.00    -0.166 F 
HETATM   26  F   UNL     1      44.384 -20.413   1.594  1.00  0.00    -0.166 F 
ENDBRANCH  19  23
ENDBRANCH  14  17
ENDBRANCH  12  13
ENDBRANCH   7  12
BRANCH   1  27
HETATM   27  C   UNL     1      40.258 -11.993   0.405  1.00  0.00     0.259 C 
HETATM   28  N   UNL     1      41.121 -12.498  -0.553  1.00  0.00    -0.355 N 
HETATM   29  H   UNL     1      41.481 -13.434  -0.397  1.00  0.00     0.162 HD
HETATM   30  O   UNL     1      39.523 -11.051   0.106  1.00  0.00    -0.267 OA
BRANCH  28  31
HETATM   31  C   UNL     1      41.145 -11.935  -1.891  1.00  0.00     0.150 C 
BRANCH  31  32
HETATM   32  C   UNL     1      40.581 -12.904  -2.954  1.00  0.00     0.254 C 
BRANCH  32  33
HETATM   33  N   UNL     1      39.098 -12.721  -3.251  1.00  0.00    -0.070 N 
HETATM   34  H   UNL     1      39.010 -12.901  -4.261  1.00  0.00     0.279 HD
BRANCH  33  35
HETATM   35  C   UNL     1      38.593 -11.299  -3.060  1.00  0.00     0.230 C 
HETATM   36  C   UNL     1      37.158 -11.275  -2.567  1.00  0.00     0.034 C 
ENDBRANCH  33  35
BRANCH  33  37
HETATM   37  C   UNL     1      38.177 -13.720  -2.578  1.00  0.00     0.230 C 
HETATM   38  C   UNL     1      38.773 -15.117  -2.579  1.00  0.00     0.034 C 
ENDBRANCH  33  37
ENDBRANCH  32  33
ENDBRANCH  31  32
ENDBRANCH  28  31
ENDBRANCH   1  27
TORSDOF 10
ENDMDL
MODEL 2
REMARK VINA RESULT:      -8.7      1.274      2.215
REMARK  10 active torsions:
REMARK  status: ('A' for Active; 'I' for Inactive)
REMARK    1  A    between atoms: C_2  and  N_3 
REMARK    2  A    between atoms: N_3  and  C_5 
REMARK    3  A    between atoms: N_3  and  C_35 
REMARK    4  A    between atoms: C_5  and  C_6 
REMARK    5  A    between atoms: C_6  and  N_7 
REMARK       I    between atoms: N_7  and  C_8 
REMARK    6  A    between atoms: C_8  and  C_9 
REMARK    7  A    between atoms: N_15  and  C_16 
REMARK    8  A    between atoms: C_16  and  C_17 
REMARK       I    between atoms: C_17  and  N_18 
REMARK    9  A    between atoms: N_18  and  C_19 
REMARK   10  A    between atoms: C_21  and  C_22 
ROOT
HETATM    1  C   UNL     1      39.514 -12.779   1.969  1.00  0.00     0.081 A 
HETATM    2  S   UNL     1      39.345 -11.874   3.418  1.00  0.00    -0.063 SA
HETATM    3  C   UNL     1      39.899 -13.157   4.381  1.00  0.00     0.116 A 
HETATM    4  C   UNL     1      40.189 -14.275   3.632  1.00  0.00     0.075 A 
HETATM    5  C   UNL     1      40.736 -15.425   4.345  1.00  0.00     0.262 C 
HETATM    6  O   UNL     1      40.969 -16.501   3.798  1.00  0.00    -0.267 OA
HETATM    7  N   UNL     1      41.011 -15.182   5.685  1.00  0.00    -0.299 N 
HETATM    8  C   UNL     1      40.604 -14.019   6.309  1.00  0.00     0.214 C 
HETATM    9  N   UNL     1      40.050 -13.009   5.719  1.00  0.00    -0.235 NA
HETATM   10  C   UNL     1      39.947 -14.083   2.216  1.00  0.00    -0.021 A 
HETATM   11  C   UNL     1      40.215 -15.127   1.175  1.00  0.00     0.051 C 
ENDROOT
BRANCH   7  12
HETATM   12  C   UNL     1      41.745 -16.192   6.433  1.00  0.00     0.236 C 
BRANCH  12  13
HETATM   13  C   UNL     1      43.243 -15.889   6.460  1.00  0.00     0.240 C 
HETATM   14  N   UNL     1      44.096 -16.665   5.717  1.00  0.00    -0.326 N 
HETATM   15  H   UNL     1      44.960 -16.188   5.482  1.00  0.00     0.169 HD
HETATM   16  O   UNL     1      43.676 -14.851   6.967  1.00  0.00    -0.271 OA
BRANCH  14  17
HETATM   17  C   UNL     1      43.962 -17.986   5.263  1.00  0.00     0.035 A 
HETATM   18  C   UNL     1      43.825 -18.314   3.911  1.00  0.00     0.045 A 
HETATM   19  C   UNL     1      43.658 -19.650   3.508  1.00  0.00     0.050 A 
HETATM   20  C   UNL     1      43.626 -20.657   4.484  1.00  0.00     0.016 A 
HETATM   21  C   UNL     1      43.723 -20.330   5.835  1.00  0.00     0.003 A 
HETATM   22  C   UNL     1      43.867 -18.996   6.223  1.00  0.00     0.029 A 
BRANCH  19  23
HETATM   23  C   UNL     1      43.490 -20.011   2.050  1.00  0.00     0.417 C 
HETATM   24  F   UNL     1      42.296 -20.603   1.770  1.00  0.00    -0.166 F 
HETATM   25  F   UNL     1      43.563 -18.922   1.237  1.00  0.00    -0.166 F 
HETATM   26  F   UNL     1      44.445 -20.875   1.611  1.00  0.00    -0.166 F 
ENDBRANCH  19  23
ENDBRANCH  14  17
ENDBRANCH  12  13
ENDBRANCH   7  12
BRANCH   1  27
HETATM   27  C   UNL     1      39.256 -12.072   0.722  1.00  0.00     0.259 C 
HETATM   28  N   UNL     1      38.047 -12.341   0.102  1.00  0.00    -0.355 N 
HETATM   29  H   UNL     1      37.309 -12.725   0.683  1.00  0.00     0.162 HD
HETATM   30  O   UNL     1      40.041 -11.293   0.182  1.00  0.00    -0.267 OA
BRANCH  28  31
HETATM   31  C   UNL     1      37.708 -11.701  -1.156  1.00  0.00     0.150 C 
BRANCH  31  32
HETATM   32  C   UNL     1      37.576 -12.710  -2.319  1.00  0.00     0.254 C 
BRANCH  32  33
HETATM   33  N   UNL     1      38.822 -12.839  -3.187  1.00  0.00    -0.070 N 
HETATM   34  H   UNL     1      38.462 -12.959  -4.144  1.00  0.00     0.279 HD
BRANCH  33  35
HETATM   35  C   UNL     1      39.646 -14.087  -2.917  1.00  0.00     0.230 C 
HETATM   36  C   UNL     1      38.807 -15.188  -2.295  1.00  0.00     0.034 C 
ENDBRANCH  33  35
BRANCH  33  37
HETATM   37  C   UNL     1      39.702 -11.605  -3.238  1.00  0.00     0.230 C 
HETATM   38  C   UNL     1      41.168 -11.956  -3.057  1.00  0.00     0.034 C 
ENDBRANCH  33  37
ENDBRANCH  32  33
ENDBRANCH  31  32
ENDBRANCH  28  31
ENDBRANCH   1  27
TORSDOF 10
ENDMDL
MODEL 3
REMARK VINA RESULT:      -8.4      1.575      2.235
REMARK  10 active torsions:
REMARK  status: ('A' for Active; 'I' for Inactive)
REMARK    1  A    between atoms: C_2  and  N_3 
REMARK    2  A    between atoms: N_3  and  C_5 
REMARK    3  A    between atoms: N_3  and  C_35 
REMARK    4  A    between atoms: C_5  and  C_6 
REMARK    5  A    between atoms: C_6  and  N_7 
REMARK       I    between atoms: N_7  and  C_8 
REMARK    6  A    between atoms: C_8  and  C_9 
REMARK    7  A    between atoms: N_15  and  C_16 
REMARK    8  A    between atoms: C_16  and  C_17 
REMARK       I    between atoms: C_17  and  N_18 
REMARK    9  A    between atoms: N_18  and  C_19 
REMARK   10  A    between atoms: C_21  and  C_22 
ROOT
HETATM    1  C   UNL     1      40.153 -13.662   0.765  1.00  0.00     0.081 A 
HETATM    2  S   UNL     1      40.553 -12.223   1.611  1.00  0.00    -0.063 SA
HETATM    3  C   UNL     1      40.711 -13.038   3.090  1.00  0.00     0.116 A 
HETATM    4  C   UNL     1      40.441 -14.383   2.969  1.00  0.00     0.075 A 
HETATM    5  C   UNL     1      40.607 -15.201   4.166  1.00  0.00     0.262 C 
HETATM    6  O   UNL     1      40.331 -16.398   4.200  1.00  0.00    -0.267 OA
HETATM    7  N   UNL     1      41.145 -14.518   5.250  1.00  0.00    -0.299 N 
HETATM    8  C   UNL     1      41.306 -13.146   5.233  1.00  0.00     0.214 C 
HETATM    9  N   UNL     1      41.099 -12.381   4.210  1.00  0.00    -0.235 NA
HETATM   10  C   UNL     1      40.088 -14.767   1.617  1.00  0.00    -0.021 A 
HETATM   11  C   UNL     1      39.784 -16.174   1.202  1.00  0.00     0.051 C 
ENDROOT
BRANCH   7  12
HETATM   12  C   UNL     1      41.540 -15.284   6.421  1.00  0.00     0.236 C 
BRANCH  12  13
HETATM   13  C   UNL     1      43.034 -15.138   6.709  1.00  0.00     0.240 C 
HETATM   14  N   UNL     1      43.940 -15.668   5.827  1.00  0.00    -0.326 N 
HETATM   15  H   UNL     1      44.846 -15.213   5.870  1.00  0.00     0.169 HD
HETATM   16  O   UNL     1      43.443 -14.386   7.599  1.00  0.00    -0.271 OA
BRANCH  14  17
HETATM   17  C   UNL     1      43.810 -16.726   4.914  1.00  0.00     0.035 A 
HETATM   18  C   UNL     1      43.965 -18.066   5.281  1.00  0.00     0.045 A 
HETATM   19  C   UNL     1      43.862 -19.091   4.324  1.00  0.00     0.050 A 
HETATM   20  C   UNL     1      43.604 -18.750   2.988  1.00  0.00     0.016 A 
HETATM   21  C   UNL     1      43.488 -17.413   2.612  1.00  0.00     0.003 A 
HETATM   22  C   UNL     1      43.615 -16.405   3.570  1.00  0.00     0.029 A 
BRANCH  19  23
HETATM   23  C   UNL     1      44.046 -20.540   4.707  1.00  0.00     0.417 C 
HETATM   24  F   UNL     1      43.173 -20.966   5.662  1.00  0.00    -0.166 F 
HETATM   25  F   UNL     1      43.876 -21.380   3.650  1.00  0.00    -0.166 F 
HETATM   26  F   UNL     1      45.289 -20.798   5.198  1.00  0.00    -0.166 F 
ENDBRANCH  19  23
ENDBRANCH  14  17
ENDBRANCH  12  13
ENDBRANCH   7  12
BRANCH   1  27
HETATM   27  C   UNL     1      40.005 -13.554  -0.679  1.00  0.00     0.259 C 
HETATM   28  N   UNL     1      40.991 -12.847  -1.347  1.00  0.00    -0.355 N 
HETATM   29  H   UNL     1      41.883 -12.746  -0.874  1.00  0.00     0.162 HD
HETATM   30  O   UNL     1      39.061 -14.014  -1.324  1.00  0.00    -0.267 OA
BRANCH  28  31
HETATM   31  C   UNL     1      40.918 -12.667  -2.786  1.00  0.00     0.150 C 
BRANCH  31  32
HETATM   32  C   UNL     1      40.798 -11.181  -3.193  1.00  0.00     0.254 C 
BRANCH  32  33
HETATM   33  N   UNL     1      40.443 -10.240  -2.048  1.00  0.00    -0.070 N 
HETATM   34  H   UNL     1      40.425 -10.842  -1.213  1.00  0.00     0.279 HD
BRANCH  33  35
HETATM   35  C   UNL     1      39.046  -9.648  -2.136  1.00  0.00     0.230 C 
HETATM   36  C   UNL     1      38.003 -10.583  -1.551  1.00  0.00     0.034 C 
ENDBRANCH  33  35
BRANCH  33  37
HETATM   37  C   UNL     1      41.472  -9.167  -1.752  1.00  0.00     0.230 C 
HETATM   38  C   UNL     1      41.813  -9.111  -0.274  1.00  0.00     0.034 C 
ENDBRANCH  33  37
ENDBRANCH  32  33
ENDBRANCH  31  32
ENDBRANCH  28  31
ENDBRANCH   1  27
TORSDOF 10
ENDMDL
MODEL 4
REMARK VINA RESULT:      -8.2      4.718      8.710
REMARK  10 active torsions:
REMARK  status: ('A' for Active; 'I' for Inactive)
REMARK    1  A    between atoms: C_2  and  N_3 
REMARK    2  A    between atoms: N_3  and  C_5 
REMARK    3  A    between atoms: N_3  and  C_35 
REMARK    4  A    between atoms: C_5  and  C_6 
REMARK    5  A    between atoms: C_6  and  N_7 
REMARK       I    between atoms: N_7  and  C_8 
REMARK    6  A    between atoms: C_8  and  C_9 
REMARK    7  A    between atoms: N_15  and  C_16 
REMARK    8  A    between atoms: C_16  and  C_17 
REMARK       I    between atoms: C_17  and  N_18 
REMARK    9  A    between atoms: N_18  and  C_19 
REMARK   10  A    between atoms: C_21  and  C_22 
ROOT
HETATM    1  C   UNL     1      43.443 -10.525   7.670  1.00  0.00     0.081 A 
HETATM    2  S   UNL     1      42.047  -9.580   7.344  1.00  0.00    -0.063 SA
HETATM    3  C   UNL     1      41.785 -10.335   5.848  1.00  0.00     0.116 A 
HETATM    4  C   UNL     1      42.749 -11.278   5.570  1.00  0.00     0.075 A 
HETATM    5  C   UNL     1      42.592 -12.041   4.336  1.00  0.00     0.262 C 
HETATM    6  O   UNL     1      43.422 -12.859   3.947  1.00  0.00    -0.267 OA
HETATM    7  N   UNL     1      41.402 -11.791   3.663  1.00  0.00    -0.299 N 
HETATM    8  C   UNL     1      40.559 -10.765   4.039  1.00  0.00     0.214 C 
HETATM    9  N   UNL     1      40.707 -10.022   5.088  1.00  0.00    -0.235 NA
HETATM   10  C   UNL     1      43.746 -11.389   6.616  1.00  0.00    -0.021 A 
HETATM   11  C   UNL     1      44.884 -12.364   6.583  1.00  0.00     0.051 C 
ENDROOT
BRANCH   7  12
HETATM   12  C   UNL     1      41.055 -12.644   2.536  1.00  0.00     0.236 C 
BRANCH  12  13
HETATM   13  C   UNL     1      39.811 -13.483   2.831  1.00  0.00     0.240 C 
HETATM   14  N   UNL     1      39.953 -14.692   3.461  1.00  0.00    -0.326 N 
HETATM   15  H   UNL     1      39.114 -14.984   3.950  1.00  0.00     0.169 HD
HETATM   16  O   UNL     1      38.677 -13.011   2.701  1.00  0.00    -0.271 OA
BRANCH  14  17
HETATM   17  C   UNL     1      41.048 -15.569   3.511  1.00  0.00     0.035 A 
HETATM   18  C   UNL     1      41.867 -15.696   4.636  1.00  0.00     0.045 A 
HETATM   19  C   UNL     1      42.975 -16.562   4.626  1.00  0.00     0.050 A 
HETATM   20  C   UNL     1      43.252 -17.299   3.465  1.00  0.00     0.016 A 
HETATM   21  C   UNL     1      42.461 -17.145   2.328  1.00  0.00     0.003 A 
HETATM   22  C   UNL     1      41.377 -16.265   2.345  1.00  0.00     0.029 A 
BRANCH  19  23
HETATM   23  C   UNL     1      43.876 -16.691   5.831  1.00  0.00     0.417 C 
HETATM   24  F   UNL     1      43.913 -15.572   6.606  1.00  0.00    -0.166 F 
HETATM   25  F   UNL     1      43.491 -17.701   6.658  1.00  0.00    -0.166 F 
HETATM   26  F   UNL     1      45.169 -16.953   5.493  1.00  0.00    -0.166 F 
ENDBRANCH  19  23
ENDBRANCH  14  17
ENDBRANCH  12  13
ENDBRANCH   7  12
BRANCH   1  27
HETATM   27  C   UNL     1      44.060 -10.352   8.978  1.00  0.00     0.259 C 
HETATM   28  N   UNL     1      43.308 -10.751  10.070  1.00  0.00    -0.355 N 
HETATM   29  H   UNL     1      42.561 -11.416   9.895  1.00  0.00     0.162 HD
HETATM   30  O   UNL     1      45.170  -9.856   9.169  1.00  0.00    -0.267 OA
BRANCH  28  31
HETATM   31  C   UNL     1      43.830 -10.599  11.417  1.00  0.00     0.150 C 
BRANCH  31  32
HETATM   32  C   UNL     1      42.741 -10.191  12.433  1.00  0.00     0.254 C 
BRANCH  32  33
HETATM   33  N   UNL     1      41.742  -9.165  11.910  1.00  0.00    -0.070 N 
HETATM   34  H   UNL     1      42.022  -9.005  10.932  1.00  0.00     0.279 HD
BRANCH  33  35
HETATM   35  C   UNL     1      41.840  -7.801  12.576  1.00  0.00     0.230 C 
HETATM   36  C   UNL     1      42.977  -7.749  13.580  1.00  0.00     0.034 C 
ENDBRANCH  33  35
BRANCH  33  37
HETATM   37  C   UNL     1      40.304  -9.639  11.848  1.00  0.00     0.230 C 
HETATM   38  C   UNL     1      39.920 -10.425  13.089  1.00  0.00     0.034 C 
ENDBRANCH  33  37
ENDBRANCH  32  33
ENDBRANCH  31  32
ENDBRANCH  28  31
ENDBRANCH   1  27
TORSDOF 10
ENDMDL
MODEL 5
REMARK VINA RESULT:      -8.2      4.432      8.275
REMARK  10 active torsions:
REMARK  status: ('A' for Active; 'I' for Inactive)
REMARK    1  A    between atoms: C_2  and  N_3 
REMARK    2  A    between atoms: N_3  and  C_5 
REMARK    3  A    between atoms: N_3  and  C_35 
REMARK    4  A    between atoms: C_5  and  C_6 
REMARK    5  A    between atoms: C_6  and  N_7 
REMARK       I    between atoms: N_7  and  C_8 
REMARK    6  A    between atoms: C_8  and  C_9 
REMARK    7  A    between atoms: N_15  and  C_16 
REMARK    8  A    between atoms: C_16  and  C_17 
REMARK       I    between atoms: C_17  and  N_18 
REMARK    9  A    between atoms: N_18  and  C_19 
REMARK   10  A    between atoms: C_21  and  C_22 
ROOT
HETATM    1  C   UNL     1      39.962 -10.567   5.925  1.00  0.00     0.081 A 
HETATM    2  S   UNL     1      38.670 -10.300   4.827  1.00  0.00    -0.063 SA
HETATM    3  C   UNL     1      39.450 -11.139   3.576  1.00  0.00     0.116 A 
HETATM    4  C   UNL     1      40.689 -11.602   3.960  1.00  0.00     0.075 A 
HETATM    5  C   UNL     1      41.429 -12.397   2.986  1.00  0.00     0.262 C 
HETATM    6  O   UNL     1      42.570 -12.805   3.186  1.00  0.00    -0.267 OA
HETATM    7  N   UNL     1      40.714 -12.687   1.830  1.00  0.00    -0.299 N 
HETATM    8  C   UNL     1      39.495 -12.094   1.565  1.00  0.00     0.214 C 
HETATM    9  N   UNL     1      38.844 -11.327   2.378  1.00  0.00    -0.235 NA
HETATM   10  C   UNL     1      41.019 -11.256   5.328  1.00  0.00    -0.021 A 
HETATM   11  C   UNL     1      42.290 -11.668   6.008  1.00  0.00     0.051 C 
ENDROOT
BRANCH   7  12
HETATM   12  C   UNL     1      41.281 -13.639   0.888  1.00  0.00     0.236 C 
BRANCH  12  13
HETATM   13  C   UNL     1      40.327 -14.805   0.626  1.00  0.00     0.240 C 
HETATM   14  N   UNL     1      40.100 -15.720   1.622  1.00  0.00    -0.326 N 
HETATM   15  H   UNL     1      39.211 -16.200   1.522  1.00  0.00     0.169 HD
HETATM   16  O   UNL     1      39.608 -14.828  -0.377  1.00  0.00    -0.271 OA
BRANCH  14  17
HETATM   17  C   UNL     1      40.898 -16.095   2.714  1.00  0.00     0.035 A 
HETATM   18  C   UNL     1      40.560 -15.798   4.037  1.00  0.00     0.045 A 
HETATM   19  C   UNL     1      41.410 -16.162   5.096  1.00  0.00     0.050 A 
HETATM   20  C   UNL     1      42.611 -16.827   4.807  1.00  0.00     0.016 A 
HETATM   21  C   UNL     1      42.969 -17.090   3.486  1.00  0.00     0.003 A 
HETATM   22  C   UNL     1      42.126 -16.703   2.443  1.00  0.00     0.029 A 
BRANCH  19  23
HETATM   23  C   UNL     1      41.062 -15.828   6.528  1.00  0.00     0.417 C 
HETATM   24  F   UNL     1      41.893 -16.406   7.439  1.00  0.00    -0.166 F 
HETATM   25  F   UNL     1      41.115 -14.491   6.774  1.00  0.00    -0.166 F 
HETATM   26  F   UNL     1      39.805 -16.225   6.867  1.00  0.00    -0.166 F 
ENDBRANCH  19  23
ENDBRANCH  14  17
ENDBRANCH  12  13
ENDBRANCH   7  12
BRANCH   1  27
HETATM   27  C   UNL     1      39.762 -10.114   7.294  1.00  0.00     0.259 C 
HETATM   28  N   UNL     1      40.685  -9.203   7.781  1.00  0.00    -0.355 N 
HETATM   29  H   UNL     1      41.213  -8.673   7.096  1.00  0.00     0.162 HD
HETATM   30  O   UNL     1      38.863 -10.505   8.038  1.00  0.00    -0.267 OA
BRANCH  28  31
HETATM   31  C   UNL     1      40.581  -8.709   9.143  1.00  0.00     0.150 C 
BRANCH  31  32
HETATM   32  C   UNL     1      41.773  -9.143  10.025  1.00  0.00     0.254 C 
BRANCH  32  33
HETATM   33  N   UNL     1      41.402 -10.074  11.173  1.00  0.00    -0.070 N 
HETATM   34  H   UNL     1      41.476 -11.021  10.776  1.00  0.00     0.279 HD
BRANCH  33  35
HETATM   35  C   UNL     1      39.958  -9.952  11.634  1.00  0.00     0.230 C 
HETATM   36  C   UNL     1      39.770 -10.502  13.036  1.00  0.00     0.034 C 
ENDBRANCH  33  35
BRANCH  33  37
HETATM   37  C   UNL     1      42.355 -10.054  12.352  1.00  0.00     0.230 C 
HETATM   38  C   UNL     1      43.116  -8.743  12.434  1.00  0.00     0.034 C 
ENDBRANCH  33  37
ENDBRANCH  32  33
ENDBRANCH  31  32
ENDBRANCH  28  31
ENDBRANCH   1  27
TORSDOF 10
ENDMDL
MODEL 6
REMARK VINA RESULT:      -8.2      4.520      8.604
REMARK  10 active torsions:
REMARK  status: ('A' for Active; 'I' for Inactive)
REMARK    1  A    between atoms: C_2  and  N_3 
REMARK    2  A    between atoms: N_3  and  C_5 
REMARK    3  A    between atoms: N_3  and  C_35 
REMARK    4  A    between atoms: C_5  and  C_6 
REMARK    5  A    between atoms: C_6  and  N_7 
REMARK       I    between atoms: N_7  and  C_8 
REMARK    6  A    between atoms: C_8  and  C_9 
REMARK    7  A    between atoms: N_15  and  C_16 
REMARK    8  A    between atoms: C_16  and  C_17 
REMARK       I    between atoms: C_17  and  N_18 
REMARK    9  A    between atoms: N_18  and  C_19 
REMARK   10  A    between atoms: C_21  and  C_22 
ROOT
HETATM    1  C   UNL     1      43.352 -10.465   7.885  1.00  0.00     0.081 A 
HETATM    2  S   UNL     1      42.005  -9.448   7.574  1.00  0.00    -0.063 SA
HETATM    3  C   UNL     1      41.753 -10.113   6.035  1.00  0.00     0.116 A 
HETATM    4  C   UNL     1      42.686 -11.080   5.732  1.00  0.00     0.075 A 
HETATM    5  C   UNL     1      42.531 -11.771   4.456  1.00  0.00     0.262 C 
HETATM    6  O   UNL     1      43.338 -12.601   4.045  1.00  0.00    -0.267 OA
HETATM    7  N   UNL     1      41.370 -11.439   3.768  1.00  0.00    -0.299 N 
HETATM    8  C   UNL     1      40.559 -10.399   4.177  1.00  0.00     0.214 C 
HETATM    9  N   UNL     1      40.709  -9.717   5.267  1.00  0.00    -0.235 NA
HETATM   10  C   UNL     1      43.649 -11.285   6.795  1.00  0.00    -0.021 A 
HETATM   11  C   UNL     1      44.747 -12.303   6.739  1.00  0.00     0.051 C 
ENDROOT
BRANCH   7  12
HETATM   12  C   UNL     1      41.020 -12.217   2.590  1.00  0.00     0.236 C 
BRANCH  12  13
HETATM   13  C   UNL     1      39.709 -12.979   2.792  1.00  0.00     0.240 C 
HETATM   14  N   UNL     1      39.694 -14.078   3.612  1.00  0.00    -0.326 N 
HETATM   15  H   UNL     1      38.773 -14.276   3.990  1.00  0.00     0.169 HD
HETATM   16  O   UNL     1      38.634 -12.515   2.402  1.00  0.00    -0.271 OA
BRANCH  14  17
HETATM   17  C   UNL     1      40.727 -14.955   3.979  1.00  0.00     0.035 A 
HETATM   18  C   UNL     1      41.361 -15.803   3.067  1.00  0.00     0.045 A 
HETATM   19  C   UNL     1      42.366 -16.691   3.488  1.00  0.00     0.050 A 
HETATM   20  C   UNL     1      42.725 -16.718   4.844  1.00  0.00     0.016 A 
HETATM   21  C   UNL     1      42.068 -15.901   5.762  1.00  0.00     0.003 A 
HETATM   22  C   UNL     1      41.056 -15.041   5.333  1.00  0.00     0.029 A 
BRANCH  19  23
HETATM   23  C   UNL     1      43.044 -17.625   2.513  1.00  0.00     0.417 C 
HETATM   24  F   UNL     1      42.249 -18.651   2.101  1.00  0.00    -0.166 F 
HETATM   25  F   UNL     1      43.442 -16.986   1.379  1.00  0.00    -0.166 F 
HETATM   26  F   UNL     1      44.161 -18.204   3.032  1.00  0.00    -0.166 F 
ENDBRANCH  19  23
ENDBRANCH  14  17
ENDBRANCH  12  13
ENDBRANCH   7  12
BRANCH   1  27
HETATM   27  C   UNL     1      43.941 -10.385   9.215  1.00  0.00     0.259 C 
HETATM   28  N   UNL     1      43.142 -10.801  10.267  1.00  0.00    -0.355 N 
HETATM   29  H   UNL     1      42.371 -11.421  10.040  1.00  0.00     0.162 HD
HETATM   30  O   UNL     1      45.067  -9.950   9.458  1.00  0.00    -0.267 OA
BRANCH  28  31
HETATM   31  C   UNL     1      43.634 -10.739  11.632  1.00  0.00     0.150 C 
BRANCH  31  32
HETATM   32  C   UNL     1      43.051  -9.544  12.419  1.00  0.00     0.254 C 
BRANCH  32  33
HETATM   33  N   UNL     1      41.576  -9.271  12.150  1.00  0.00    -0.070 N 
HETATM   34  H   UNL     1      41.315  -9.948  11.420  1.00  0.00     0.279 HD
BRANCH  33  35
HETATM   35  C   UNL     1      41.294  -7.907  11.540  1.00  0.00     0.230 C 
HETATM   36  C   UNL     1      42.565  -7.239  11.049  1.00  0.00     0.034 C 
ENDBRANCH  33  35
BRANCH  33  37
HETATM   37  C   UNL     1      40.647  -9.550  13.315  1.00  0.00     0.230 C 
HETATM   38  C   UNL     1      39.671 -10.668  12.995  1.00  0.00     0.034 C 
ENDBRANCH  33  37
ENDBRANCH  32  33
ENDBRANCH  31  32
ENDBRANCH  28  31
ENDBRANCH   1  27
TORSDOF 10
ENDMDL
MODEL 7
REMARK VINA RESULT:      -8.2      4.900      9.020
REMARK  10 active torsions:
REMARK  status: ('A' for Active; 'I' for Inactive)
REMARK    1  A    between atoms: C_2  and  N_3 
REMARK    2  A    between atoms: N_3  and  C_5 
REMARK    3  A    between atoms: N_3  and  C_35 
REMARK    4  A    between atoms: C_5  and  C_6 
REMARK    5  A    between atoms: C_6  and  N_7 
REMARK       I    between atoms: N_7  and  C_8 
REMARK    6  A    between atoms: C_8  and  C_9 
REMARK    7  A    between atoms: N_15  and  C_16 
REMARK    8  A    between atoms: C_16  and  C_17 
REMARK       I    between atoms: C_17  and  N_18 
REMARK    9  A    between atoms: N_18  and  C_19 
REMARK   10  A    between atoms: C_21  and  C_22 
ROOT
HETATM    1  C   UNL     1      43.438 -10.733   7.620  1.00  0.00     0.081 A 
HETATM    2  S   UNL     1      42.200  -9.624   7.192  1.00  0.00    -0.063 SA
HETATM    3  C   UNL     1      41.901 -10.402   5.715  1.00  0.00     0.116 A 
HETATM    4  C   UNL     1      42.738 -11.477   5.519  1.00  0.00     0.075 A 
HETATM    5  C   UNL     1      42.531 -12.265   4.309  1.00  0.00     0.262 C 
HETATM    6  O   UNL     1      43.257 -13.204   3.991  1.00  0.00    -0.267 OA
HETATM    7  N   UNL     1      41.415 -11.888   3.571  1.00  0.00    -0.299 N 
HETATM    8  C   UNL     1      40.705 -10.741   3.867  1.00  0.00     0.214 C 
HETATM    9  N   UNL     1      40.909  -9.980   4.893  1.00  0.00    -0.235 NA
HETATM   10  C   UNL     1      43.665 -11.675   6.616  1.00  0.00    -0.021 A 
HETATM   11  C   UNL     1      44.659 -12.795   6.674  1.00  0.00     0.051 C 
ENDROOT
BRANCH   7  12
HETATM   12  C   UNL     1      41.004 -12.734   2.462  1.00  0.00     0.236 C 
BRANCH  12  13
HETATM   13  C   UNL     1      39.730 -13.512   2.794  1.00  0.00     0.240 C 
HETATM   14  N   UNL     1      39.830 -14.705   3.462  1.00  0.00    -0.326 N 
HETATM   15  H   UNL     1      38.984 -14.947   3.968  1.00  0.00     0.169 HD
HETATM   16  O   UNL     1      38.615 -13.000   2.657  1.00  0.00    -0.271 OA
BRANCH  14  17
HETATM   17  C   UNL     1      40.889 -15.623   3.533  1.00  0.00     0.035 A 
HETATM   18  C   UNL     1      41.536 -15.943   4.729  1.00  0.00     0.045 A 
HETATM   19  C   UNL     1      42.617 -16.842   4.745  1.00  0.00     0.050 A 
HETATM   20  C   UNL     1      43.043 -17.415   3.537  1.00  0.00     0.016 A 
HETATM   21  C   UNL     1      42.425 -17.068   2.337  1.00  0.00     0.003 A 
HETATM   22  C   UNL     1      41.367 -16.157   2.334  1.00  0.00     0.029 A 
BRANCH  19  23
HETATM   23  C   UNL     1      43.335 -17.180   6.031  1.00  0.00     0.417 C 
HETATM   24  F   UNL     1      43.683 -18.492   6.131  1.00  0.00    -0.166 F 
HETATM   25  F   UNL     1      44.492 -16.477   6.175  1.00  0.00    -0.166 F 
HETATM   26  F   UNL     1      42.587 -16.907   7.135  1.00  0.00    -0.166 F 
ENDBRANCH  19  23
ENDBRANCH  14  17
ENDBRANCH  12  13
ENDBRANCH   7  12
BRANCH   1  27
HETATM   27  C   UNL     1      44.017 -10.588   8.949  1.00  0.00     0.259 C 
HETATM   28  N   UNL     1      43.143 -10.242   9.966  1.00  0.00    -0.355 N 
HETATM   29  H   UNL     1      42.159 -10.434   9.810  1.00  0.00     0.162 HD
HETATM   30  O   UNL     1      45.213 -10.720   9.211  1.00  0.00    -0.267 OA
BRANCH  28  31
HETATM   31  C   UNL     1      43.630 -10.053  11.321  1.00  0.00     0.150 C 
BRANCH  31  32
HETATM   32  C   UNL     1      42.549 -10.343  12.386  1.00  0.00     0.254 C 
BRANCH  32  33
HETATM   33  N   UNL     1      42.449  -9.291  13.484  1.00  0.00    -0.070 N 
HETATM   34  H   UNL     1      42.978  -9.687  14.274  1.00  0.00     0.279 HD
BRANCH  33  35
HETATM   35  C   UNL     1      41.042  -9.079  14.020  1.00  0.00     0.230 C 
HETATM   36  C   UNL     1      39.995  -9.282  12.941  1.00  0.00     0.034 C 
ENDBRANCH  33  35
BRANCH  33  37
HETATM   37  C   UNL     1      43.119  -7.967  13.172  1.00  0.00     0.230 C 
HETATM   38  C   UNL     1      42.991  -6.990  14.327  1.00  0.00     0.034 C 
ENDBRANCH  33  37
ENDBRANCH  32  33
ENDBRANCH  31  32
ENDBRANCH  28  31
ENDBRANCH   1  27
TORSDOF 10
ENDMDL
MODEL 8
REMARK VINA RESULT:      -8.0      3.798      7.740
REMARK  10 active torsions:
REMARK  status: ('A' for Active; 'I' for Inactive)
REMARK    1  A    between atoms: C_2  and  N_3 
REMARK    2  A    between atoms: N_3  and  C_5 
REMARK    3  A    between atoms: N_3  and  C_35 
REMARK    4  A    between atoms: C_5  and  C_6 
REMARK    5  A    between atoms: C_6  and  N_7 
REMARK       I    between atoms: N_7  and  C_8 
REMARK    6  A    between atoms: C_8  and  C_9 
REMARK    7  A    between atoms: N_15  and  C_16 
REMARK    8  A    between atoms: C_16  and  C_17 
REMARK       I    between atoms: C_17  and  N_18 
REMARK    9  A    between atoms: N_18  and  C_19 
REMARK   10  A    between atoms: C_21  and  C_22 
ROOT
HETATM    1  C   UNL     1      39.964 -10.858   6.032  1.00  0.00     0.081 A 
HETATM    2  S   UNL     1      38.750 -10.470   4.882  1.00  0.00    -0.063 SA
HETATM    3  C   UNL     1      39.548 -11.302   3.637  1.00  0.00     0.116 A 
HETATM    4  C   UNL     1      40.736 -11.852   4.064  1.00  0.00     0.075 A 
HETATM    5  C   UNL     1      41.481 -12.649   3.095  1.00  0.00     0.262 C 
HETATM    6  O   UNL     1      42.585 -13.132   3.335  1.00  0.00    -0.267 OA
HETATM    7  N   UNL     1      40.814 -12.848   1.892  1.00  0.00    -0.299 N 
HETATM    8  C   UNL     1      39.646 -12.174   1.591  1.00  0.00     0.214 C 
HETATM    9  N   UNL     1      38.998 -11.403   2.403  1.00  0.00    -0.235 NA
HETATM   10  C   UNL     1      41.011 -11.583   5.461  1.00  0.00    -0.021 A 
HETATM   11  C   UNL     1      42.217 -12.097   6.186  1.00  0.00     0.051 C 
ENDROOT
BRANCH   7  12
HETATM   12  C   UNL     1      41.377 -13.792   0.939  1.00  0.00     0.236 C 
BRANCH  12  13
HETATM   13  C   UNL     1      40.419 -14.954   0.670  1.00  0.00     0.240 C 
HETATM   14  N   UNL     1      40.167 -15.858   1.669  1.00  0.00    -0.326 N 
HETATM   15  H   UNL     1      39.277 -16.333   1.557  1.00  0.00     0.169 HD
HETATM   16  O   UNL     1      39.719 -14.982  -0.346  1.00  0.00    -0.271 OA
BRANCH  14  17
HETATM   17  C   UNL     1      40.942 -16.228   2.779  1.00  0.00     0.035 A 
HETATM   18  C   UNL     1      42.062 -17.059   2.679  1.00  0.00     0.045 A 
HETATM   19  C   UNL     1      42.787 -17.432   3.824  1.00  0.00     0.050 A 
HETATM   20  C   UNL     1      42.367 -16.961   5.078  1.00  0.00     0.016 A 
HETATM   21  C   UNL     1      41.229 -16.165   5.185  1.00  0.00     0.003 A 
HETATM   22  C   UNL     1      40.506 -15.821   4.041  1.00  0.00     0.029 A 
BRANCH  19  23
HETATM   23  C   UNL     1      43.987 -18.344   3.728  1.00  0.00     0.417 C 
HETATM   24  F   UNL     1      45.005 -17.994   4.562  1.00  0.00    -0.166 F 
HETATM   25  F   UNL     1      43.682 -19.634   4.037  1.00  0.00    -0.166 F 
HETATM   26  F   UNL     1      44.524 -18.372   2.477  1.00  0.00    -0.166 F 
ENDBRANCH  19  23
ENDBRANCH  14  17
ENDBRANCH  12  13
ENDBRANCH   7  12
BRANCH   1  27
HETATM   27  C   UNL     1      39.716 -10.450   7.408  1.00  0.00     0.259 C 
HETATM   28  N   UNL     1      40.693  -9.671   8.004  1.00  0.00    -0.355 N 
HETATM   29  H   UNL     1      41.322  -9.170   7.384  1.00  0.00     0.162 HD
HETATM   30  O   UNL     1      38.730 -10.776   8.069  1.00  0.00    -0.267 OA
BRANCH  28  31
HETATM   31  C   UNL     1      40.546  -9.233   9.380  1.00  0.00     0.150 C 
BRANCH  31  32
HETATM   32  C   UNL     1      41.903  -8.942  10.059  1.00  0.00     0.254 C 
BRANCH  32  33
HETATM   33  N   UNL     1      42.743 -10.180  10.347  1.00  0.00    -0.070 N 
HETATM   34  H   UNL     1      42.103 -10.971  10.189  1.00  0.00     0.279 HD
BRANCH  33  35
HETATM   35  C   UNL     1      43.185 -10.314  11.795  1.00  0.00     0.230 C 
HETATM   36  C   UNL     1      42.969  -9.026  12.568  1.00  0.00     0.034 C 
ENDBRANCH  33  35
BRANCH  33  37
HETATM   37  C   UNL     1      43.906 -10.405   9.399  1.00  0.00     0.230 C 
HETATM   38  C   UNL     1      44.900  -9.259   9.454  1.00  0.00     0.034 C 
ENDBRANCH  33  37
ENDBRANCH  32  33
ENDBRANCH  31  32
ENDBRANCH  28  31
ENDBRANCH   1  27
TORSDOF 10
ENDMDL
MODEL 9
REMARK VINA RESULT:      -7.9      4.396      7.843
REMARK  10 active torsions:
REMARK  status: ('A' for Active; 'I' for Inactive)
REMARK    1  A    between atoms: C_2  and  N_3 
REMARK    2  A    between atoms: N_3  and  C_5 
REMARK    3  A    between atoms: N_3  and  C_35 
REMARK    4  A    between atoms: C_5  and  C_6 
REMARK    5  A    between atoms: C_6  and  N_7 
REMARK       I    between atoms: N_7  and  C_8 
REMARK    6  A    between atoms: C_8  and  C_9 
REMARK    7  A    between atoms: N_15  and  C_16 
REMARK    8  A    between atoms: C_16  and  C_17 
REMARK       I    between atoms: C_17  and  N_18 
REMARK    9  A    between atoms: N_18  and  C_19 
REMARK   10  A    between atoms: C_21  and  C_22 
ROOT
HETATM    1  C   UNL     1      41.741 -10.068   5.743  1.00  0.00     0.081 A 
HETATM    2  S   UNL     1      40.266  -9.911   4.878  1.00  0.00    -0.063 SA
HETATM    3  C   UNL     1      40.748 -11.024   3.692  1.00  0.00     0.116 A 
HETATM    4  C   UNL     1      42.020 -11.500   3.918  1.00  0.00     0.075 A 
HETATM    5  C   UNL     1      42.520 -12.516   2.997  1.00  0.00     0.262 C 
HETATM    6  O   UNL     1      43.662 -12.965   3.054  1.00  0.00    -0.267 OA
HETATM    7  N   UNL     1      41.577 -12.959   2.077  1.00  0.00    -0.299 N 
HETATM    8  C   UNL     1      40.353 -12.336   1.936  1.00  0.00     0.214 C 
HETATM    9  N   UNL     1      39.908 -11.384   2.691  1.00  0.00    -0.235 NA
HETATM   10  C   UNL     1      42.630 -10.933   5.104  1.00  0.00    -0.021 A 
HETATM   11  C   UNL     1      43.994 -11.307   5.599  1.00  0.00     0.051 C 
ENDROOT
BRANCH   7  12
HETATM   12  C   UNL     1      41.909 -14.110   1.250  1.00  0.00     0.236 C 
BRANCH  12  13
HETATM   13  C   UNL     1      40.810 -15.172   1.302  1.00  0.00     0.240 C 
HETATM   14  N   UNL     1      40.841 -16.118   2.294  1.00  0.00    -0.326 N 
HETATM   15  H   UNL     1      39.927 -16.513   2.491  1.00  0.00     0.169 HD
HETATM   16  O   UNL     1      39.796 -15.077   0.604  1.00  0.00    -0.271 OA
BRANCH  14  17
HETATM   17  C   UNL     1      41.918 -16.621   3.039  1.00  0.00     0.035 A 
HETATM   18  C   UNL     1      42.329 -16.060   4.251  1.00  0.00     0.045 A 
HETATM   19  C   UNL     1      43.438 -16.576   4.944  1.00  0.00     0.050 A 
HETATM   20  C   UNL     1      44.134 -17.665   4.400  1.00  0.00     0.016 A 
HETATM   21  C   UNL     1      43.751 -18.203   3.172  1.00  0.00     0.003 A 
HETATM   22  C   UNL     1      42.661 -17.665   2.484  1.00  0.00     0.029 A 
BRANCH  19  23
HETATM   23  C   UNL     1      43.901 -15.964   6.246  1.00  0.00     0.417 C 
HETATM   24  F   UNL     1      45.142 -16.372   6.628  1.00  0.00    -0.166 F 
HETATM   25  F   UNL     1      43.960 -14.605   6.185  1.00  0.00    -0.166 F 
HETATM   26  F   UNL     1      43.075 -16.259   7.286  1.00  0.00    -0.166 F 
ENDBRANCH  19  23
ENDBRANCH  14  17
ENDBRANCH  12  13
ENDBRANCH   7  12
BRANCH   1  27
HETATM   27  C   UNL     1      41.836  -9.355   7.009  1.00  0.00     0.259 C 
HETATM   28  N   UNL     1      42.546  -8.166   6.994  1.00  0.00    -0.355 N 
HETATM   29  H   UNL     1      42.659  -7.711   6.094  1.00  0.00     0.162 HD
HETATM   30  O   UNL     1      41.362  -9.752   8.074  1.00  0.00    -0.267 OA
BRANCH  28  31
HETATM   31  C   UNL     1      42.713  -7.395   8.213  1.00  0.00     0.150 C 
BRANCH  31  32
HETATM   32  C   UNL     1      44.034  -7.722   8.945  1.00  0.00     0.254 C 
BRANCH  32  33
HETATM   33  N   UNL     1      44.096  -9.124   9.538  1.00  0.00    -0.070 N 
HETATM   34  H   UNL     1      43.175  -9.536   9.331  1.00  0.00     0.279 HD
BRANCH  33  35
HETATM   35  C   UNL     1      44.209  -9.157  11.054  1.00  0.00     0.230 C 
HETATM   36  C   UNL     1      43.188  -8.248  11.712  1.00  0.00     0.034 C 
ENDBRANCH  33  35
BRANCH  33  37
HETATM   37  C   UNL     1      45.109 -10.051   8.896  1.00  0.00     0.230 C 
HETATM   38  C   UNL     1      46.144  -9.281   8.097  1.00  0.00     0.034 C 
ENDBRANCH  33  37
ENDBRANCH  32  33
ENDBRANCH  31  32
ENDBRANCH  28  31
ENDBRANCH   1  27
TORSDOF 10
ENDMDL
MODEL 10
REMARK VINA RESULT:      -7.6      8.147     10.764
REMARK  10 active torsions:
REMARK  status: ('A' for Active; 'I' for Inactive)
REMARK    1  A    between atoms: C_2  and  N_3 
REMARK    2  A    between atoms: N_3  and  C_5 
REMARK    3  A    between atoms: N_3  and  C_35 
REMARK    4  A    between atoms: C_5  and  C_6 
REMARK    5  A    between atoms: C_6  and  N_7 
REMARK       I    between atoms: N_7  and  C_8 
REMARK    6  A    between atoms: C_8  and  C_9 
REMARK    7  A    between atoms: N_15  and  C_16 
REMARK    8  A    between atoms: C_16  and  C_17 
REMARK       I    between atoms: C_17  and  N_18 
REMARK    9  A    between atoms: N_18  and  C_19 
REMARK   10  A    between atoms: C_21  and  C_22 
ROOT
HETATM    1  C   UNL     1      43.673 -11.291   5.378  1.00  0.00     0.081 A 
HETATM    2  S   UNL     1      45.310 -11.352   5.890  1.00  0.00    -0.063 SA
HETATM    3  C   UNL     1      44.958 -10.615   7.377  1.00  0.00     0.116 A 
HETATM    4  C   UNL     1      43.623 -10.295   7.490  1.00  0.00     0.075 A 
HETATM    5  C   UNL     1      43.188  -9.714   8.756  1.00  0.00     0.262 C 
HETATM    6  O   UNL     1      42.039  -9.324   8.952  1.00  0.00    -0.267 OA
HETATM    7  N   UNL     1      44.176  -9.678   9.733  1.00  0.00    -0.299 N 
HETATM    8  C   UNL     1      45.492  -9.981   9.443  1.00  0.00     0.214 C 
HETATM    9  N   UNL     1      45.923 -10.432   8.310  1.00  0.00    -0.235 NA
HETATM   10  C   UNL     1      42.855 -10.663   6.318  1.00  0.00    -0.021 A 
HETATM   11  C   UNL     1      41.375 -10.460   6.194  1.00  0.00     0.051 C 
ENDROOT
BRANCH   7  12
HETATM   12  C   UNL     1      43.794  -9.308  11.087  1.00  0.00     0.236 C 
BRANCH  12  13
HETATM   13  C   UNL     1      43.349 -10.526  11.896  1.00  0.00     0.240 C 
HETATM   14  N   UNL     1      42.155 -10.483  12.569  1.00  0.00    -0.326 N 
HETATM   15  H   UNL     1      41.763 -11.403  12.738  1.00  0.00     0.169 HD
HETATM   16  O   UNL     1      43.933 -11.609  11.794  1.00  0.00    -0.271 OA
BRANCH  14  17
HETATM   17  C   UNL     1      41.426  -9.388  13.060  1.00  0.00     0.035 A 
HETATM   18  C   UNL     1      41.663  -8.822  14.316  1.00  0.00     0.045 A 
HETATM   19  C   UNL     1      40.882  -7.749  14.780  1.00  0.00     0.050 A 
HETATM   20  C   UNL     1      39.854  -7.253  13.965  1.00  0.00     0.016 A 
HETATM   21  C   UNL     1      39.590  -7.840  12.729  1.00  0.00     0.003 A 
HETATM   22  C   UNL     1      40.359  -8.920  12.290  1.00  0.00     0.029 A 
BRANCH  19  23
HETATM   23  C   UNL     1      41.118  -7.143  16.144  1.00  0.00     0.417 C 
HETATM   24  F   UNL     1      41.613  -8.027  17.054  1.00  0.00    -0.166 F 
HETATM   25  F   UNL     1      42.010  -6.115  16.104  1.00  0.00    -0.166 F 
HETATM   26  F   UNL     1      39.982  -6.636  16.696  1.00  0.00    -0.166 F 
ENDBRANCH  19  23
ENDBRANCH  14  17
ENDBRANCH  12  13
ENDBRANCH   7  12
BRANCH   1  27
HETATM   27  C   UNL     1      43.359 -11.936   4.110  1.00  0.00     0.259 C 
HETATM   28  N   UNL     1      43.015 -13.276   4.170  1.00  0.00    -0.355 N 
HETATM   29  H   UNL     1      42.686 -13.626   5.064  1.00  0.00     0.162 HD
HETATM   30  O   UNL     1      43.409 -11.384   3.011  1.00  0.00    -0.267 OA
BRANCH  28  31
HETATM   31  C   UNL     1      42.706 -14.011   2.957  1.00  0.00     0.150 C 
BRANCH  31  32
HETATM   32  C   UNL     1      41.440 -14.885   3.098  1.00  0.00     0.254 C 
BRANCH  32  33
HETATM   33  N   UNL     1      41.681 -16.245   3.741  1.00  0.00    -0.070 N 
HETATM   34  H   UNL     1      41.013 -16.876   3.276  1.00  0.00     0.279 HD
BRANCH  33  35
HETATM   35  C   UNL     1      41.323 -16.312   5.217  1.00  0.00     0.230 C 
HETATM   36  C   UNL     1      42.458 -16.885   6.044  1.00  0.00     0.034 C 
ENDBRANCH  33  35
BRANCH  33  37
HETATM   37  C   UNL     1      43.050 -16.846   3.485  1.00  0.00     0.230 C 
HETATM   38  C   UNL     1      42.999 -17.915   2.409  1.00  0.00     0.034 C 
ENDBRANCH  33  37
ENDBRANCH  32  33
ENDBRANCH  31  32
ENDBRANCH  28  31
ENDBRANCH   1  27
TORSDOF 10
ENDMDL
