MODEL 1
REMARK VINA RESULT:      -8.4      0.000      0.000
REMARK  9 active torsions:
REMARK  status: ('A' for Active; 'I' for Inactive)
REMARK       I    between atoms: C_2  and  N_3 
REMARK    1  A    between atoms: N_3  and  C_4 
REMARK    2  A    between atoms: C_4  and  C_5 
REMARK    3  A    between atoms: C_5  and  N_6 
REMARK       I    between atoms: N_6  and  C_7 
REMARK    4  A    between atoms: C_7  and  C_8 
REMARK    5  A    between atoms: C_8  and  C_9 
REMARK    6  A    between atoms: C_13  and  C_14 
REMARK    7  A    between atoms: C_14  and  O_15 
REMARK    8  A    between atoms: C_17  and  O_18 
REMARK    9  A    between atoms: C_25  and  C_26 
ROOT
HETATM    1  C   UNL     1      41.544 -14.066   4.221  1.00  0.00     0.056 C 
HETATM    2  C   UNL     1      41.265 -13.630   5.733  1.00  0.00    -0.030 C 
HETATM    3  C   UNL     1      40.067 -14.448   6.297  1.00  0.00     0.016 C 
HETATM    4  C   UNL     1      40.917 -12.075   5.870  1.00  0.00     0.012 C 
HETATM    5  C   UNL     1      42.142 -11.064   5.763  1.00  0.00     0.008 C 
HETATM    6  C   UNL     1      41.703  -9.678   6.325  1.00  0.00     0.020 C 
HETATM    7  C   UNL     1      43.299 -11.569   6.679  1.00  0.00     0.128 C 
HETATM    8  C   UNL     1      43.667 -13.026   6.430  1.00  0.00     0.033 C 
HETATM    9  C   UNL     1      42.466 -13.926   6.668  1.00  0.00     0.013 C 
HETATM   10  C   UNL     1      39.690 -11.690   4.999  1.00  0.00     0.054 C 
HETATM   11  C   UNL     1      39.791 -12.292   3.646  1.00  0.00     0.010 A 
HETATM   12  C   UNL     1      40.601 -13.342   3.280  1.00  0.00     0.054 A 
HETATM   13  N   UNL     1      40.552 -13.665   1.937  1.00  0.00    -0.244 NA
HETATM   14  C   UNL     1      39.656 -12.918   1.312  1.00  0.00     0.110 A 
HETATM   15  S   UNL     1      38.883 -11.747   2.318  1.00  0.00    -0.072 SA
ENDROOT
BRANCH   1  16
HETATM   16  C   UNL     1      41.498 -15.583   3.914  1.00  0.00     0.114 C 
BRANCH  16  17
HETATM   17  C   UNL     1      42.845 -16.262   3.864  1.00  0.00     0.218 C 
HETATM   18  N   UNL     1      43.231 -16.863   5.038  1.00  0.00    -0.359 N 
HETATM   19  H   UNL     1      42.732 -16.665   5.896  1.00  0.00     0.162 HD
HETATM   20  O   UNL     1      43.534 -16.267   2.849  1.00  0.00    -0.274 OA
BRANCH  18  21
HETATM   21  C   UNL     1      44.488 -17.588   5.143  1.00  0.00     0.142 C 
BRANCH  21  22
HETATM   22  C   UNL     1      44.352 -19.063   4.749  1.00  0.00     0.142 C 
BRANCH  22  23
HETATM   23  N   UNL     1      43.981 -19.239   3.354  1.00  0.00    -0.360 N 
HETATM   24  C   UNL     1      43.799 -20.490   2.813  1.00  0.00     0.213 C 
HETATM   25  C   UNL     1      43.384 -20.489   1.367  1.00  0.00     0.117 C 
HETATM   26  O   UNL     1      43.955 -21.528   3.446  1.00  0.00    -0.274 OA
HETATM   27  H   UNL     1      43.841 -18.412   2.789  1.00  0.00     0.162 HD
ENDBRANCH  22  23
ENDBRANCH  21  22
ENDBRANCH  18  21
ENDBRANCH  16  17
ENDBRANCH   1  16
BRANCH   5  28
HETATM   28  C   UNL     1      42.635 -10.819   4.309  1.00  0.00     0.176 C 
BRANCH  28  29
HETATM   29  O   UNL     1      42.114  -9.613   3.754  1.00  0.00    -0.400 OA
HETATM   30  H   UNL     1      41.138  -9.716   3.759  1.00  0.00     0.209 HD
ENDBRANCH  28  29
ENDBRANCH   5  28
BRANCH  14  31
HETATM   31  C   UNL     1      39.356 -13.019  -0.124  1.00  0.00     0.017 A 
HETATM   32  C   UNL     1      38.495 -12.154  -0.797  1.00  0.00     0.130 A 
HETATM   33  N   UNL     1      38.201 -12.230  -2.122  1.00  0.00    -0.272 NA
HETATM   34  C   UNL     1      38.792 -13.222  -2.818  1.00  0.00     0.116 A 
HETATM   35  C   UNL     1      39.657 -14.143  -2.253  1.00  0.00     0.020 A 
HETATM   36  C   UNL     1      39.935 -14.038  -0.891  1.00  0.00     0.017 A 
ENDBRANCH  14  31
BRANCH   7  37
HETATM   37  O   UNL     1      44.488 -10.794   6.510  1.00  0.00    -0.395 OA
HETATM   38  H   UNL     1      44.213  -9.894   6.256  1.00  0.00     0.210 HD
ENDBRANCH   7  37
TORSDOF 9
ENDMDL
MODEL 2
REMARK VINA RESULT:      -8.4      3.071      7.264
REMARK  9 active torsions:
REMARK  status: ('A' for Active; 'I' for Inactive)
REMARK       I    between atoms: C_2  and  N_3 
REMARK    1  A    between atoms: N_3  and  C_4 
REMARK    2  A    between atoms: C_4  and  C_5 
REMARK    3  A    between atoms: C_5  and  N_6 
REMARK       I    between atoms: N_6  and  C_7 
REMARK    4  A    between atoms: C_7  and  C_8 
REMARK    5  A    between atoms: C_8  and  C_9 
REMARK    6  A    between atoms: C_13  and  C_14 
REMARK    7  A    between atoms: C_14  and  O_15 
REMARK    8  A    between atoms: C_17  and  O_18 
REMARK    9  A    between atoms: C_25  and  C_26 
ROOT
HETATM    1  C   UNL     1      41.633 -12.376   3.821  1.00  0.00     0.056 C 
HETATM    2  C   UNL     1      40.280 -11.542   3.650  1.00  0.00    -0.030 C 
HETATM    3  C   UNL     1      39.397 -11.720   4.920  1.00  0.00     0.016 C 
HETATM    4  C   UNL     1      39.427 -12.007   2.380  1.00  0.00     0.012 C 
HETATM    5  C   UNL     1      39.952 -11.519   0.959  1.00  0.00     0.008 C 
HETATM    6  C   UNL     1      38.811 -11.694  -0.088  1.00  0.00     0.020 C 
HETATM    7  C   UNL     1      40.262  -9.991   1.029  1.00  0.00     0.128 C 
HETATM    8  C   UNL     1      41.169  -9.618   2.193  1.00  0.00     0.033 C 
HETATM    9  C   UNL     1      40.533 -10.019   3.513  1.00  0.00     0.013 C 
HETATM   10  C   UNL     1      39.083 -13.520   2.452  1.00  0.00     0.054 C 
HETATM   11  C   UNL     1      40.270 -14.314   2.856  1.00  0.00     0.010 A 
HETATM   12  C   UNL     1      41.405 -13.831   3.464  1.00  0.00     0.054 A 
HETATM   13  N   UNL     1      42.391 -14.776   3.674  1.00  0.00    -0.244 NA
HETATM   14  C   UNL     1      41.974 -15.975   3.302  1.00  0.00     0.110 A 
HETATM   15  S   UNL     1      40.388 -15.993   2.619  1.00  0.00    -0.072 SA
ENDROOT
BRANCH   1  16
HETATM   16  C   UNL     1      42.330 -12.296   5.201  1.00  0.00     0.114 C 
BRANCH  16  17
HETATM   17  C   UNL     1      43.715 -11.699   5.179  1.00  0.00     0.218 C 
HETATM   18  N   UNL     1      44.339 -11.644   6.403  1.00  0.00    -0.359 N 
HETATM   19  H   UNL     1      43.807 -11.801   7.250  1.00  0.00     0.162 HD
HETATM   20  O   UNL     1      44.233 -11.295   4.144  1.00  0.00    -0.274 OA
BRANCH  18  21
HETATM   21  C   UNL     1      45.691 -11.127   6.545  1.00  0.00     0.142 C 
BRANCH  21  22
HETATM   22  C   UNL     1      46.026 -10.742   7.990  1.00  0.00     0.142 C 
BRANCH  22  23
HETATM   23  N   UNL     1      44.922 -10.076   8.664  1.00  0.00    -0.360 N 
HETATM   24  C   UNL     1      44.838  -8.705   8.718  1.00  0.00     0.213 C 
HETATM   25  C   UNL     1      43.615  -8.183   9.423  1.00  0.00     0.117 C 
HETATM   26  O   UNL     1      45.680  -7.957   8.234  1.00  0.00    -0.274 OA
HETATM   27  H   UNL     1      44.200 -10.649   9.079  1.00  0.00     0.162 HD
ENDBRANCH  22  23
ENDBRANCH  21  22
ENDBRANCH  18  21
ENDBRANCH  16  17
ENDBRANCH   1  16
BRANCH   5  28
HETATM   28  C   UNL     1      41.172 -12.321   0.426  1.00  0.00     0.176 C 
BRANCH  28  29
HETATM   29  O   UNL     1      41.119 -12.519  -0.985  1.00  0.00    -0.400 OA
HETATM   30  H   UNL     1      40.740 -11.695  -1.358  1.00  0.00     0.209 HD
ENDBRANCH  28  29
ENDBRANCH   5  28
BRANCH  14  31
HETATM   31  C   UNL     1      42.782 -17.199   3.403  1.00  0.00     0.017 A 
HETATM   32  C   UNL     1      43.588 -17.506   4.497  1.00  0.00     0.130 A 
HETATM   33  N   UNL     1      44.345 -18.629   4.611  1.00  0.00    -0.272 NA
HETATM   34  C   UNL     1      44.301 -19.496   3.579  1.00  0.00     0.116 A 
HETATM   35  C   UNL     1      43.544 -19.292   2.440  1.00  0.00     0.020 A 
HETATM   36  C   UNL     1      42.781 -18.128   2.354  1.00  0.00     0.017 A 
ENDBRANCH  14  31
BRANCH   7  37
HETATM   37  O   UNL     1      40.886  -9.521  -0.167  1.00  0.00    -0.395 OA
HETATM   38  H   UNL     1      40.441  -8.690  -0.419  1.00  0.00     0.210 HD
ENDBRANCH   7  37
TORSDOF 9
ENDMDL
MODEL 3
REMARK VINA RESULT:      -8.3      3.264      6.993
REMARK  9 active torsions:
REMARK  status: ('A' for Active; 'I' for Inactive)
REMARK       I    between atoms: C_2  and  N_3 
REMARK    1  A    between atoms: N_3  and  C_4 
REMARK    2  A    between atoms: C_4  and  C_5 
REMARK    3  A    between atoms: C_5  and  N_6 
REMARK       I    between atoms: N_6  and  C_7 
REMARK    4  A    between atoms: C_7  and  C_8 
REMARK    5  A    between atoms: C_8  and  C_9 
REMARK    6  A    between atoms: C_13  and  C_14 
REMARK    7  A    between atoms: C_14  and  O_15 
REMARK    8  A    between atoms: C_17  and  O_18 
REMARK    9  A    between atoms: C_25  and  C_26 
ROOT
HETATM    1  C   UNL     1      42.091 -12.394   4.792  1.00  0.00     0.056 C 
HETATM    2  C   UNL     1      40.798 -11.461   4.891  1.00  0.00    -0.030 C 
HETATM    3  C   UNL     1      40.017 -11.792   6.196  1.00  0.00     0.016 C 
HETATM    4  C   UNL     1      39.804 -11.653   3.652  1.00  0.00     0.012 C 
HETATM    5  C   UNL     1      40.241 -10.969   2.282  1.00  0.00     0.008 C 
HETATM    6  C   UNL     1      39.003 -10.896   1.339  1.00  0.00     0.020 C 
HETATM    7  C   UNL     1      40.673  -9.497   2.565  1.00  0.00     0.128 C 
HETATM    8  C   UNL     1      41.705  -9.380   3.680  1.00  0.00     0.033 C 
HETATM    9  C   UNL     1      41.156  -9.955   4.975  1.00  0.00     0.013 C 
HETATM   10  C   UNL     1      39.350 -13.133   3.515  1.00  0.00     0.054 C 
HETATM   11  C   UNL     1      40.503 -14.056   3.668  1.00  0.00     0.010 A 
HETATM   12  C   UNL     1      41.721 -13.752   4.231  1.00  0.00     0.054 A 
HETATM   13  N   UNL     1      42.644 -14.780   4.189  1.00  0.00    -0.244 NA
HETATM   14  C   UNL     1      42.104 -15.871   3.673  1.00  0.00     0.110 A 
HETATM   15  S   UNL     1      40.468 -15.675   3.155  1.00  0.00    -0.072 SA
ENDROOT
BRANCH   1  16
HETATM   16  C   UNL     1      42.910 -12.589   6.092  1.00  0.00     0.114 C 
BRANCH  16  17
HETATM   17  C   UNL     1      44.152 -11.740   6.193  1.00  0.00     0.218 C 
HETATM   18  N   UNL     1      44.639 -11.580   7.469  1.00  0.00    -0.359 N 
HETATM   19  H   UNL     1      44.070 -11.842   8.264  1.00  0.00     0.162 HD
HETATM   20  O   UNL     1      44.678 -11.235   5.207  1.00  0.00    -0.274 OA
BRANCH  18  21
HETATM   21  C   UNL     1      45.849 -10.816   7.731  1.00  0.00     0.142 C 
BRANCH  21  22
HETATM   22  C   UNL     1      45.614  -9.654   8.702  1.00  0.00     0.142 C 
BRANCH  22  23
HETATM   23  N   UNL     1      45.174 -10.099  10.015  1.00  0.00    -0.360 N 
HETATM   24  C   UNL     1      43.841 -10.151  10.346  1.00  0.00     0.213 C 
HETATM   25  C   UNL     1      43.562 -10.667  11.731  1.00  0.00     0.117 C 
HETATM   26  O   UNL     1      42.943  -9.811   9.584  1.00  0.00    -0.274 OA
HETATM   27  H   UNL     1      45.878 -10.391  10.680  1.00  0.00     0.162 HD
ENDBRANCH  22  23
ENDBRANCH  21  22
ENDBRANCH  18  21
ENDBRANCH  16  17
ENDBRANCH   1  16
BRANCH   5  28
HETATM   28  C   UNL     1      41.344 -11.746   1.511  1.00  0.00     0.176 C 
BRANCH  28  29
HETATM   29  O   UNL     1      41.187 -11.653   0.097  1.00  0.00    -0.400 OA
HETATM   30  H   UNL     1      41.653 -12.432  -0.277  1.00  0.00     0.209 HD
ENDBRANCH  28  29
ENDBRANCH   5  28
BRANCH  14  31
HETATM   31  C   UNL     1      42.820 -17.143   3.497  1.00  0.00     0.017 A 
HETATM   32  C   UNL     1      43.743 -17.644   4.412  1.00  0.00     0.130 A 
HETATM   33  N   UNL     1      44.418 -18.816   4.270  1.00  0.00    -0.272 NA
HETATM   34  C   UNL     1      44.165 -19.528   3.154  1.00  0.00     0.116 A 
HETATM   35  C   UNL     1      43.275 -19.125   2.174  1.00  0.00     0.020 A 
HETATM   36  C   UNL     1      42.601 -17.917   2.350  1.00  0.00     0.017 A 
ENDBRANCH  14  31
BRANCH   7  37
HETATM   37  O   UNL     1      41.226  -8.874   1.404  1.00  0.00    -0.395 OA
HETATM   38  H   UNL     1      42.149  -8.637   1.614  1.00  0.00     0.210 HD
ENDBRANCH   7  37
TORSDOF 9
ENDMDL
MODEL 4
REMARK VINA RESULT:      -7.6      3.544      6.907
REMARK  9 active torsions:
REMARK  status: ('A' for Active; 'I' for Inactive)
REMARK       I    between atoms: C_2  and  N_3 
REMARK    1  A    between atoms: N_3  and  C_4 
REMARK    2  A    between atoms: C_4  and  C_5 
REMARK    3  A    between atoms: C_5  and  N_6 
REMARK       I    between atoms: N_6  and  C_7 
REMARK    4  A    between atoms: C_7  and  C_8 
REMARK    5  A    between atoms: C_8  and  C_9 
REMARK    6  A    between atoms: C_13  and  C_14 
REMARK    7  A    between atoms: C_14  and  O_15 
REMARK    8  A    between atoms: C_17  and  O_18 
REMARK    9  A    between atoms: C_25  and  C_26 
ROOT
HETATM    1  C   UNL     1      42.676 -12.378   5.672  1.00  0.00     0.056 C 
HETATM    2  C   UNL     1      42.668 -12.268   4.078  1.00  0.00    -0.030 C 
HETATM    3  C   UNL     1      44.064 -11.789   3.584  1.00  0.00     0.016 C 
HETATM    4  C   UNL     1      41.568 -11.240   3.538  1.00  0.00     0.012 C 
HETATM    5  C   UNL     1      40.059 -11.749   3.549  1.00  0.00     0.008 C 
HETATM    6  C   UNL     1      39.208 -10.823   2.629  1.00  0.00     0.020 C 
HETATM    7  C   UNL     1      40.000 -13.176   2.922  1.00  0.00     0.128 C 
HETATM    8  C   UNL     1      40.992 -14.146   3.549  1.00  0.00     0.033 C 
HETATM    9  C   UNL     1      42.413 -13.632   3.388  1.00  0.00     0.013 C 
HETATM   10  C   UNL     1      41.772  -9.823   4.142  1.00  0.00     0.054 C 
HETATM   11  C   UNL     1      42.034  -9.902   5.601  1.00  0.00     0.010 A 
HETATM   12  C   UNL     1      42.436 -11.018   6.297  1.00  0.00     0.054 A 
HETATM   13  N   UNL     1      42.545 -10.835   7.663  1.00  0.00    -0.244 NA
HETATM   14  C   UNL     1      42.305  -9.574   7.983  1.00  0.00     0.110 A 
HETATM   15  S   UNL     1      41.872  -8.572   6.646  1.00  0.00    -0.072 SA
ENDROOT
BRANCH   1  16
HETATM   16  C   UNL     1      43.929 -13.018   6.320  1.00  0.00     0.114 C 
BRANCH  16  17
HETATM   17  C   UNL     1      43.692 -14.357   6.973  1.00  0.00     0.218 C 
HETATM   18  N   UNL     1      43.991 -15.444   6.186  1.00  0.00    -0.359 N 
HETATM   19  H   UNL     1      44.148 -15.322   5.194  1.00  0.00     0.162 HD
HETATM   20  O   UNL     1      43.263 -14.456   8.118  1.00  0.00    -0.274 OA
BRANCH  18  21
HETATM   21  C   UNL     1      43.849 -16.804   6.682  1.00  0.00     0.142 C 
BRANCH  21  22
HETATM   22  C   UNL     1      43.785 -17.839   5.554  1.00  0.00     0.142 C 
BRANCH  22  23
HETATM   23  N   UNL     1      43.234 -17.294   4.323  1.00  0.00    -0.360 N 
HETATM   24  C   UNL     1      43.538 -17.840   3.098  1.00  0.00     0.213 C 
HETATM   25  C   UNL     1      42.855 -17.176   1.933  1.00  0.00     0.117 C 
HETATM   26  O   UNL     1      44.299 -18.790   2.952  1.00  0.00    -0.274 OA
HETATM   27  H   UNL     1      42.600 -16.509   4.390  1.00  0.00     0.162 HD
ENDBRANCH  22  23
ENDBRANCH  21  22
ENDBRANCH  18  21
ENDBRANCH  16  17
ENDBRANCH   1  16
BRANCH   5  28
HETATM   28  C   UNL     1      39.392 -11.717   4.953  1.00  0.00     0.176 C 
BRANCH  28  29
HETATM   29  O   UNL     1      39.294 -13.014   5.538  1.00  0.00    -0.400 OA
HETATM   30  H   UNL     1      38.453 -13.018   6.042  1.00  0.00     0.209 HD
ENDBRANCH  28  29
ENDBRANCH   5  28
BRANCH  14  31
HETATM   31  C   UNL     1      42.348  -9.049   9.356  1.00  0.00     0.017 A 
HETATM   32  C   UNL     1      41.284  -8.388   9.966  1.00  0.00     0.130 A 
HETATM   33  N   UNL     1      41.303  -7.893  11.232  1.00  0.00    -0.272 NA
HETATM   34  C   UNL     1      42.443  -8.062  11.932  1.00  0.00     0.116 A 
HETATM   35  C   UNL     1      43.564  -8.695  11.426  1.00  0.00     0.020 A 
HETATM   36  C   UNL     1      43.512  -9.189  10.123  1.00  0.00     0.017 A 
ENDBRANCH  14  31
BRANCH   7  37
HETATM   37  O   UNL     1      38.700 -13.756   3.045  1.00  0.00    -0.395 OA
HETATM   38  H   UNL     1      38.692 -14.567   2.503  1.00  0.00     0.210 HD
ENDBRANCH   7  37
TORSDOF 9
ENDMDL
MODEL 5
REMARK VINA RESULT:      -7.5      3.964      8.680
REMARK  9 active torsions:
REMARK  status: ('A' for Active; 'I' for Inactive)
REMARK       I    between atoms: C_2  and  N_3 
REMARK    1  A    between atoms: N_3  and  C_4 
REMARK    2  A    between atoms: C_4  and  C_5 
REMARK    3  A    between atoms: C_5  and  N_6 
REMARK       I    between atoms: N_6  and  C_7 
REMARK    4  A    between atoms: C_7  and  C_8 
REMARK    5  A    between atoms: C_8  and  C_9 
REMARK    6  A    between atoms: C_13  and  C_14 
REMARK    7  A    between atoms: C_14  and  O_15 
REMARK    8  A    between atoms: C_17  and  O_18 
REMARK    9  A    between atoms: C_25  and  C_26 
ROOT
HETATM    1  C   UNL     1      40.835 -13.905   5.095  1.00  0.00     0.056 C 
HETATM    2  C   UNL     1      40.644 -15.423   4.634  1.00  0.00    -0.030 C 
HETATM    3  C   UNL     1      40.195 -16.283   5.851  1.00  0.00     0.016 C 
HETATM    4  C   UNL     1      41.986 -16.059   4.042  1.00  0.00     0.012 C 
HETATM    5  C   UNL     1      42.385 -15.620   2.564  1.00  0.00     0.008 C 
HETATM    6  C   UNL     1      43.441 -16.623   2.007  1.00  0.00     0.020 C 
HETATM    7  C   UNL     1      41.131 -15.737   1.643  1.00  0.00     0.128 C 
HETATM    8  C   UNL     1      39.910 -15.019   2.202  1.00  0.00     0.033 C 
HETATM    9  C   UNL     1      39.536 -15.584   3.562  1.00  0.00     0.013 C 
HETATM   10  C   UNL     1      43.149 -15.986   5.068  1.00  0.00     0.054 C 
HETATM   11  C   UNL     1      43.205 -14.649   5.711  1.00  0.00     0.010 A 
HETATM   12  C   UNL     1      42.195 -13.715   5.736  1.00  0.00     0.054 A 
HETATM   13  N   UNL     1      42.532 -12.522   6.347  1.00  0.00    -0.244 NA
HETATM   14  C   UNL     1      43.756 -12.583   6.845  1.00  0.00     0.110 A 
HETATM   15  S   UNL     1      44.574 -14.072   6.536  1.00  0.00    -0.072 SA
ENDROOT
BRANCH   1  16
HETATM   16  C   UNL     1      39.748 -13.319   6.029  1.00  0.00     0.114 C 
BRANCH  16  17
HETATM   17  C   UNL     1      39.522 -11.834   5.887  1.00  0.00     0.218 C 
HETATM   18  N   UNL     1      39.841 -11.093   7.000  1.00  0.00    -0.359 N 
HETATM   19  H   UNL     1      40.006 -11.555   7.885  1.00  0.00     0.162 HD
HETATM   20  O   UNL     1      39.084 -11.339   4.854  1.00  0.00    -0.274 OA
BRANCH  18  21
HETATM   21  C   UNL     1      39.711  -9.644   7.011  1.00  0.00     0.142 C 
BRANCH  21  22
HETATM   22  C   UNL     1      40.566  -8.985   8.099  1.00  0.00     0.142 C 
BRANCH  22  23
HETATM   23  N   UNL     1      40.492  -9.683   9.373  1.00  0.00    -0.360 N 
HETATM   24  C   UNL     1      39.653  -9.258  10.375  1.00  0.00     0.213 C 
HETATM   25  C   UNL     1      39.675 -10.115  11.612  1.00  0.00     0.117 C 
HETATM   26  O   UNL     1      38.937  -8.267  10.282  1.00  0.00    -0.274 OA
HETATM   27  H   UNL     1      41.063 -10.508   9.499  1.00  0.00     0.162 HD
ENDBRANCH  22  23
ENDBRANCH  21  22
ENDBRANCH  18  21
ENDBRANCH  16  17
ENDBRANCH   1  16
BRANCH   5  28
HETATM   28  C   UNL     1      43.024 -14.206   2.476  1.00  0.00     0.176 C 
BRANCH  28  29
HETATM   29  O   UNL     1      44.053 -14.134   1.491  1.00  0.00    -0.400 OA
HETATM   30  H   UNL     1      43.593 -14.085   0.625  1.00  0.00     0.209 HD
ENDBRANCH  28  29
ENDBRANCH   5  28
BRANCH  14  31
HETATM   31  C   UNL     1      44.411 -11.480   7.564  1.00  0.00     0.017 A 
HETATM   32  C   UNL     1      43.833 -10.805   8.638  1.00  0.00     0.130 A 
HETATM   33  N   UNL     1      44.419  -9.783   9.315  1.00  0.00    -0.272 NA
HETATM   34  C   UNL     1      45.646  -9.406   8.902  1.00  0.00     0.116 A 
HETATM   35  C   UNL     1      46.312  -9.998   7.844  1.00  0.00     0.020 A 
HETATM   36  C   UNL     1      45.681 -11.043   7.169  1.00  0.00     0.017 A 
ENDBRANCH  14  31
BRANCH   7  37
HETATM   37  O   UNL     1      41.379 -15.208   0.339  1.00  0.00    -0.395 OA
HETATM   38  H   UNL     1      41.962 -15.839  -0.124  1.00  0.00     0.210 HD
ENDBRANCH   7  37
TORSDOF 9
ENDMDL
MODEL 6
REMARK VINA RESULT:      -7.4      3.187      6.481
REMARK  9 active torsions:
REMARK  status: ('A' for Active; 'I' for Inactive)
REMARK       I    between atoms: C_2  and  N_3 
REMARK    1  A    between atoms: N_3  and  C_4 
REMARK    2  A    between atoms: C_4  and  C_5 
REMARK    3  A    between atoms: C_5  and  N_6 
REMARK       I    between atoms: N_6  and  C_7 
REMARK    4  A    between atoms: C_7  and  C_8 
REMARK    5  A    between atoms: C_8  and  C_9 
REMARK    6  A    between atoms: C_13  and  C_14 
REMARK    7  A    between atoms: C_14  and  O_15 
REMARK    8  A    between atoms: C_17  and  O_18 
REMARK    9  A    between atoms: C_25  and  C_26 
ROOT
HETATM    1  C   UNL     1      41.747 -11.820   4.396  1.00  0.00     0.056 C 
HETATM    2  C   UNL     1      43.132 -12.610   4.506  1.00  0.00    -0.030 C 
HETATM    3  C   UNL     1      44.266 -11.763   3.859  1.00  0.00     0.016 C 
HETATM    4  C   UNL     1      43.090 -14.030   3.773  1.00  0.00     0.012 C 
HETATM    5  C   UNL     1      42.319 -15.197   4.534  1.00  0.00     0.008 C 
HETATM    6  C   UNL     1      42.727 -16.564   3.908  1.00  0.00     0.020 C 
HETATM    7  C   UNL     1      42.790 -15.230   6.021  1.00  0.00     0.128 C 
HETATM    8  C   UNL     1      42.705 -13.872   6.706  1.00  0.00     0.033 C 
HETATM    9  C   UNL     1      43.562 -12.853   5.975  1.00  0.00     0.013 C 
HETATM   10  C   UNL     1      42.710 -13.882   2.273  1.00  0.00     0.054 C 
HETATM   11  C   UNL     1      41.570 -12.947   2.106  1.00  0.00     0.010 A 
HETATM   12  C   UNL     1      41.129 -12.027   3.028  1.00  0.00     0.054 A 
HETATM   13  N   UNL     1      40.002 -11.325   2.644  1.00  0.00    -0.244 NA
HETATM   14  C   UNL     1      39.644 -11.655   1.414  1.00  0.00     0.110 A 
HETATM   15  S   UNL     1      40.623 -12.882   0.696  1.00  0.00    -0.072 SA
ENDROOT
BRANCH   1  16
HETATM   16  C   UNL     1      41.784 -10.303   4.710  1.00  0.00     0.114 C 
BRANCH  16  17
HETATM   17  C   UNL     1      41.362  -9.935   6.111  1.00  0.00     0.218 C 
HETATM   18  N   UNL     1      42.235  -9.107   6.776  1.00  0.00    -0.359 N 
HETATM   19  H   UNL     1      43.165  -8.952   6.409  1.00  0.00     0.162 HD
HETATM   20  O   UNL     1      40.321 -10.351   6.607  1.00  0.00    -0.274 OA
BRANCH  18  21
HETATM   21  C   UNL     1      41.955  -8.633   8.123  1.00  0.00     0.142 C 
BRANCH  21  22
HETATM   22  C   UNL     1      43.052  -9.020   9.122  1.00  0.00     0.142 C 
BRANCH  22  23
HETATM   23  N   UNL     1      44.064  -9.886   8.538  1.00  0.00    -0.360 N 
HETATM   24  C   UNL     1      45.293  -9.400   8.162  1.00  0.00     0.213 C 
HETATM   25  C   UNL     1      46.231 -10.439   7.608  1.00  0.00     0.117 C 
HETATM   26  O   UNL     1      45.614  -8.221   8.265  1.00  0.00    -0.274 OA
HETATM   27  H   UNL     1      43.847 -10.868   8.431  1.00  0.00     0.162 HD
ENDBRANCH  22  23
ENDBRANCH  21  22
ENDBRANCH  18  21
ENDBRANCH  16  17
ENDBRANCH   1  16
BRANCH   5  28
HETATM   28  C   UNL     1      40.771 -15.103   4.431  1.00  0.00     0.176 C 
BRANCH  28  29
HETATM   29  O   UNL     1      40.142 -16.381   4.512  1.00  0.00    -0.400 OA
HETATM   30  H   UNL     1      39.765 -16.438   5.416  1.00  0.00     0.209 HD
ENDBRANCH  28  29
ENDBRANCH   5  28
BRANCH  14  31
HETATM   31  C   UNL     1      38.489 -11.081   0.709  1.00  0.00     0.017 A 
HETATM   32  C   UNL     1      38.284 -11.197  -0.665  1.00  0.00     0.130 A 
HETATM   33  N   UNL     1      37.226 -10.673  -1.338  1.00  0.00    -0.272 NA
HETATM   34  C   UNL     1      36.320  -9.992  -0.607  1.00  0.00     0.116 A 
HETATM   35  C   UNL     1      36.424  -9.806   0.760  1.00  0.00     0.020 A 
HETATM   36  C   UNL     1      37.524 -10.355   1.419  1.00  0.00     0.017 A 
ENDBRANCH  14  31
BRANCH   7  37
HETATM   37  O   UNL     1      42.023 -16.150   6.801  1.00  0.00    -0.395 OA
HETATM   38  H   UNL     1      42.147 -17.035   6.410  1.00  0.00     0.210 HD
ENDBRANCH   7  37
TORSDOF 9
ENDMDL
MODEL 7
REMARK VINA RESULT:      -7.4      3.098      6.072
REMARK  9 active torsions:
REMARK  status: ('A' for Active; 'I' for Inactive)
REMARK       I    between atoms: C_2  and  N_3 
REMARK    1  A    between atoms: N_3  and  C_4 
REMARK    2  A    between atoms: C_4  and  C_5 
REMARK    3  A    between atoms: C_5  and  N_6 
REMARK       I    between atoms: N_6  and  C_7 
REMARK    4  A    between atoms: C_7  and  C_8 
REMARK    5  A    between atoms: C_8  and  C_9 
REMARK    6  A    between atoms: C_13  and  C_14 
REMARK    7  A    between atoms: C_14  and  O_15 
REMARK    8  A    between atoms: C_17  and  O_18 
REMARK    9  A    between atoms: C_25  and  C_26 
ROOT
HETATM    1  C   UNL     1      41.728 -12.666   4.494  1.00  0.00     0.056 C 
HETATM    2  C   UNL     1      42.466 -12.673   3.077  1.00  0.00    -0.030 C 
HETATM    3  C   UNL     1      43.932 -12.180   3.253  1.00  0.00     0.016 C 
HETATM    4  C   UNL     1      41.747 -11.730   2.005  1.00  0.00     0.012 C 
HETATM    5  C   UNL     1      40.408 -12.292   1.353  1.00  0.00     0.008 C 
HETATM    6  C   UNL     1      40.087 -11.469   0.069  1.00  0.00     0.020 C 
HETATM    7  C   UNL     1      40.647 -13.763   0.890  1.00  0.00     0.128 C 
HETATM    8  C   UNL     1      41.230 -14.647   1.985  1.00  0.00     0.033 C 
HETATM    9  C   UNL     1      42.561 -14.093   2.463  1.00  0.00     0.013 C 
HETATM   10  C   UNL     1      41.647 -10.266   2.515  1.00  0.00     0.054 C 
HETATM   11  C   UNL     1      41.197 -10.228   3.929  1.00  0.00     0.010 A 
HETATM   12  C   UNL     1      41.225 -11.274   4.821  1.00  0.00     0.054 A 
HETATM   13  N   UNL     1      40.683 -10.987   6.060  1.00  0.00    -0.244 NA
HETATM   14  C   UNL     1      40.323  -9.716   6.127  1.00  0.00     0.110 A 
HETATM   15  S   UNL     1      40.566  -8.832   4.664  1.00  0.00    -0.072 SA
ENDROOT
BRANCH   1  16
HETATM   16  C   UNL     1      42.532 -13.210   5.701  1.00  0.00     0.114 C 
BRANCH  16  17
HETATM   17  C   UNL     1      42.291 -14.664   6.021  1.00  0.00     0.218 C 
HETATM   18  N   UNL     1      43.160 -15.540   5.413  1.00  0.00    -0.359 N 
HETATM   19  H   UNL     1      43.756 -15.220   4.660  1.00  0.00     0.162 HD
HETATM   20  O   UNL     1      41.386 -15.026   6.765  1.00  0.00    -0.274 OA
BRANCH  18  21
HETATM   21  C   UNL     1      43.081 -16.974   5.646  1.00  0.00     0.142 C 
BRANCH  21  22
HETATM   22  C   UNL     1      44.285 -17.730   5.075  1.00  0.00     0.142 C 
BRANCH  22  23
HETATM   23  N   UNL     1      43.897 -18.836   4.213  1.00  0.00    -0.360 N 
HETATM   24  C   UNL     1      43.608 -18.641   2.884  1.00  0.00     0.213 C 
HETATM   25  C   UNL     1      43.259 -19.897   2.131  1.00  0.00     0.117 C 
HETATM   26  O   UNL     1      43.632 -17.542   2.342  1.00  0.00    -0.274 OA
HETATM   27  H   UNL     1      43.863 -19.764   4.614  1.00  0.00     0.162 HD
ENDBRANCH  22  23
ENDBRANCH  21  22
ENDBRANCH  18  21
ENDBRANCH  16  17
ENDBRANCH   1  16
BRANCH   5  28
HETATM   28  C   UNL     1      39.162 -12.183   2.276  1.00  0.00     0.176 C 
BRANCH  28  29
HETATM   29  O   UNL     1      37.944 -12.098   1.538  1.00  0.00    -0.400 OA
HETATM   30  H   UNL     1      37.562 -11.220   1.751  1.00  0.00     0.209 HD
ENDBRANCH  28  29
ENDBRANCH   5  28
BRANCH  14  31
HETATM   31  C   UNL     1      39.720  -9.091   7.313  1.00  0.00     0.017 A 
HETATM   32  C   UNL     1      39.070  -7.858   7.293  1.00  0.00     0.130 A 
HETATM   33  N   UNL     1      38.507  -7.262   8.377  1.00  0.00    -0.272 NA
HETATM   34  C   UNL     1      38.598  -7.923   9.548  1.00  0.00     0.116 A 
HETATM   35  C   UNL     1      39.226  -9.148   9.688  1.00  0.00     0.020 A 
HETATM   36  C   UNL     1      39.795  -9.731   8.557  1.00  0.00     0.017 A 
ENDBRANCH  14  31
BRANCH   7  37
HETATM   37  O   UNL     1      39.439 -14.380   0.440  1.00  0.00    -0.395 OA
HETATM   38  H   UNL     1      39.361 -15.236   0.903  1.00  0.00     0.210 HD
ENDBRANCH   7  37
TORSDOF 9
ENDMDL
MODEL 8
REMARK VINA RESULT:      -7.3      3.631      8.049
REMARK  9 active torsions:
REMARK  status: ('A' for Active; 'I' for Inactive)
REMARK       I    between atoms: C_2  and  N_3 
REMARK    1  A    between atoms: N_3  and  C_4 
REMARK    2  A    between atoms: C_4  and  C_5 
REMARK    3  A    between atoms: C_5  and  N_6 
REMARK       I    between atoms: N_6  and  C_7 
REMARK    4  A    between atoms: C_7  and  C_8 
REMARK    5  A    between atoms: C_8  and  C_9 
REMARK    6  A    between atoms: C_13  and  C_14 
REMARK    7  A    between atoms: C_14  and  O_15 
REMARK    8  A    between atoms: C_17  and  O_18 
REMARK    9  A    between atoms: C_25  and  C_26 
ROOT
HETATM    1  C   UNL     1      40.898 -13.749   4.998  1.00  0.00     0.056 C 
HETATM    2  C   UNL     1      40.752 -15.238   4.436  1.00  0.00    -0.030 C 
HETATM    3  C   UNL     1      40.353 -16.195   5.597  1.00  0.00     0.016 C 
HETATM    4  C   UNL     1      42.105 -15.784   3.782  1.00  0.00     0.012 C 
HETATM    5  C   UNL     1      42.464 -15.231   2.333  1.00  0.00     0.008 C 
HETATM    6  C   UNL     1      43.544 -16.155   1.694  1.00  0.00     0.020 C 
HETATM    7  C   UNL     1      41.199 -15.330   1.424  1.00  0.00     0.128 C 
HETATM    8  C   UNL     1      39.963 -14.696   2.048  1.00  0.00     0.033 C 
HETATM    9  C   UNL     1      39.632 -15.365   3.371  1.00  0.00     0.013 C 
HETATM   10  C   UNL     1      43.282 -15.740   4.795  1.00  0.00     0.054 C 
HETATM   11  C   UNL     1      43.301 -14.449   5.527  1.00  0.00     0.010 A 
HETATM   12  C   UNL     1      42.261 -13.555   5.631  1.00  0.00     0.054 A 
HETATM   13  N   UNL     1      42.567 -12.395   6.317  1.00  0.00    -0.244 NA
HETATM   14  C   UNL     1      43.800 -12.446   6.793  1.00  0.00     0.110 A 
HETATM   15  S   UNL     1      44.663 -13.881   6.370  1.00  0.00    -0.072 SA
ENDROOT
BRANCH   1  16
HETATM   16  C   UNL     1      39.807 -13.268   5.986  1.00  0.00     0.114 C 
BRANCH  16  17
HETATM   17  C   UNL     1      39.108 -11.992   5.587  1.00  0.00     0.218 C 
HETATM   18  N   UNL     1      39.328 -11.594   4.290  1.00  0.00    -0.359 N 
HETATM   19  H   UNL     1      40.066 -12.025   3.748  1.00  0.00     0.162 HD
HETATM   20  O   UNL     1      38.401 -11.365   6.370  1.00  0.00    -0.274 OA
BRANCH  18  21
HETATM   21  C   UNL     1      38.698 -10.403   3.742  1.00  0.00     0.142 C 
BRANCH  21  22
HETATM   22  C   UNL     1      38.283 -10.577   2.277  1.00  0.00     0.142 C 
BRANCH  22  23
HETATM   23  N   UNL     1      39.178  -9.895   1.355  1.00  0.00    -0.360 N 
HETATM   24  C   UNL     1      39.919 -10.591   0.430  1.00  0.00     0.213 C 
HETATM   25  C   UNL     1      40.765  -9.728  -0.468  1.00  0.00     0.117 C 
HETATM   26  O   UNL     1      39.899 -11.813   0.329  1.00  0.00    -0.274 OA
HETATM   27  H   UNL     1      39.230  -8.886   1.398  1.00  0.00     0.162 HD
ENDBRANCH  22  23
ENDBRANCH  21  22
ENDBRANCH  18  21
ENDBRANCH  16  17
ENDBRANCH   1  16
BRANCH   5  28
HETATM   28  C   UNL     1      43.051 -13.792   2.333  1.00  0.00     0.176 C 
BRANCH  28  29
HETATM   29  O   UNL     1      42.085 -12.810   1.963  1.00  0.00    -0.400 OA
HETATM   30  H   UNL     1      41.221 -13.153   2.276  1.00  0.00     0.209 HD
ENDBRANCH  28  29
ENDBRANCH   5  28
BRANCH  14  31
HETATM   31  C   UNL     1      44.428 -11.373   7.576  1.00  0.00     0.017 A 
HETATM   32  C   UNL     1      43.857 -10.811   8.717  1.00  0.00     0.130 A 
HETATM   33  N   UNL     1      44.418  -9.818   9.455  1.00  0.00    -0.272 NA
HETATM   34  C   UNL     1      45.612  -9.352   9.036  1.00  0.00     0.116 A 
HETATM   35  C   UNL     1      46.268  -9.828   7.915  1.00  0.00     0.020 A 
HETATM   36  C   UNL     1      45.663 -10.846   7.179  1.00  0.00     0.017 A 
ENDBRANCH  14  31
BRANCH   7  37
HETATM   37  O   UNL     1      41.406 -14.705   0.156  1.00  0.00    -0.395 OA
HETATM   38  H   UNL     1      41.435 -13.742   0.309  1.00  0.00     0.210 HD
ENDBRANCH   7  37
TORSDOF 9
ENDMDL
MODEL 9
REMARK VINA RESULT:      -7.3      1.805      2.140
REMARK  9 active torsions:
REMARK  status: ('A' for Active; 'I' for Inactive)
REMARK       I    between atoms: C_2  and  N_3 
REMARK    1  A    between atoms: N_3  and  C_4 
REMARK    2  A    between atoms: C_4  and  C_5 
REMARK    3  A    between atoms: C_5  and  N_6 
REMARK       I    between atoms: N_6  and  C_7 
REMARK    4  A    between atoms: C_7  and  C_8 
REMARK    5  A    between atoms: C_8  and  C_9 
REMARK    6  A    between atoms: C_13  and  C_14 
REMARK    7  A    between atoms: C_14  and  O_15 
REMARK    8  A    between atoms: C_17  and  O_18 
REMARK    9  A    between atoms: C_25  and  C_26 
ROOT
HETATM    1  C   UNL     1      41.337 -13.801   4.000  1.00  0.00     0.056 C 
HETATM    2  C   UNL     1      41.056 -13.298   5.491  1.00  0.00    -0.030 C 
HETATM    3  C   UNL     1      39.527 -13.349   5.777  1.00  0.00     0.016 C 
HETATM    4  C   UNL     1      41.560 -11.802   5.740  1.00  0.00     0.012 C 
HETATM    5  C   UNL     1      43.129 -11.606   5.929  1.00  0.00     0.008 C 
HETATM    6  C   UNL     1      43.391 -10.207   6.564  1.00  0.00     0.020 C 
HETATM    7  C   UNL     1      43.654 -12.663   6.949  1.00  0.00     0.128 C 
HETATM    8  C   UNL     1      43.237 -14.087   6.603  1.00  0.00     0.033 C 
HETATM    9  C   UNL     1      41.723 -14.202   6.559  1.00  0.00     0.013 C 
HETATM   10  C   UNL     1      40.906 -10.809   4.741  1.00  0.00     0.054 C 
HETATM   11  C   UNL     1      40.923 -11.358   3.362  1.00  0.00     0.010 A 
HETATM   12  C   UNL     1      41.109 -12.675   3.012  1.00  0.00     0.054 A 
HETATM   13  N   UNL     1      41.147 -12.907   1.649  1.00  0.00    -0.244 NA
HETATM   14  C   UNL     1      40.913 -11.790   0.980  1.00  0.00     0.110 A 
HETATM   15  S   UNL     1      40.702 -10.396   1.978  1.00  0.00    -0.072 SA
ENDROOT
BRANCH   1  16
HETATM   16  C   UNL     1      40.556 -15.053   3.529  1.00  0.00     0.114 C 
BRANCH  16  17
HETATM   17  C   UNL     1      41.337 -16.343   3.577  1.00  0.00     0.218 C 
HETATM   18  N   UNL     1      41.678 -16.857   2.348  1.00  0.00    -0.359 N 
HETATM   19  H   UNL     1      41.244 -16.492   1.510  1.00  0.00     0.162 HD
HETATM   20  O   UNL     1      41.637 -16.883   4.636  1.00  0.00    -0.274 OA
BRANCH  18  21
HETATM   21  C   UNL     1      42.460 -18.077   2.225  1.00  0.00     0.142 C 
BRANCH  21  22
HETATM   22  C   UNL     1      43.848 -17.954   2.863  1.00  0.00     0.142 C 
BRANCH  22  23
HETATM   23  N   UNL     1      43.990 -18.769   4.060  1.00  0.00    -0.360 N 
HETATM   24  C   UNL     1      43.990 -20.142   3.996  1.00  0.00     0.213 C 
HETATM   25  C   UNL     1      44.182 -20.828   5.322  1.00  0.00     0.117 C 
HETATM   26  O   UNL     1      43.851 -20.769   2.952  1.00  0.00    -0.274 OA
HETATM   27  H   UNL     1      44.108 -18.298   4.947  1.00  0.00     0.162 HD
ENDBRANCH  22  23
ENDBRANCH  21  22
ENDBRANCH  18  21
ENDBRANCH  16  17
ENDBRANCH   1  16
BRANCH   5  28
HETATM   28  C   UNL     1      43.935 -11.650   4.600  1.00  0.00     0.176 C 
BRANCH  28  29
HETATM   29  O   UNL     1      45.262 -11.149   4.752  1.00  0.00    -0.400 OA
HETATM   30  H   UNL     1      45.588 -11.508   5.605  1.00  0.00     0.209 HD
ENDBRANCH  28  29
ENDBRANCH   5  28
BRANCH  14  31
HETATM   31  C   UNL     1      40.875 -11.699  -0.486  1.00  0.00     0.017 A 
HETATM   32  C   UNL     1      40.577 -12.774  -1.321  1.00  0.00     0.130 A 
HETATM   33  N   UNL     1      40.538 -12.713  -2.679  1.00  0.00    -0.272 NA
HETATM   34  C   UNL     1      40.815 -11.519  -3.240  1.00  0.00     0.116 A 
HETATM   35  C   UNL     1      41.132 -10.386  -2.511  1.00  0.00     0.020 A 
HETATM   36  C   UNL     1      41.165 -10.484  -1.120  1.00  0.00     0.017 A 
ENDBRANCH  14  31
BRANCH   7  37
HETATM   37  O   UNL     1      45.079 -12.647   7.045  1.00  0.00    -0.395 OA
HETATM   38  H   UNL     1      45.386 -13.569   6.959  1.00  0.00     0.210 HD
ENDBRANCH   7  37
TORSDOF 9
ENDMDL
MODEL 10
REMARK VINA RESULT:      -7.2      5.594      8.309
REMARK  9 active torsions:
REMARK  status: ('A' for Active; 'I' for Inactive)
REMARK       I    between atoms: C_2  and  N_3 
REMARK    1  A    between atoms: N_3  and  C_4 
REMARK    2  A    between atoms: C_4  and  C_5 
REMARK    3  A    between atoms: C_5  and  N_6 
REMARK       I    between atoms: N_6  and  C_7 
REMARK    4  A    between atoms: C_7  and  C_8 
REMARK    5  A    between atoms: C_8  and  C_9 
REMARK    6  A    between atoms: C_13  and  C_14 
REMARK    7  A    between atoms: C_14  and  O_15 
REMARK    8  A    between atoms: C_17  and  O_18 
REMARK    9  A    between atoms: C_25  and  C_26 
ROOT
HETATM    1  C   UNL     1      42.214  -9.014  11.294  1.00  0.00     0.056 C 
HETATM    2  C   UNL     1      41.448  -8.797  12.680  1.00  0.00    -0.030 C 
HETATM    3  C   UNL     1      40.701 -10.105  13.071  1.00  0.00     0.016 C 
HETATM    4  C   UNL     1      40.376  -7.612  12.611  1.00  0.00     0.012 C 
HETATM    5  C   UNL     1      40.957  -6.130  12.655  1.00  0.00     0.008 C 
HETATM    6  C   UNL     1      39.799  -5.145  12.998  1.00  0.00     0.020 C 
HETATM    7  C   UNL     1      41.991  -6.024  13.818  1.00  0.00     0.128 C 
HETATM    8  C   UNL     1      43.056  -7.112  13.773  1.00  0.00     0.033 C 
HETATM    9  C   UNL     1      42.414  -8.487  13.852  1.00  0.00     0.013 C 
HETATM   10  C   UNL     1      39.331  -7.858  11.489  1.00  0.00     0.054 C 
HETATM   11  C   UNL     1      39.993  -8.309  10.239  1.00  0.00     0.010 A 
HETATM   12  C   UNL     1      41.263  -8.824  10.130  1.00  0.00     0.054 A 
HETATM   13  N   UNL     1      41.660  -9.105   8.836  1.00  0.00    -0.244 NA
HETATM   14  C   UNL     1      40.672  -8.878   7.986  1.00  0.00     0.110 A 
HETATM   15  S   UNL     1      39.238  -8.252   8.717  1.00  0.00    -0.072 SA
ENDROOT
BRANCH   1  16
HETATM   16  C   UNL     1      42.969 -10.355  11.119  1.00  0.00     0.114 C 
BRANCH  16  17
HETATM   17  C   UNL     1      44.132 -10.308  10.160  1.00  0.00     0.218 C 
HETATM   18  N   UNL     1      43.927 -10.968   8.972  1.00  0.00    -0.359 N 
HETATM   19  H   UNL     1      43.140 -11.597   8.871  1.00  0.00     0.162 HD
HETATM   20  O   UNL     1      45.176  -9.725  10.432  1.00  0.00    -0.274 OA
BRANCH  18  21
HETATM   21  C   UNL     1      44.941 -10.988   7.928  1.00  0.00     0.142 C 
BRANCH  21  22
HETATM   22  C   UNL     1      44.716 -12.110   6.909  1.00  0.00     0.142 C 
BRANCH  22  23
HETATM   23  N   UNL     1      43.430 -12.771   7.077  1.00  0.00    -0.360 N 
HETATM   24  C   UNL     1      42.776 -13.345   6.013  1.00  0.00     0.213 C 
HETATM   25  C   UNL     1      41.476 -14.016   6.369  1.00  0.00     0.117 C 
HETATM   26  O   UNL     1      43.204 -13.322   4.865  1.00  0.00    -0.274 OA
HETATM   27  H   UNL     1      43.034 -12.817   8.006  1.00  0.00     0.162 HD
ENDBRANCH  22  23
ENDBRANCH  21  22
ENDBRANCH  18  21
ENDBRANCH  16  17
ENDBRANCH   1  16
BRANCH   5  28
HETATM   28  C   UNL     1      41.567  -5.649  11.308  1.00  0.00     0.176 C 
BRANCH  28  29
HETATM   29  O   UNL     1      41.550  -4.229  11.180  1.00  0.00    -0.400 OA
HETATM   30  H   UNL     1      40.647  -3.998  10.876  1.00  0.00     0.209 HD
ENDBRANCH  28  29
ENDBRANCH   5  28
BRANCH  14  31
HETATM   31  C   UNL     1      40.768  -9.086   6.534  1.00  0.00     0.017 A 
HETATM   32  C   UNL     1      39.789  -8.684   5.628  1.00  0.00     0.130 A 
HETATM   33  N   UNL     1      39.856  -8.867   4.283  1.00  0.00    -0.272 NA
HETATM   34  C   UNL     1      40.955  -9.489   3.810  1.00  0.00     0.116 A 
HETATM   35  C   UNL     1      41.985  -9.939   4.616  1.00  0.00     0.020 A 
HETATM   36  C   UNL     1      41.884  -9.736   5.992  1.00  0.00     0.017 A 
ENDBRANCH  14  31
BRANCH   7  37
HETATM   37  O   UNL     1      42.667  -4.765  13.815  1.00  0.00    -0.395 OA
HETATM   38  H   UNL     1      42.413  -4.302  12.995  1.00  0.00     0.210 HD
ENDBRANCH   7  37
TORSDOF 9
ENDMDL
