MODEL 1
REMARK VINA RESULT:      -8.0      0.000      0.000
REMARK  5 active torsions:
REMARK  status: ('A' for Active; 'I' for Inactive)
REMARK    1  A    between atoms: C_7  and  C_8 
REMARK    2  A    between atoms: N_9  and  N_10 
REMARK       I    between atoms: N_10  and  C_11 
REMARK    3  A    between atoms: C_11  and  C_12 
REMARK    4  A    between atoms: C_12  and  O_13 
REMARK    5  A    between atoms: O_13  and  C_14 
ROOT
HETATM    1  C   UNL     1      43.124 -13.107   5.590  1.00  0.00     0.147 C 
HETATM    2  N   UNL     1      43.507 -13.559   6.748  1.00  0.00    -0.205 NA
ENDROOT
BRANCH   2   3
HETATM    3  N   UNL     1      42.778 -14.491   7.434  1.00  0.00    -0.149 NA
HETATM    4  C   UNL     1      42.592 -15.789   6.983  1.00  0.00     0.241 C 
HETATM    5  O   UNL     1      41.503 -16.331   7.190  1.00  0.00    -0.276 OA
HETATM    6  H   UNL     1      41.867 -14.131   7.713  1.00  0.00     0.158 HD
BRANCH   4   7
HETATM    7  C   UNL     1      43.775 -16.505   6.340  1.00  0.00     0.273 C 
BRANCH   7   8
HETATM    8  O   UNL     1      43.765 -17.896   6.637  1.00  0.00    -0.343 OA
BRANCH   8   9
HETATM    9  C   UNL     1      43.808 -18.757   5.575  1.00  0.00     0.069 A 
HETATM   10  C   UNL     1      43.807 -18.137   4.323  1.00  0.00     0.037 A 
HETATM   11  C   UNL     1      43.829 -18.896   3.152  1.00  0.00     0.003 A 
HETATM   12  C   UNL     1      43.846 -20.286   3.226  1.00  0.00     0.000 A 
HETATM   13  C   UNL     1      43.849 -20.913   4.471  1.00  0.00     0.003 A 
HETATM   14  C   UNL     1      43.836 -20.152   5.643  1.00  0.00     0.037 A 
ENDBRANCH   8   9
ENDBRANCH   7   8
ENDBRANCH   4   7
ENDBRANCH   2   3
BRANCH   1  15
HETATM   15  C   UNL     1      41.945 -13.458   4.821  1.00  0.00     0.017 A 
HETATM   16  C   UNL     1      40.690 -12.929   5.112  1.00  0.00     0.018 A 
HETATM   17  C   UNL     1      40.256 -11.973   6.166  1.00  0.00     0.069 C 
HETATM   18  N   UNL     1      39.789 -13.476   4.235  1.00  0.00    -0.358 N 
HETATM   19  H   UNL     1      38.797 -13.281   4.216  1.00  0.00     0.166 HD
HETATM   20  C   UNL     1      40.422 -14.329   3.365  1.00  0.00     0.043 A 
HETATM   21  C   UNL     1      41.782 -14.314   3.681  1.00  0.00     0.004 A 
HETATM   22  C   UNL     1      39.887 -15.097   2.323  1.00  0.00     0.030 A 
HETATM   23  C   UNL     1      42.652 -15.078   2.875  1.00  0.00     0.014 A 
HETATM   24  C   UNL     1      42.135 -15.855   1.831  1.00  0.00     0.001 A 
HETATM   25  C   UNL     1      40.770 -15.868   1.566  1.00  0.00     0.002 A 
ENDBRANCH   1  15
TORSDOF 5
ENDMDL
MODEL 2
REMARK VINA RESULT:      -7.9      3.276      6.606
REMARK  5 active torsions:
REMARK  status: ('A' for Active; 'I' for Inactive)
REMARK    1  A    between atoms: C_7  and  C_8 
REMARK    2  A    between atoms: N_9  and  N_10 
REMARK       I    between atoms: N_10  and  C_11 
REMARK    3  A    between atoms: C_11  and  C_12 
REMARK    4  A    between atoms: C_12  and  O_13 
REMARK    5  A    between atoms: O_13  and  C_14 
ROOT
HETATM    1  C   UNL     1      41.284 -14.874   4.680  1.00  0.00     0.147 C 
HETATM    2  N   UNL     1      41.537 -13.651   4.313  1.00  0.00    -0.205 NA
ENDROOT
BRANCH   2   3
HETATM    3  N   UNL     1      42.815 -13.214   4.100  1.00  0.00    -0.149 NA
HETATM    4  C   UNL     1      43.365 -12.128   4.763  1.00  0.00     0.241 C 
HETATM    5  O   UNL     1      44.137 -11.392   4.145  1.00  0.00    -0.276 OA
HETATM    6  H   UNL     1      43.018 -13.100   3.108  1.00  0.00     0.158 HD
BRANCH   4   7
HETATM    7  C   UNL     1      43.057 -11.960   6.248  1.00  0.00     0.273 C 
BRANCH   7   8
HETATM    8  O   UNL     1      44.195 -12.251   7.051  1.00  0.00    -0.343 OA
BRANCH   8   9
HETATM    9  C   UNL     1      44.787 -11.198   7.692  1.00  0.00     0.069 A 
HETATM   10  C   UNL     1      44.149 -10.801   8.870  1.00  0.00     0.037 A 
HETATM   11  C   UNL     1      44.636  -9.726   9.615  1.00  0.00     0.003 A 
HETATM   12  C   UNL     1      45.765  -9.036   9.184  1.00  0.00     0.000 A 
HETATM   13  C   UNL     1      46.409  -9.427   8.011  1.00  0.00     0.003 A 
HETATM   14  C   UNL     1      45.926 -10.509   7.269  1.00  0.00     0.037 A 
ENDBRANCH   8   9
ENDBRANCH   7   8
ENDBRANCH   4   7
ENDBRANCH   2   3
BRANCH   1  15
HETATM   15  C   UNL     1      42.213 -15.962   4.922  1.00  0.00     0.017 A 
HETATM   16  C   UNL     1      42.794 -16.173   6.169  1.00  0.00     0.018 A 
HETATM   17  C   UNL     1      42.646 -15.432   7.451  1.00  0.00     0.069 C 
HETATM   18  N   UNL     1      43.639 -17.247   6.063  1.00  0.00    -0.358 N 
HETATM   19  H   UNL     1      44.205 -17.625   6.812  1.00  0.00     0.166 HD
HETATM   20  C   UNL     1      43.611 -17.758   4.790  1.00  0.00     0.043 A 
HETATM   21  C   UNL     1      42.698 -16.997   4.055  1.00  0.00     0.004 A 
HETATM   22  C   UNL     1      44.318 -18.838   4.246  1.00  0.00     0.030 A 
HETATM   23  C   UNL     1      42.454 -17.376   2.718  1.00  0.00     0.014 A 
HETATM   24  C   UNL     1      43.153 -18.451   2.158  1.00  0.00     0.001 A 
HETATM   25  C   UNL     1      44.078 -19.166   2.911  1.00  0.00     0.002 A 
ENDBRANCH   1  15
TORSDOF 5
ENDMDL
MODEL 3
REMARK VINA RESULT:      -7.8      3.273      6.807
REMARK  5 active torsions:
REMARK  status: ('A' for Active; 'I' for Inactive)
REMARK    1  A    between atoms: C_7  and  C_8 
REMARK    2  A    between atoms: N_9  and  N_10 
REMARK       I    between atoms: N_10  and  C_11 
REMARK    3  A    between atoms: C_11  and  C_12 
REMARK    4  A    between atoms: C_12  and  O_13 
REMARK    5  A    between atoms: O_13  and  C_14 
ROOT
HETATM    1  C   UNL     1      43.381 -15.602   4.486  1.00  0.00     0.147 C 
HETATM    2  N   UNL     1      42.413 -15.089   3.785  1.00  0.00    -0.205 NA
ENDROOT
BRANCH   2   3
HETATM    3  N   UNL     1      41.332 -15.832   3.399  1.00  0.00    -0.149 NA
HETATM    4  C   UNL     1      40.565 -15.531   2.284  1.00  0.00     0.241 C 
HETATM    5  O   UNL     1      39.348 -15.728   2.338  1.00  0.00    -0.276 OA
HETATM    6  H   UNL     1      40.692 -16.002   4.173  1.00  0.00     0.158 HD
BRANCH   4   7
HETATM    7  C   UNL     1      41.282 -15.063   1.022  1.00  0.00     0.273 C 
BRANCH   7   8
HETATM    8  O   UNL     1      40.815 -13.786   0.602  1.00  0.00    -0.343 OA
BRANCH   8   9
HETATM    9  C   UNL     1      40.320 -13.695  -0.670  1.00  0.00     0.069 A 
HETATM   10  C   UNL     1      39.474 -14.743  -1.042  1.00  0.00     0.037 A 
HETATM   11  C   UNL     1      38.913 -14.787  -2.318  1.00  0.00     0.003 A 
HETATM   12  C   UNL     1      39.199 -13.782  -3.237  1.00  0.00     0.000 A 
HETATM   13  C   UNL     1      40.040 -12.731  -2.875  1.00  0.00     0.003 A 
HETATM   14  C   UNL     1      40.595 -12.683  -1.593  1.00  0.00     0.037 A 
ENDBRANCH   8   9
ENDBRANCH   7   8
ENDBRANCH   4   7
ENDBRANCH   2   3
BRANCH   1  15
HETATM   15  C   UNL     1      43.524 -16.958   4.984  1.00  0.00     0.017 A 
HETATM   16  C   UNL     1      43.544 -17.245   6.346  1.00  0.00     0.018 A 
HETATM   17  C   UNL     1      43.438 -16.352   7.532  1.00  0.00     0.069 C 
HETATM   18  N   UNL     1      43.724 -18.596   6.489  1.00  0.00    -0.358 N 
HETATM   19  H   UNL     1      43.786 -19.090   7.370  1.00  0.00     0.166 HD
HETATM   20  C   UNL     1      43.799 -19.204   5.261  1.00  0.00     0.043 A 
HETATM   21  C   UNL     1      43.642 -18.209   4.293  1.00  0.00     0.004 A 
HETATM   22  C   UNL     1      43.984 -20.555   4.944  1.00  0.00     0.030 A 
HETATM   23  C   UNL     1      43.624 -18.607   2.939  1.00  0.00     0.014 A 
HETATM   24  C   UNL     1      43.811 -19.953   2.604  1.00  0.00     0.001 A 
HETATM   25  C   UNL     1      43.996 -20.911   3.595  1.00  0.00     0.002 A 
ENDBRANCH   1  15
TORSDOF 5
ENDMDL
MODEL 4
REMARK VINA RESULT:      -7.6      3.320      6.551
REMARK  5 active torsions:
REMARK  status: ('A' for Active; 'I' for Inactive)
REMARK    1  A    between atoms: C_7  and  C_8 
REMARK    2  A    between atoms: N_9  and  N_10 
REMARK       I    between atoms: N_10  and  C_11 
REMARK    3  A    between atoms: C_11  and  C_12 
REMARK    4  A    between atoms: C_12  and  O_13 
REMARK    5  A    between atoms: O_13  and  C_14 
ROOT
HETATM    1  C   UNL     1      40.837 -14.530   4.610  1.00  0.00     0.147 C 
HETATM    2  N   UNL     1      41.236 -13.297   4.724  1.00  0.00    -0.205 NA
ENDROOT
BRANCH   2   3
HETATM    3  N   UNL     1      42.386 -12.856   4.130  1.00  0.00    -0.149 NA
HETATM    4  C   UNL     1      43.386 -12.188   4.818  1.00  0.00     0.241 C 
HETATM    5  O   UNL     1      43.993 -11.283   4.240  1.00  0.00    -0.276 OA
HETATM    6  H   UNL     1      42.197 -12.328   3.279  1.00  0.00     0.158 HD
BRANCH   4   7
HETATM    7  C   UNL     1      43.743 -12.672   6.220  1.00  0.00     0.273 C 
BRANCH   7   8
HETATM    8  O   UNL     1      45.064 -12.286   6.584  1.00  0.00    -0.343 OA
BRANCH   8   9
HETATM    9  C   UNL     1      45.186 -11.223   7.436  1.00  0.00     0.069 A 
HETATM   10  C   UNL     1      44.126 -11.072   8.333  1.00  0.00     0.037 A 
HETATM   11  C   UNL     1      44.111 -10.018   9.247  1.00  0.00     0.003 A 
HETATM   12  C   UNL     1      45.158  -9.101   9.267  1.00  0.00     0.000 A 
HETATM   13  C   UNL     1      46.221  -9.244   8.377  1.00  0.00     0.003 A 
HETATM   14  C   UNL     1      46.239 -10.306   7.466  1.00  0.00     0.037 A 
ENDBRANCH   8   9
ENDBRANCH   7   8
ENDBRANCH   4   7
ENDBRANCH   2   3
BRANCH   1  15
HETATM   15  C   UNL     1      41.457 -15.625   3.887  1.00  0.00     0.017 A 
HETATM   16  C   UNL     1      41.028 -16.009   2.620  1.00  0.00     0.018 A 
HETATM   17  C   UNL     1      39.944 -15.471   1.754  1.00  0.00     0.069 C 
HETATM   18  N   UNL     1      41.785 -17.081   2.226  1.00  0.00    -0.358 N 
HETATM   19  H   UNL     1      41.690 -17.576   1.349  1.00  0.00     0.166 HD
HETATM   20  C   UNL     1      42.711 -17.396   3.189  1.00  0.00     0.043 A 
HETATM   21  C   UNL     1      42.557 -16.478   4.231  1.00  0.00     0.004 A 
HETATM   22  C   UNL     1      43.672 -18.414   3.203  1.00  0.00     0.030 A 
HETATM   23  C   UNL     1      43.450 -16.567   5.321  1.00  0.00     0.014 A 
HETATM   24  C   UNL     1      44.415 -17.581   5.353  1.00  0.00     0.001 A 
HETATM   25  C   UNL     1      44.518 -18.495   4.311  1.00  0.00     0.002 A 
ENDBRANCH   1  15
TORSDOF 5
ENDMDL
MODEL 5
REMARK VINA RESULT:      -7.4      4.104      5.548
REMARK  5 active torsions:
REMARK  status: ('A' for Active; 'I' for Inactive)
REMARK    1  A    between atoms: C_7  and  C_8 
REMARK    2  A    between atoms: N_9  and  N_10 
REMARK       I    between atoms: N_10  and  C_11 
REMARK    3  A    between atoms: C_11  and  C_12 
REMARK    4  A    between atoms: C_12  and  O_13 
REMARK    5  A    between atoms: O_13  and  C_14 
ROOT
HETATM    1  C   UNL     1      39.769 -14.751   0.083  1.00  0.00     0.147 C 
HETATM    2  N   UNL     1      40.700 -15.201   0.873  1.00  0.00    -0.205 NA
ENDROOT
BRANCH   2   3
HETATM    3  N   UNL     1      41.991 -14.761   0.788  1.00  0.00    -0.149 NA
HETATM    4  C   UNL     1      43.009 -15.237   1.599  1.00  0.00     0.241 C 
HETATM    5  O   UNL     1      43.880 -14.448   1.973  1.00  0.00    -0.276 OA
HETATM    6  H   UNL     1      42.047 -13.744   0.794  1.00  0.00     0.158 HD
BRANCH   4   7
HETATM    7  C   UNL     1      43.046 -16.731   1.906  1.00  0.00     0.273 C 
BRANCH   7   8
HETATM    8  O   UNL     1      43.596 -16.984   3.194  1.00  0.00    -0.343 OA
BRANCH   8   9
HETATM    9  C   UNL     1      43.758 -18.294   3.553  1.00  0.00     0.069 A 
HETATM   10  C   UNL     1      43.520 -19.211   2.526  1.00  0.00     0.037 A 
HETATM   11  C   UNL     1      43.630 -20.583   2.757  1.00  0.00     0.003 A 
HETATM   12  C   UNL     1      43.976 -21.048   4.023  1.00  0.00     0.000 A 
HETATM   13  C   UNL     1      44.218 -20.141   5.052  1.00  0.00     0.003 A 
HETATM   14  C   UNL     1      44.115 -18.766   4.818  1.00  0.00     0.037 A 
ENDBRANCH   8   9
ENDBRANCH   7   8
ENDBRANCH   4   7
ENDBRANCH   2   3
BRANCH   1  15
HETATM   15  C   UNL     1      39.873 -13.762  -0.974  1.00  0.00     0.017 A 
HETATM   16  C   UNL     1      39.405 -14.007  -2.262  1.00  0.00     0.018 A 
HETATM   17  C   UNL     1      38.748 -15.206  -2.848  1.00  0.00     0.069 C 
HETATM   18  N   UNL     1      39.677 -12.902  -3.026  1.00  0.00    -0.358 N 
HETATM   19  H   UNL     1      39.457 -12.799  -4.008  1.00  0.00     0.166 HD
HETATM   20  C   UNL     1      40.289 -11.933  -2.270  1.00  0.00     0.043 A 
HETATM   21  C   UNL     1      40.394 -12.426  -0.967  1.00  0.00     0.004 A 
HETATM   22  C   UNL     1      40.741 -10.662  -2.645  1.00  0.00     0.030 A 
HETATM   23  C   UNL     1      40.943 -11.573   0.015  1.00  0.00     0.014 A 
HETATM   24  C   UNL     1      41.403 -10.301  -0.343  1.00  0.00     0.001 A 
HETATM   25  C   UNL     1      41.309  -9.857  -1.657  1.00  0.00     0.002 A 
ENDBRANCH   1  15
TORSDOF 5
ENDMDL
MODEL 6
REMARK VINA RESULT:      -7.4      2.432      4.332
REMARK  5 active torsions:
REMARK  status: ('A' for Active; 'I' for Inactive)
REMARK    1  A    between atoms: C_7  and  C_8 
REMARK    2  A    between atoms: N_9  and  N_10 
REMARK       I    between atoms: N_10  and  C_11 
REMARK    3  A    between atoms: C_11  and  C_12 
REMARK    4  A    between atoms: C_12  and  O_13 
REMARK    5  A    between atoms: O_13  and  C_14 
ROOT
HETATM    1  C   UNL     1      42.915 -12.420   4.260  1.00  0.00     0.147 C 
HETATM    2  N   UNL     1      42.458 -13.617   4.037  1.00  0.00    -0.205 NA
ENDROOT
BRANCH   2   3
HETATM    3  N   UNL     1      41.885 -14.365   5.028  1.00  0.00    -0.149 NA
HETATM    4  C   UNL     1      42.128 -15.720   5.192  1.00  0.00     0.241 C 
HETATM    5  O   UNL     1      41.200 -16.442   5.564  1.00  0.00    -0.276 OA
HETATM    6  H   UNL     1      40.876 -14.229   5.072  1.00  0.00     0.158 HD
BRANCH   4   7
HETATM    7  C   UNL     1      43.554 -16.224   4.995  1.00  0.00     0.273 C 
BRANCH   7   8
HETATM    8  O   UNL     1      43.707 -16.874   3.738  1.00  0.00    -0.343 OA
BRANCH   8   9
HETATM    9  C   UNL     1      43.790 -18.239   3.752  1.00  0.00     0.069 A 
HETATM   10  C   UNL     1      43.467 -18.853   2.540  1.00  0.00     0.037 A 
HETATM   11  C   UNL     1      43.491 -20.243   2.417  1.00  0.00     0.003 A 
HETATM   12  C   UNL     1      43.835 -21.031   3.511  1.00  0.00     0.000 A 
HETATM   13  C   UNL     1      44.162 -20.427   4.724  1.00  0.00     0.003 A 
HETATM   14  C   UNL     1      44.145 -19.034   4.844  1.00  0.00     0.037 A 
ENDBRANCH   8   9
ENDBRANCH   7   8
ENDBRANCH   4   7
ENDBRANCH   2   3
BRANCH   1  15
HETATM   15  C   UNL     1      42.917 -11.662   5.498  1.00  0.00     0.017 A 
HETATM   16  C   UNL     1      41.741 -11.191   6.076  1.00  0.00     0.018 A 
HETATM   17  C   UNL     1      40.324 -11.315   5.641  1.00  0.00     0.069 C 
HETATM   18  N   UNL     1      42.078 -10.494   7.207  1.00  0.00    -0.358 N 
HETATM   19  H   UNL     1      41.427 -10.031   7.827  1.00  0.00     0.166 HD
HETATM   20  C   UNL     1      43.438 -10.514   7.397  1.00  0.00     0.043 A 
HETATM   21  C   UNL     1      43.993 -11.270   6.362  1.00  0.00     0.004 A 
HETATM   22  C   UNL     1      44.205  -9.929   8.412  1.00  0.00     0.030 A 
HETATM   23  C   UNL     1      45.388 -11.483   6.380  1.00  0.00     0.014 A 
HETATM   24  C   UNL     1      46.170 -10.903   7.385  1.00  0.00     0.001 A 
HETATM   25  C   UNL     1      45.585 -10.130   8.382  1.00  0.00     0.002 A 
ENDBRANCH   1  15
TORSDOF 5
ENDMDL
MODEL 7
REMARK VINA RESULT:      -7.4      2.112      2.860
REMARK  5 active torsions:
REMARK  status: ('A' for Active; 'I' for Inactive)
REMARK    1  A    between atoms: C_7  and  C_8 
REMARK    2  A    between atoms: N_9  and  N_10 
REMARK       I    between atoms: N_10  and  C_11 
REMARK    3  A    between atoms: C_11  and  C_12 
REMARK    4  A    between atoms: C_12  and  O_13 
REMARK    5  A    between atoms: O_13  and  C_14 
ROOT
HETATM    1  C   UNL     1      39.549 -12.867   5.129  1.00  0.00     0.147 C 
HETATM    2  N   UNL     1      40.490 -12.792   6.024  1.00  0.00    -0.205 NA
ENDROOT
BRANCH   2   3
HETATM    3  N   UNL     1      41.786 -12.515   5.684  1.00  0.00    -0.149 NA
HETATM    4  C   UNL     1      42.812 -13.440   5.793  1.00  0.00     0.241 C 
HETATM    5  O   UNL     1      43.928 -13.042   6.133  1.00  0.00    -0.276 OA
HETATM    6  H   UNL     1      42.112 -11.647   6.105  1.00  0.00     0.158 HD
BRANCH   4   7
HETATM    7  C   UNL     1      42.524 -14.884   5.395  1.00  0.00     0.273 C 
BRANCH   7   8
HETATM    8  O   UNL     1      43.009 -15.170   4.088  1.00  0.00    -0.343 OA
BRANCH   8   9
HETATM    9  C   UNL     1      43.285 -16.479   3.800  1.00  0.00     0.069 A 
HETATM   10  C   UNL     1      43.903 -17.183   4.837  1.00  0.00     0.037 A 
HETATM   11  C   UNL     1      44.258 -18.523   4.674  1.00  0.00     0.003 A 
HETATM   12  C   UNL     1      44.001 -19.168   3.467  1.00  0.00     0.000 A 
HETATM   13  C   UNL     1      43.383 -18.474   2.429  1.00  0.00     0.003 A 
HETATM   14  C   UNL     1      43.020 -17.134   2.596  1.00  0.00     0.037 A 
ENDBRANCH   8   9
ENDBRANCH   7   8
ENDBRANCH   4   7
ENDBRANCH   2   3
BRANCH   1  15
HETATM   15  C   UNL     1      39.642 -12.686   3.693  1.00  0.00     0.017 A 
HETATM   16  C   UNL     1      39.632 -11.423   3.106  1.00  0.00     0.018 A 
HETATM   17  C   UNL     1      39.533 -10.068   3.713  1.00  0.00     0.069 C 
HETATM   18  N   UNL     1      39.700 -11.589   1.748  1.00  0.00    -0.358 N 
HETATM   19  H   UNL     1      39.701 -10.843   1.065  1.00  0.00     0.166 HD
HETATM   20  C   UNL     1      39.778 -12.922   1.430  1.00  0.00     0.043 A 
HETATM   21  C   UNL     1      39.780 -13.638   2.629  1.00  0.00     0.004 A 
HETATM   22  C   UNL     1      39.856 -13.536   0.173  1.00  0.00     0.030 A 
HETATM   23  C   UNL     1      39.915 -15.041   2.556  1.00  0.00     0.014 A 
HETATM   24  C   UNL     1      39.990 -15.671   1.308  1.00  0.00     0.001 A 
HETATM   25  C   UNL     1      39.954 -14.927   0.134  1.00  0.00     0.002 A 
ENDBRANCH   1  15
TORSDOF 5
ENDMDL
MODEL 8
REMARK VINA RESULT:      -7.3      3.426      5.955
REMARK  5 active torsions:
REMARK  status: ('A' for Active; 'I' for Inactive)
REMARK    1  A    between atoms: C_7  and  C_8 
REMARK    2  A    between atoms: N_9  and  N_10 
REMARK       I    between atoms: N_10  and  C_11 
REMARK    3  A    between atoms: C_11  and  C_12 
REMARK    4  A    between atoms: C_12  and  O_13 
REMARK    5  A    between atoms: O_13  and  C_14 
ROOT
HETATM    1  C   UNL     1      42.842 -10.644   6.068  1.00  0.00     0.147 C 
HETATM    2  N   UNL     1      42.030 -11.624   5.798  1.00  0.00    -0.205 NA
ENDROOT
BRANCH   2   3
HETATM    3  N   UNL     1      41.971 -12.745   6.579  1.00  0.00    -0.149 NA
HETATM    4  C   UNL     1      41.652 -13.998   6.081  1.00  0.00     0.241 C 
HETATM    5  O   UNL     1      40.982 -14.757   6.787  1.00  0.00    -0.276 OA
HETATM    6  H   UNL     1      41.409 -12.596   7.415  1.00  0.00     0.158 HD
BRANCH   4   7
HETATM    7  C   UNL     1      42.227 -14.404   4.728  1.00  0.00     0.273 C 
BRANCH   7   8
HETATM    8  O   UNL     1      41.542 -15.528   4.187  1.00  0.00    -0.343 OA
BRANCH   8   9
HETATM    9  C   UNL     1      42.309 -16.586   3.783  1.00  0.00     0.069 A 
HETATM   10  C   UNL     1      43.239 -17.025   4.729  1.00  0.00     0.037 A 
HETATM   11  C   UNL     1      44.100 -18.085   4.442  1.00  0.00     0.003 A 
HETATM   12  C   UNL     1      44.040 -18.712   3.201  1.00  0.00     0.000 A 
HETATM   13  C   UNL     1      43.114 -18.282   2.252  1.00  0.00     0.003 A 
HETATM   14  C   UNL     1      42.246 -17.225   2.543  1.00  0.00     0.037 A 
ENDBRANCH   8   9
ENDBRANCH   7   8
ENDBRANCH   4   7
ENDBRANCH   2   3
BRANCH   1  15
HETATM   15  C   UNL     1      43.785 -10.518   7.164  1.00  0.00     0.017 A 
HETATM   16  C   UNL     1      45.116 -10.906   7.041  1.00  0.00     0.018 A 
HETATM   17  C   UNL     1      45.858 -11.489   5.890  1.00  0.00     0.069 C 
HETATM   18  N   UNL     1      45.730 -10.694   8.247  1.00  0.00    -0.358 N 
HETATM   19  H   UNL     1      46.700 -10.894   8.455  1.00  0.00     0.166 HD
HETATM   20  C   UNL     1      44.845 -10.158   9.149  1.00  0.00     0.043 A 
HETATM   21  C   UNL     1      43.623 -10.000   8.492  1.00  0.00     0.004 A 
HETATM   22  C   UNL     1      45.046  -9.796  10.487  1.00  0.00     0.030 A 
HETATM   23  C   UNL     1      42.564  -9.404   9.209  1.00  0.00     0.014 A 
HETATM   24  C   UNL     1      42.746  -9.039  10.548  1.00  0.00     0.001 A 
HETATM   25  C   UNL     1      43.968  -9.240  11.178  1.00  0.00     0.002 A 
ENDBRANCH   1  15
TORSDOF 5
ENDMDL
MODEL 9
REMARK VINA RESULT:      -7.2      2.629      6.444
REMARK  5 active torsions:
REMARK  status: ('A' for Active; 'I' for Inactive)
REMARK    1  A    between atoms: C_7  and  C_8 
REMARK    2  A    between atoms: N_9  and  N_10 
REMARK       I    between atoms: N_10  and  C_11 
REMARK    3  A    between atoms: C_11  and  C_12 
REMARK    4  A    between atoms: C_12  and  O_13 
REMARK    5  A    between atoms: O_13  and  C_14 
ROOT
HETATM    1  C   UNL     1      43.298 -16.052   1.750  1.00  0.00     0.147 C 
HETATM    2  N   UNL     1      42.225 -15.548   1.214  1.00  0.00    -0.205 NA
ENDROOT
BRANCH   2   3
HETATM    3  N   UNL     1      40.983 -15.778   1.737  1.00  0.00    -0.149 NA
HETATM    4  C   UNL     1      40.170 -14.769   2.229  1.00  0.00     0.241 C 
HETATM    5  O   UNL     1      39.470 -15.008   3.217  1.00  0.00    -0.276 OA
HETATM    6  H   UNL     1      40.994 -16.525   2.430  1.00  0.00     0.158 HD
BRANCH   4   7
HETATM    7  C   UNL     1      40.116 -13.451   1.464  1.00  0.00     0.273 C 
BRANCH   7   8
HETATM    8  O   UNL     1      40.012 -12.340   2.347  1.00  0.00    -0.343 OA
BRANCH   8   9
HETATM    9  C   UNL     1      41.130 -12.011   3.064  1.00  0.00     0.069 A 
HETATM   10  C   UNL     1      40.900 -11.770   4.421  1.00  0.00     0.037 A 
HETATM   11  C   UNL     1      41.948 -11.406   5.267  1.00  0.00     0.003 A 
HETATM   12  C   UNL     1      43.237 -11.276   4.759  1.00  0.00     0.000 A 
HETATM   13  C   UNL     1      43.476 -11.516   3.407  1.00  0.00     0.003 A 
HETATM   14  C   UNL     1      42.427 -11.889   2.561  1.00  0.00     0.037 A 
ENDBRANCH   8   9
ENDBRANCH   7   8
ENDBRANCH   4   7
ENDBRANCH   2   3
BRANCH   1  15
HETATM   15  C   UNL     1      43.419 -16.893   2.926  1.00  0.00     0.017 A 
HETATM   16  C   UNL     1      43.374 -16.370   4.216  1.00  0.00     0.018 A 
HETATM   17  C   UNL     1      43.211 -14.970   4.693  1.00  0.00     0.069 C 
HETATM   18  N   UNL     1      43.547 -17.404   5.097  1.00  0.00    -0.358 N 
HETATM   19  H   UNL     1      43.569 -17.320   6.105  1.00  0.00     0.166 HD
HETATM   20  C   UNL     1      43.682 -18.593   4.423  1.00  0.00     0.043 A 
HETATM   21  C   UNL     1      43.570 -18.313   3.059  1.00  0.00     0.004 A 
HETATM   22  C   UNL     1      43.883 -19.885   4.925  1.00  0.00     0.030 A 
HETATM   23  C   UNL     1      43.617 -19.401   2.160  1.00  0.00     0.014 A 
HETATM   24  C   UNL     1      43.821 -20.698   2.644  1.00  0.00     0.001 A 
HETATM   25  C   UNL     1      43.959 -20.934   4.007  1.00  0.00     0.002 A 
ENDBRANCH   1  15
TORSDOF 5
ENDMDL
MODEL 10
REMARK VINA RESULT:      -7.1      3.219      4.118
REMARK  5 active torsions:
REMARK  status: ('A' for Active; 'I' for Inactive)
REMARK    1  A    between atoms: C_7  and  C_8 
REMARK    2  A    between atoms: N_9  and  N_10 
REMARK       I    between atoms: N_10  and  C_11 
REMARK    3  A    between atoms: C_11  and  C_12 
REMARK    4  A    between atoms: C_12  and  O_13 
REMARK    5  A    between atoms: O_13  and  C_14 
ROOT
HETATM    1  C   UNL     1      41.637 -13.014   1.148  1.00  0.00     0.147 C 
HETATM    2  N   UNL     1      41.930 -13.733   2.192  1.00  0.00    -0.205 NA
ENDROOT
BRANCH   2   3
HETATM    3  N   UNL     1      40.968 -14.403   2.897  1.00  0.00    -0.149 NA
HETATM    4  C   UNL     1      41.176 -15.649   3.466  1.00  0.00     0.241 C 
HETATM    5  O   UNL     1      40.242 -16.455   3.471  1.00  0.00    -0.276 OA
HETATM    6  H   UNL     1      40.084 -14.441   2.392  1.00  0.00     0.158 HD
BRANCH   4   7
HETATM    7  C   UNL     1      42.518 -15.919   4.139  1.00  0.00     0.273 C 
BRANCH   7   8
HETATM    8  O   UNL     1      43.439 -16.522   3.237  1.00  0.00    -0.343 OA
BRANCH   8   9
HETATM    9  C   UNL     1      43.503 -17.889   3.238  1.00  0.00     0.069 A 
HETATM   10  C   UNL     1      44.026 -18.445   4.408  1.00  0.00     0.037 A 
HETATM   11  C   UNL     1      44.166 -19.828   4.538  1.00  0.00     0.003 A 
HETATM   12  C   UNL     1      43.787 -20.665   3.493  1.00  0.00     0.000 A 
HETATM   13  C   UNL     1      43.262 -20.119   2.323  1.00  0.00     0.003 A 
HETATM   14  C   UNL     1      43.115 -18.735   2.197  1.00  0.00     0.037 A 
ENDBRANCH   8   9
ENDBRANCH   7   8
ENDBRANCH   4   7
ENDBRANCH   2   3
BRANCH   1  15
HETATM   15  C   UNL     1      40.341 -12.779   0.539  1.00  0.00     0.017 A 
HETATM   16  C   UNL     1      39.372 -11.986   1.147  1.00  0.00     0.018 A 
HETATM   17  C   UNL     1      39.390 -11.246   2.438  1.00  0.00     0.069 C 
HETATM   18  N   UNL     1      38.262 -11.988   0.345  1.00  0.00    -0.358 N 
HETATM   19  H   UNL     1      37.396 -11.502   0.540  1.00  0.00     0.166 HD
HETATM   20  C   UNL     1      38.483 -12.741  -0.781  1.00  0.00     0.043 A 
HETATM   21  C   UNL     1      39.792 -13.223  -0.710  1.00  0.00     0.004 A 
HETATM   22  C   UNL     1      37.624 -13.016  -1.853  1.00  0.00     0.030 A 
HETATM   23  C   UNL     1      40.272 -13.982  -1.798  1.00  0.00     0.014 A 
HETATM   24  C   UNL     1      39.427 -14.270  -2.876  1.00  0.00     0.001 A 
HETATM   25  C   UNL     1      38.119 -13.798  -2.897  1.00  0.00     0.002 A 
ENDBRANCH   1  15
TORSDOF 5
ENDMDL
