MODEL 1
REMARK VINA RESULT:      -7.8      0.000      0.000
REMARK  2 active torsions:
REMARK  status: ('A' for Active; 'I' for Inactive)
REMARK    1  A    between atoms: C_2  and  C_3 
REMARK    2  A    between atoms: C_4  and  N_5 
ROOT
HETATM    1  N   UNL     1      42.068 -15.407   3.385  1.00  0.00    -0.321 N 
HETATM    2  C   UNL     1      40.669 -15.201   3.514  1.00  0.00     0.141 C 
HETATM    3  N   UNL     1      39.869 -16.095   4.019  1.00  0.00    -0.380 N 
HETATM    4  H   UNL     1      38.883 -15.895   4.099  1.00  0.00     0.158 HD
HETATM    5  H   UNL     1      40.256 -16.968   4.348  1.00  0.00     0.158 HD
HETATM    6  S   UNL     1      40.157 -13.658   2.967  1.00  0.00    -0.086 SA
HETATM    7  C   UNL     1      41.816 -13.309   2.234  1.00  0.00     0.093 C 
HETATM    8  C   UNL     1      42.810 -14.171   3.051  1.00  0.00     0.121 C 
HETATM    9  C   UNL     1      42.248 -11.860   2.302  1.00  0.00     0.158 C 
HETATM   10  S   UNL     1      43.128 -11.675   3.834  1.00  0.00     0.147 S 
HETATM   11  O   UNL     1      42.291 -10.961   4.772  1.00  0.00    -0.228 OA
HETATM   12  O   UNL     1      44.482 -11.266   3.529  1.00  0.00    -0.228 OA
HETATM   13  C   UNL     1      43.169 -13.383   4.310  1.00  0.00     0.167 C 
ENDROOT
BRANCH   1  14
HETATM   14  C   UNL     1      42.788 -16.612   3.462  1.00  0.00     0.043 A 
HETATM   15  C   UNL     1      43.519 -16.992   4.617  1.00  0.00    -0.028 A 
HETATM   16  C   UNL     1      44.253 -18.200   4.588  1.00  0.00     0.010 A 
HETATM   17  C   UNL     1      44.259 -19.025   3.467  1.00  0.00     0.001 A 
HETATM   18  C   UNL     1      43.531 -18.663   2.347  1.00  0.00     0.002 A 
HETATM   19  C   UNL     1      42.807 -17.471   2.347  1.00  0.00     0.030 A 
BRANCH  15  20
HETATM   20  C   UNL     1      43.488 -16.207   5.927  1.00  0.00     0.013 C 
HETATM   21  C   UNL     1      44.799 -16.345   6.710  1.00  0.00     0.015 C 
HETATM   22  C   UNL     1      42.298 -16.617   6.803  1.00  0.00     0.015 C 
ENDBRANCH  15  20
ENDBRANCH   1  14
TORSDOF 2
ENDMDL
MODEL 2
REMARK VINA RESULT:      -7.6      2.097      3.393
REMARK  2 active torsions:
REMARK  status: ('A' for Active; 'I' for Inactive)
REMARK    1  A    between atoms: C_2  and  C_3 
REMARK    2  A    between atoms: C_4  and  N_5 
ROOT
HETATM    1  N   UNL     1      42.156 -14.730   5.053  1.00  0.00    -0.321 N 
HETATM    2  C   UNL     1      40.937 -14.476   5.737  1.00  0.00     0.141 C 
HETATM    3  N   UNL     1      40.062 -15.407   5.985  1.00  0.00    -0.380 N 
HETATM    4  H   UNL     1      39.216 -15.176   6.486  1.00  0.00     0.158 HD
HETATM    5  H   UNL     1      40.259 -16.354   5.693  1.00  0.00     0.158 HD
HETATM    6  S   UNL     1      40.759 -12.840   6.220  1.00  0.00    -0.086 SA
HETATM    7  C   UNL     1      42.233 -12.331   5.230  1.00  0.00     0.093 C 
HETATM    8  C   UNL     1      43.111 -13.602   5.127  1.00  0.00     0.121 C 
HETATM    9  C   UNL     1      43.051 -11.213   5.838  1.00  0.00     0.158 C 
HETATM   10  S   UNL     1      44.279 -11.993   6.858  1.00  0.00     0.147 S 
HETATM   11  O   UNL     1      43.913 -11.822   8.246  1.00  0.00    -0.228 OA
HETATM   12  O   UNL     1      45.583 -11.635   6.345  1.00  0.00    -0.228 OA
HETATM   13  C   UNL     1      43.956 -13.675   6.399  1.00  0.00     0.167 C 
ENDROOT
BRANCH   1  14
HETATM   14  C   UNL     1      42.513 -15.851   4.284  1.00  0.00     0.043 A 
HETATM   15  C   UNL     1      41.960 -16.106   3.003  1.00  0.00    -0.028 A 
HETATM   16  C   UNL     1      42.341 -17.284   2.321  1.00  0.00     0.010 A 
HETATM   17  C   UNL     1      43.254 -18.182   2.867  1.00  0.00     0.001 A 
HETATM   18  C   UNL     1      43.808 -17.923   4.109  1.00  0.00     0.002 A 
HETATM   19  C   UNL     1      43.440 -16.773   4.807  1.00  0.00     0.030 A 
BRANCH  15  20
HETATM   20  C   UNL     1      41.033 -15.129   2.279  1.00  0.00     0.013 C 
HETATM   21  C   UNL     1      39.989 -15.857   1.425  1.00  0.00     0.015 C 
HETATM   22  C   UNL     1      41.823 -14.132   1.423  1.00  0.00     0.015 C 
ENDBRANCH  15  20
ENDBRANCH   1  14
TORSDOF 2
ENDMDL
MODEL 3
REMARK VINA RESULT:      -7.1      2.412      3.098
REMARK  2 active torsions:
REMARK  status: ('A' for Active; 'I' for Inactive)
REMARK    1  A    between atoms: C_2  and  C_3 
REMARK    2  A    between atoms: C_4  and  N_5 
ROOT
HETATM    1  N   UNL     1      42.362 -13.314   4.749  1.00  0.00    -0.321 N 
HETATM    2  C   UNL     1      41.101 -12.961   5.299  1.00  0.00     0.141 C 
HETATM    3  N   UNL     1      40.057 -13.734   5.219  1.00  0.00    -0.380 N 
HETATM    4  H   UNL     1      39.186 -13.442   5.637  1.00  0.00     0.158 HD
HETATM    5  H   UNL     1      40.144 -14.628   4.758  1.00  0.00     0.158 HD
HETATM    6  S   UNL     1      41.110 -11.443   6.097  1.00  0.00    -0.086 SA
HETATM    7  C   UNL     1      42.795 -11.053   5.450  1.00  0.00     0.093 C 
HETATM    8  C   UNL     1      43.460 -12.428   5.195  1.00  0.00     0.121 C 
HETATM    9  C   UNL     1      43.667 -10.251   6.392  1.00  0.00     0.158 C 
HETATM   10  S   UNL     1      44.556 -11.432   7.375  1.00  0.00     0.147 S 
HETATM   11  O   UNL     1      43.989 -11.458   8.705  1.00  0.00    -0.228 OA
HETATM   12  O   UNL     1      45.971 -11.245   7.134  1.00  0.00    -0.228 OA
HETATM   13  C   UNL     1      44.049 -12.902   6.523  1.00  0.00     0.167 C 
ENDROOT
BRANCH   1  14
HETATM   14  C   UNL     1      42.660 -14.317   3.811  1.00  0.00     0.043 A 
HETATM   15  C   UNL     1      43.023 -15.634   4.191  1.00  0.00    -0.028 A 
HETATM   16  C   UNL     1      43.353 -16.566   3.180  1.00  0.00     0.010 A 
HETATM   17  C   UNL     1      43.309 -16.227   1.831  1.00  0.00     0.001 A 
HETATM   18  C   UNL     1      42.936 -14.947   1.459  1.00  0.00     0.002 A 
HETATM   19  C   UNL     1      42.617 -14.006   2.438  1.00  0.00     0.030 A 
BRANCH  15  20
HETATM   20  C   UNL     1      42.998 -16.128   5.637  1.00  0.00     0.013 C 
HETATM   21  C   UNL     1      44.184 -17.049   5.949  1.00  0.00     0.015 C 
HETATM   22  C   UNL     1      41.676 -16.830   5.970  1.00  0.00     0.015 C 
ENDBRANCH  15  20
ENDBRANCH   1  14
TORSDOF 2
ENDMDL
MODEL 4
REMARK VINA RESULT:      -7.0      1.793      2.257
REMARK  2 active torsions:
REMARK  status: ('A' for Active; 'I' for Inactive)
REMARK    1  A    between atoms: C_2  and  C_3 
REMARK    2  A    between atoms: C_4  and  N_5 
ROOT
HETATM    1  N   UNL     1      41.477 -13.671   3.468  1.00  0.00    -0.321 N 
HETATM    2  C   UNL     1      40.144 -13.263   3.196  1.00  0.00     0.141 C 
HETATM    3  N   UNL     1      39.198 -14.104   2.892  1.00  0.00    -0.380 N 
HETATM    4  H   UNL     1      38.264 -13.763   2.719  1.00  0.00     0.158 HD
HETATM    5  H   UNL     1      39.412 -15.090   2.860  1.00  0.00     0.158 HD
HETATM    6  S   UNL     1      39.911 -11.570   3.338  1.00  0.00    -0.086 SA
HETATM    7  C   UNL     1      41.729 -11.278   3.485  1.00  0.00     0.093 C 
HETATM    8  C   UNL     1      42.307 -12.597   4.057  1.00  0.00     0.121 C 
HETATM    9  C   UNL     1      42.117 -10.134   4.396  1.00  0.00     0.158 C 
HETATM   10  S   UNL     1      42.320 -10.834   6.016  1.00  0.00     0.147 S 
HETATM   11  O   UNL     1      41.189 -10.458   6.834  1.00  0.00    -0.228 OA
HETATM   12  O   UNL     1      43.689 -10.619   6.431  1.00  0.00    -0.228 OA
HETATM   13  C   UNL     1      42.146 -12.543   5.576  1.00  0.00     0.167 C 
ENDROOT
BRANCH   1  14
HETATM   14  C   UNL     1      42.092 -14.903   3.185  1.00  0.00     0.043 A 
HETATM   15  C   UNL     1      42.213 -15.936   4.149  1.00  0.00    -0.028 A 
HETATM   16  C   UNL     1      42.890 -17.124   3.791  1.00  0.00     0.010 A 
HETATM   17  C   UNL     1      43.418 -17.308   2.515  1.00  0.00     0.001 A 
HETATM   18  C   UNL     1      43.283 -16.308   1.568  1.00  0.00     0.002 A 
HETATM   19  C   UNL     1      42.629 -15.121   1.902  1.00  0.00     0.030 A 
BRANCH  15  20
HETATM   20  C   UNL     1      41.576 -15.868   5.537  1.00  0.00     0.013 C 
HETATM   21  C   UNL     1      42.419 -16.597   6.590  1.00  0.00     0.015 C 
HETATM   22  C   UNL     1      40.144 -16.416   5.527  1.00  0.00     0.015 C 
ENDBRANCH  15  20
ENDBRANCH   1  14
TORSDOF 2
ENDMDL
MODEL 5
REMARK VINA RESULT:      -6.8      1.585      3.026
REMARK  2 active torsions:
REMARK  status: ('A' for Active; 'I' for Inactive)
REMARK    1  A    between atoms: C_2  and  C_3 
REMARK    2  A    between atoms: C_4  and  N_5 
ROOT
HETATM    1  N   UNL     1      41.068 -14.320   3.517  1.00  0.00    -0.321 N 
HETATM    2  C   UNL     1      40.003 -14.510   2.596  1.00  0.00     0.141 C 
HETATM    3  N   UNL     1      39.198 -15.531   2.651  1.00  0.00    -0.380 N 
HETATM    4  H   UNL     1      38.449 -15.613   1.979  1.00  0.00     0.158 HD
HETATM    5  H   UNL     1      39.322 -16.213   3.385  1.00  0.00     0.158 HD
HETATM    6  S   UNL     1      39.876 -13.251   1.438  1.00  0.00    -0.086 SA
HETATM    7  C   UNL     1      41.491 -12.529   1.967  1.00  0.00     0.093 C 
HETATM    8  C   UNL     1      41.671 -12.971   3.440  1.00  0.00     0.121 C 
HETATM    9  C   UNL     1      41.567 -11.019   1.892  1.00  0.00     0.158 C 
HETATM   10  S   UNL     1      41.028 -10.415   3.473  1.00  0.00     0.147 S 
HETATM   11  O   UNL     1      39.697  -9.867   3.337  1.00  0.00    -0.228 OA
HETATM   12  O   UNL     1      42.119  -9.674   4.068  1.00  0.00    -0.228 OA
HETATM   13  C   UNL     1      40.907 -11.973   4.311  1.00  0.00     0.167 C 
ENDROOT
BRANCH   1  14
HETATM   14  C   UNL     1      41.638 -15.252   4.401  1.00  0.00     0.043 A 
HETATM   15  C   UNL     1      42.297 -16.425   3.954  1.00  0.00    -0.028 A 
HETATM   16  C   UNL     1      42.799 -17.331   4.916  1.00  0.00     0.010 A 
HETATM   17  C   UNL     1      42.679 -17.088   6.281  1.00  0.00     0.001 A 
HETATM   18  C   UNL     1      42.053 -15.933   6.718  1.00  0.00     0.002 A 
HETATM   19  C   UNL     1      41.539 -15.029   5.788  1.00  0.00     0.030 A 
BRANCH  15  20
HETATM   20  C   UNL     1      42.569 -16.725   2.480  1.00  0.00     0.013 C 
HETATM   21  C   UNL     1      43.069 -18.160   2.270  1.00  0.00     0.015 C 
HETATM   22  C   UNL     1      43.557 -15.722   1.873  1.00  0.00     0.015 C 
ENDBRANCH  15  20
ENDBRANCH   1  14
TORSDOF 2
ENDMDL
MODEL 6
REMARK VINA RESULT:      -6.5      2.833      3.655
REMARK  2 active torsions:
REMARK  status: ('A' for Active; 'I' for Inactive)
REMARK    1  A    between atoms: C_2  and  C_3 
REMARK    2  A    between atoms: C_4  and  N_5 
ROOT
HETATM    1  N   UNL     1      41.976 -13.511   2.519  1.00  0.00    -0.321 N 
HETATM    2  C   UNL     1      42.639 -12.315   2.905  1.00  0.00     0.141 C 
HETATM    3  N   UNL     1      43.873 -12.296   3.317  1.00  0.00    -0.380 N 
HETATM    4  H   UNL     1      44.301 -11.416   3.568  1.00  0.00     0.158 HD
HETATM    5  H   UNL     1      44.391 -13.162   3.354  1.00  0.00     0.158 HD
HETATM    6  S   UNL     1      41.660 -10.916   2.742  1.00  0.00    -0.086 SA
HETATM    7  C   UNL     1      40.157 -11.939   2.418  1.00  0.00     0.093 C 
HETATM    8  C   UNL     1      40.691 -13.269   1.828  1.00  0.00     0.121 C 
HETATM    9  C   UNL     1      39.171 -11.329   1.446  1.00  0.00     0.158 C 
HETATM   10  S   UNL     1      39.642 -11.903  -0.168  1.00  0.00     0.147 S 
HETATM   11  O   UNL     1      40.274 -10.819  -0.886  1.00  0.00    -0.228 OA
HETATM   12  O   UNL     1      38.539 -12.663  -0.715  1.00  0.00    -0.228 OA
HETATM   13  C   UNL     1      40.900 -13.050   0.330  1.00  0.00     0.167 C 
ENDROOT
BRANCH   1  14
HETATM   14  C   UNL     1      42.350 -14.842   2.774  1.00  0.00     0.043 A 
HETATM   15  C   UNL     1      42.152 -15.463   4.034  1.00  0.00    -0.028 A 
HETATM   16  C   UNL     1      42.603 -16.790   4.216  1.00  0.00     0.010 A 
HETATM   17  C   UNL     1      43.215 -17.501   3.187  1.00  0.00     0.001 A 
HETATM   18  C   UNL     1      43.392 -16.902   1.952  1.00  0.00     0.002 A 
HETATM   19  C   UNL     1      42.966 -15.589   1.751  1.00  0.00     0.030 A 
BRANCH  15  20
HETATM   20  C   UNL     1      41.398 -14.801   5.187  1.00  0.00     0.013 C 
HETATM   21  C   UNL     1      42.346 -14.082   6.154  1.00  0.00     0.015 C 
HETATM   22  C   UNL     1      40.527 -15.810   5.944  1.00  0.00     0.015 C 
ENDBRANCH  15  20
ENDBRANCH   1  14
TORSDOF 2
ENDMDL
MODEL 7
REMARK VINA RESULT:      -6.5      2.617      4.296
REMARK  2 active torsions:
REMARK  status: ('A' for Active; 'I' for Inactive)
REMARK    1  A    between atoms: C_2  and  C_3 
REMARK    2  A    between atoms: C_4  and  N_5 
ROOT
HETATM    1  N   UNL     1      42.421 -13.027   4.907  1.00  0.00    -0.321 N 
HETATM    2  C   UNL     1      42.975 -12.050   4.037  1.00  0.00     0.141 C 
HETATM    3  N   UNL     1      43.752 -12.356   3.039  1.00  0.00    -0.380 N 
HETATM    4  H   UNL     1      44.111 -11.624   2.443  1.00  0.00     0.158 HD
HETATM    5  H   UNL     1      43.964 -13.328   2.863  1.00  0.00     0.158 HD
HETATM    6  S   UNL     1      42.491 -10.450   4.420  1.00  0.00    -0.086 SA
HETATM    7  C   UNL     1      41.730 -11.003   6.009  1.00  0.00     0.093 C 
HETATM    8  C   UNL     1      41.359 -12.490   5.786  1.00  0.00     0.121 C 
HETATM    9  C   UNL     1      40.488 -10.240   6.417  1.00  0.00     0.158 C 
HETATM   10  S   UNL     1      39.113 -11.112   5.708  1.00  0.00     0.147 S 
HETATM   11  O   UNL     1      38.611 -10.360   4.580  1.00  0.00    -0.228 OA
HETATM   12  O   UNL     1      38.260 -11.563   6.787  1.00  0.00    -0.228 OA
HETATM   13  C   UNL     1      39.998 -12.520   5.090  1.00  0.00     0.167 C 
ENDROOT
BRANCH   1  14
HETATM   14  C   UNL     1      42.803 -14.370   5.074  1.00  0.00     0.043 A 
HETATM   15  C   UNL     1      42.395 -15.396   4.184  1.00  0.00    -0.028 A 
HETATM   16  C   UNL     1      42.787 -16.727   4.456  1.00  0.00     0.010 A 
HETATM   17  C   UNL     1      43.573 -17.045   5.560  1.00  0.00     0.001 A 
HETATM   18  C   UNL     1      43.987 -16.041   6.418  1.00  0.00     0.002 A 
HETATM   19  C   UNL     1      43.604 -14.722   6.177  1.00  0.00     0.030 A 
BRANCH  15  20
HETATM   20  C   UNL     1      41.621 -15.130   2.893  1.00  0.00     0.013 C 
HETATM   21  C   UNL     1      40.263 -15.840   2.882  1.00  0.00     0.015 C 
HETATM   22  C   UNL     1      42.438 -15.520   1.655  1.00  0.00     0.015 C 
ENDBRANCH  15  20
ENDBRANCH   1  14
TORSDOF 2
ENDMDL
MODEL 8
REMARK VINA RESULT:      -6.5      8.913     10.794
REMARK  2 active torsions:
REMARK  status: ('A' for Active; 'I' for Inactive)
REMARK    1  A    between atoms: C_2  and  C_3 
REMARK    2  A    between atoms: C_4  and  N_5 
ROOT
HETATM    1  N   UNL     1      43.143  -9.123  11.647  1.00  0.00    -0.321 N 
HETATM    2  C   UNL     1      43.671 -10.433  11.499  1.00  0.00     0.141 C 
HETATM    3  N   UNL     1      43.403 -11.398  12.331  1.00  0.00    -0.380 N 
HETATM    4  H   UNL     1      43.795 -12.315  12.174  1.00  0.00     0.158 HD
HETATM    5  H   UNL     1      42.785 -11.216  13.108  1.00  0.00     0.158 HD
HETATM    6  S   UNL     1      44.660 -10.613  10.110  1.00  0.00    -0.086 SA
HETATM    7  C   UNL     1      44.657  -8.791   9.806  1.00  0.00     0.093 C 
HETATM    8  C   UNL     1      43.348  -8.274  10.452  1.00  0.00     0.121 C 
HETATM    9  C   UNL     1      44.680  -8.390   8.348  1.00  0.00     0.158 C 
HETATM   10  S   UNL     1      42.982  -8.256   7.842  1.00  0.00     0.147 S 
HETATM   11  O   UNL     1      42.646  -9.396   7.019  1.00  0.00    -0.228 OA
HETATM   12  O   UNL     1      42.744  -6.893   7.421  1.00  0.00    -0.228 OA
HETATM   13  C   UNL     1      42.228  -8.474   9.432  1.00  0.00     0.167 C 
ENDROOT
BRANCH   1  14
HETATM   14  C   UNL     1      42.542  -8.542  12.777  1.00  0.00     0.043 A 
HETATM   15  C   UNL     1      41.160  -8.683  13.064  1.00  0.00    -0.028 A 
HETATM   16  C   UNL     1      40.631  -8.024  14.198  1.00  0.00     0.010 A 
HETATM   17  C   UNL     1      41.435  -7.262  15.041  1.00  0.00     0.001 A 
HETATM   18  C   UNL     1      42.787  -7.139  14.771  1.00  0.00     0.002 A 
HETATM   19  C   UNL     1      43.331  -7.771  13.652  1.00  0.00     0.030 A 
BRANCH  15  20
HETATM   20  C   UNL     1      40.222  -9.582  12.259  1.00  0.00     0.013 C 
HETATM   21  C   UNL     1      39.137  -8.776  11.536  1.00  0.00     0.015 C 
HETATM   22  C   UNL     1      39.587 -10.665  13.139  1.00  0.00     0.015 C 
ENDBRANCH  15  20
ENDBRANCH   1  14
TORSDOF 2
ENDMDL
MODEL 9
REMARK VINA RESULT:      -6.4      3.033      4.465
REMARK  2 active torsions:
REMARK  status: ('A' for Active; 'I' for Inactive)
REMARK    1  A    between atoms: C_2  and  C_3 
REMARK    2  A    between atoms: C_4  and  N_5 
ROOT
HETATM    1  N   UNL     1      40.907 -12.695   2.148  1.00  0.00    -0.321 N 
HETATM    2  C   UNL     1      39.551 -12.977   1.830  1.00  0.00     0.141 C 
HETATM    3  N   UNL     1      38.712 -13.467   2.696  1.00  0.00    -0.380 N 
HETATM    4  H   UNL     1      37.755 -13.638   2.422  1.00  0.00     0.158 HD
HETATM    5  H   UNL     1      39.029 -13.644   3.638  1.00  0.00     0.158 HD
HETATM    6  S   UNL     1      39.138 -12.579   0.214  1.00  0.00    -0.086 SA
HETATM    7  C   UNL     1      40.907 -12.279  -0.222  1.00  0.00     0.093 C 
HETATM    8  C   UNL     1      41.594 -11.894   1.111  1.00  0.00     0.121 C 
HETATM    9  C   UNL     1      41.135 -11.176  -1.232  1.00  0.00     0.158 C 
HETATM   10  S   UNL     1      41.340  -9.680  -0.296  1.00  0.00     0.147 S 
HETATM   11  O   UNL     1      40.142  -8.880  -0.421  1.00  0.00    -0.228 OA
HETATM   12  O   UNL     1      42.660  -9.155  -0.569  1.00  0.00    -0.228 OA
HETATM   13  C   UNL     1      41.365 -10.398   1.325  1.00  0.00     0.167 C 
ENDROOT
BRANCH   1  14
HETATM   14  C   UNL     1      41.658 -13.135   3.252  1.00  0.00     0.043 A 
HETATM   15  C   UNL     1      42.220 -14.436   3.323  1.00  0.00    -0.028 A 
HETATM   16  C   UNL     1      42.921 -14.810   4.492  1.00  0.00     0.010 A 
HETATM   17  C   UNL     1      43.085 -13.930   5.559  1.00  0.00     0.001 A 
HETATM   18  C   UNL     1      42.553 -12.654   5.481  1.00  0.00     0.002 A 
HETATM   19  C   UNL     1      41.847 -12.265   4.342  1.00  0.00     0.030 A 
BRANCH  15  20
HETATM   20  C   UNL     1      42.182 -15.431   2.164  1.00  0.00     0.013 C 
HETATM   21  C   UNL     1      41.643 -16.799   2.601  1.00  0.00     0.015 C 
HETATM   22  C   UNL     1      43.560 -15.586   1.508  1.00  0.00     0.015 C 
ENDBRANCH  15  20
ENDBRANCH   1  14
TORSDOF 2
ENDMDL
MODEL 10
REMARK VINA RESULT:      -6.3      9.856     11.460
REMARK  2 active torsions:
REMARK  status: ('A' for Active; 'I' for Inactive)
REMARK    1  A    between atoms: C_2  and  C_3 
REMARK    2  A    between atoms: C_4  and  N_5 
ROOT
HETATM    1  N   UNL     1      41.944  -8.489  11.723  1.00  0.00    -0.321 N 
HETATM    2  C   UNL     1      40.668  -9.100  11.603  1.00  0.00     0.141 C 
HETATM    3  N   UNL     1      40.443 -10.112  10.816  1.00  0.00    -0.380 N 
HETATM    4  H   UNL     1      39.520 -10.519  10.777  1.00  0.00     0.158 HD
HETATM    5  H   UNL     1      41.207 -10.491  10.275  1.00  0.00     0.158 HD
HETATM    6  S   UNL     1      39.479  -8.392  12.616  1.00  0.00    -0.086 SA
HETATM    7  C   UNL     1      40.605  -6.993  13.048  1.00  0.00     0.093 C 
HETATM    8  C   UNL     1      42.037  -7.552  12.864  1.00  0.00     0.121 C 
HETATM    9  C   UNL     1      40.456  -6.472  14.461  1.00  0.00     0.158 C 
HETATM   10  S   UNL     1      41.592  -7.405  15.458  1.00  0.00     0.147 S 
HETATM   11  O   UNL     1      40.846  -8.356  16.252  1.00  0.00    -0.228 OA
HETATM   12  O   UNL     1      42.546  -6.484  16.037  1.00  0.00    -0.228 OA
HETATM   13  C   UNL     1      42.408  -8.286  14.153  1.00  0.00     0.167 C 
ENDROOT
BRANCH   1  14
HETATM   14  C   UNL     1      43.057  -8.609  10.872  1.00  0.00     0.043 A 
HETATM   15  C   UNL     1      43.225  -7.806   9.715  1.00  0.00    -0.028 A 
HETATM   16  C   UNL     1      44.351  -8.028   8.891  1.00  0.00     0.010 A 
HETATM   17  C   UNL     1      45.302  -8.998   9.199  1.00  0.00     0.001 A 
HETATM   18  C   UNL     1      45.149  -9.769  10.338  1.00  0.00     0.002 A 
HETATM   19  C   UNL     1      44.039  -9.576  11.162  1.00  0.00     0.030 A 
BRANCH  15  20
HETATM   20  C   UNL     1      42.293  -6.650   9.354  1.00  0.00     0.013 C 
HETATM   21  C   UNL     1      42.174  -6.463   7.837  1.00  0.00     0.015 C 
HETATM   22  C   UNL     1      42.733  -5.341  10.020  1.00  0.00     0.015 C 
ENDBRANCH  15  20
ENDBRANCH   1  14
TORSDOF 2
ENDMDL
