MODEL 1
REMARK VINA RESULT:      -8.7      0.000      0.000
REMARK  7 active torsions:
REMARK  status: ('A' for Active; 'I' for Inactive)
REMARK    1  A    between atoms: C_2  and  N_3 
REMARK    2  A    between atoms: C_2  and  C_19 
REMARK       I    between atoms: N_3  and  C_4 
REMARK       I    between atoms: C_4  and  N_5 
REMARK    3  A    between atoms: N_5  and  C_6 
REMARK    4  A    between atoms: N_8  and  C_9 
REMARK    5  A    between atoms: C_9  and  C_10 
REMARK    6  A    between atoms: C_19  and  C_20 
REMARK    7  A    between atoms: C_23  and  O_24 
ROOT
HETATM    1  N   UNL     1      40.385 -13.480   2.420  1.00  0.00    -0.338 N 
HETATM    2  C   UNL     1      39.735 -13.012   3.518  1.00  0.00     0.322 C 
HETATM    3  N   UNL     1      39.907 -13.705   4.679  1.00  0.00    -0.292 N 
HETATM    4  O   UNL     1      38.999 -12.028   3.509  1.00  0.00    -0.247 OA
HETATM    5  H   UNL     1      41.012 -14.263   2.603  1.00  0.00     0.164 HD
HETATM    6  H   UNL     1      39.360 -13.352   5.449  1.00  0.00     0.172 HD
ENDROOT
BRANCH   1   7
HETATM    7  C   UNL     1      40.400 -12.863   1.101  1.00  0.00     0.086 C 
HETATM    8  C   UNL     1      41.270 -11.605   1.104  1.00  0.00     0.032 C 
BRANCH   7   9
HETATM    9  C   UNL     1      39.002 -12.556   0.523  1.00  0.00     0.063 C 
BRANCH   9  10
HETATM   10  C   UNL     1      38.749 -13.187  -0.828  1.00  0.00    -0.056 A 
HETATM   11  C   UNL     1      37.729 -12.696  -1.656  1.00  0.00     0.010 A 
HETATM   12  C   UNL     1      37.488 -13.270  -2.906  1.00  0.00     0.037 A 
HETATM   13  C   UNL     1      38.272 -14.340  -3.327  1.00  0.00     0.065 A 
HETATM   14  C   UNL     1      39.284 -14.843  -2.520  1.00  0.00     0.037 A 
HETATM   15  C   UNL     1      39.523 -14.269  -1.270  1.00  0.00     0.010 A 
BRANCH  13  16
HETATM   16  O   UNL     1      38.074 -14.928  -4.542  1.00  0.00    -0.361 OA
HETATM   17  H   UNL     1      38.754 -15.610  -4.663  1.00  0.00     0.217 HD
ENDBRANCH  13  16
ENDBRANCH   9  10
ENDBRANCH   7   9
ENDBRANCH   1   7
BRANCH   3  18
HETATM   18  C   UNL     1      40.741 -14.771   4.931  1.00  0.00     0.153 A 
HETATM   19  N   UNL     1      41.943 -14.948   4.371  1.00  0.00    -0.154 NA
HETATM   20  N   UNL     1      42.402 -16.094   4.917  1.00  0.00    -0.275 N 
HETATM   21  C   UNL     1      41.532 -16.647   5.812  1.00  0.00     0.116 A 
HETATM   22  C   UNL     1      40.441 -15.812   5.840  1.00  0.00     0.071 A 
BRANCH  20  23
HETATM   23  C   UNL     1      43.743 -16.569   4.599  1.00  0.00     0.189 C 
BRANCH  23  24
HETATM   24  C   UNL     1      43.725 -17.947   3.991  1.00  0.00    -0.038 A 
HETATM   25  C   UNL     1      44.116 -19.064   4.744  1.00  0.00     0.009 A 
HETATM   26  C   UNL     1      44.086 -20.343   4.186  1.00  0.00     0.001 A 
HETATM   27  C   UNL     1      43.663 -20.519   2.870  1.00  0.00     0.000 A 
HETATM   28  C   UNL     1      43.273 -19.419   2.110  1.00  0.00     0.001 A 
HETATM   29  C   UNL     1      43.303 -18.138   2.666  1.00  0.00     0.009 A 
ENDBRANCH  23  24
ENDBRANCH  20  23
ENDBRANCH   3  18
TORSDOF 7
ENDMDL
MODEL 2
REMARK VINA RESULT:      -8.6      5.735      9.094
REMARK  7 active torsions:
REMARK  status: ('A' for Active; 'I' for Inactive)
REMARK    1  A    between atoms: C_2  and  N_3 
REMARK    2  A    between atoms: C_2  and  C_19 
REMARK       I    between atoms: N_3  and  C_4 
REMARK       I    between atoms: C_4  and  N_5 
REMARK    3  A    between atoms: N_5  and  C_6 
REMARK    4  A    between atoms: N_8  and  C_9 
REMARK    5  A    between atoms: C_9  and  C_10 
REMARK    6  A    between atoms: C_19  and  C_20 
REMARK    7  A    between atoms: C_23  and  O_24 
ROOT
HETATM    1  N   UNL     1      43.249 -14.179   5.975  1.00  0.00    -0.338 N 
HETATM    2  C   UNL     1      42.864 -13.234   5.079  1.00  0.00     0.322 C 
HETATM    3  N   UNL     1      43.307 -11.963   5.293  1.00  0.00    -0.292 N 
HETATM    4  O   UNL     1      42.132 -13.460   4.117  1.00  0.00    -0.247 OA
HETATM    5  H   UNL     1      43.911 -13.850   6.677  1.00  0.00     0.164 HD
HETATM    6  H   UNL     1      42.948 -11.289   4.635  1.00  0.00     0.172 HD
ENDROOT
BRANCH   1   7
HETATM    7  C   UNL     1      42.951 -15.604   5.905  1.00  0.00     0.086 C 
HETATM    8  C   UNL     1      42.198 -16.060   7.156  1.00  0.00     0.032 C 
BRANCH   7   9
HETATM    9  C   UNL     1      44.181 -16.501   5.653  1.00  0.00     0.063 C 
BRANCH   9  10
HETATM   10  C   UNL     1      43.949 -17.578   4.617  1.00  0.00    -0.056 A 
HETATM   11  C   UNL     1      43.412 -17.247   3.364  1.00  0.00     0.010 A 
HETATM   12  C   UNL     1      43.195 -18.234   2.400  1.00  0.00     0.037 A 
HETATM   13  C   UNL     1      43.518 -19.555   2.692  1.00  0.00     0.065 A 
HETATM   14  C   UNL     1      44.048 -19.903   3.928  1.00  0.00     0.037 A 
HETATM   15  C   UNL     1      44.263 -18.916   4.892  1.00  0.00     0.010 A 
BRANCH  13  16
HETATM   16  O   UNL     1      43.327 -20.550   1.778  1.00  0.00    -0.361 OA
HETATM   17  H   UNL     1      42.782 -21.240   2.189  1.00  0.00     0.217 HD
ENDBRANCH  13  16
ENDBRANCH   9  10
ENDBRANCH   7   9
ENDBRANCH   1   7
BRANCH   3  18
HETATM   18  C   UNL     1      44.191 -11.508   6.246  1.00  0.00     0.153 A 
HETATM   19  N   UNL     1      43.861 -11.194   7.504  1.00  0.00    -0.154 NA
HETATM   20  N   UNL     1      45.026 -10.821   8.073  1.00  0.00    -0.275 N 
HETATM   21  C   UNL     1      46.088 -10.894   7.219  1.00  0.00     0.116 A 
HETATM   22  C   UNL     1      45.576 -11.334   6.021  1.00  0.00     0.071 A 
BRANCH  20  23
HETATM   23  C   UNL     1      45.072 -10.481   9.490  1.00  0.00     0.189 C 
BRANCH  23  24
HETATM   24  C   UNL     1      44.335  -9.201   9.788  1.00  0.00    -0.038 A 
HETATM   25  C   UNL     1      44.319  -8.154   8.854  1.00  0.00     0.009 A 
HETATM   26  C   UNL     1      43.625  -6.974   9.122  1.00  0.00     0.001 A 
HETATM   27  C   UNL     1      42.940  -6.827  10.326  1.00  0.00     0.000 A 
HETATM   28  C   UNL     1      42.948  -7.858  11.263  1.00  0.00     0.001 A 
HETATM   29  C   UNL     1      43.643  -9.039  10.997  1.00  0.00     0.009 A 
ENDBRANCH  23  24
ENDBRANCH  20  23
ENDBRANCH   3  18
TORSDOF 7
ENDMDL
MODEL 3
REMARK VINA RESULT:      -8.5      3.342      6.098
REMARK  7 active torsions:
REMARK  status: ('A' for Active; 'I' for Inactive)
REMARK    1  A    between atoms: C_2  and  N_3 
REMARK    2  A    between atoms: C_2  and  C_19 
REMARK       I    between atoms: N_3  and  C_4 
REMARK       I    between atoms: C_4  and  N_5 
REMARK    3  A    between atoms: N_5  and  C_6 
REMARK    4  A    between atoms: N_8  and  C_9 
REMARK    5  A    between atoms: C_9  and  C_10 
REMARK    6  A    between atoms: C_19  and  C_20 
REMARK    7  A    between atoms: C_23  and  O_24 
ROOT
HETATM    1  N   UNL     1      41.514 -13.045   3.925  1.00  0.00    -0.338 N 
HETATM    2  C   UNL     1      40.271 -13.460   4.281  1.00  0.00     0.322 C 
HETATM    3  N   UNL     1      40.183 -14.640   4.957  1.00  0.00    -0.292 N 
HETATM    4  O   UNL     1      39.240 -12.847   4.009  1.00  0.00    -0.247 OA
HETATM    5  H   UNL     1      42.271 -13.626   4.284  1.00  0.00     0.164 HD
HETATM    6  H   UNL     1      39.237 -14.932   5.147  1.00  0.00     0.172 HD
ENDROOT
BRANCH   1   7
HETATM    7  C   UNL     1      41.846 -11.791   3.263  1.00  0.00     0.086 C 
HETATM    8  C   UNL     1      41.776 -11.949   1.743  1.00  0.00     0.032 C 
BRANCH   7   9
HETATM    9  C   UNL     1      43.202 -11.186   3.684  1.00  0.00     0.063 C 
BRANCH   9  10
HETATM   10  C   UNL     1      43.418 -11.158   5.180  1.00  0.00    -0.056 A 
HETATM   11  C   UNL     1      42.598 -10.366   5.998  1.00  0.00     0.010 A 
HETATM   12  C   UNL     1      42.790 -10.335   7.381  1.00  0.00     0.037 A 
HETATM   13  C   UNL     1      43.805 -11.099   7.946  1.00  0.00     0.065 A 
HETATM   14  C   UNL     1      44.631 -11.887   7.153  1.00  0.00     0.037 A 
HETATM   15  C   UNL     1      44.439 -11.916   5.771  1.00  0.00     0.010 A 
BRANCH  13  16
HETATM   16  O   UNL     1      44.024 -11.102   9.292  1.00  0.00    -0.361 OA
HETATM   17  H   UNL     1      44.711 -11.759   9.487  1.00  0.00     0.217 HD
ENDBRANCH  13  16
ENDBRANCH   9  10
ENDBRANCH   7   9
ENDBRANCH   1   7
BRANCH   3  18
HETATM   18  C   UNL     1      41.199 -15.438   5.433  1.00  0.00     0.153 A 
HETATM   19  N   UNL     1      42.241 -15.862   4.706  1.00  0.00    -0.154 NA
HETATM   20  N   UNL     1      42.981 -16.586   5.572  1.00  0.00    -0.275 N 
HETATM   21  C   UNL     1      42.447 -16.630   6.828  1.00  0.00     0.116 A 
HETATM   22  C   UNL     1      41.286 -15.896   6.768  1.00  0.00     0.071 A 
BRANCH  20  23
HETATM   23  C   UNL     1      44.257 -17.149   5.148  1.00  0.00     0.189 C 
BRANCH  23  24
HETATM   24  C   UNL     1      44.083 -18.448   4.405  1.00  0.00    -0.038 A 
HETATM   25  C   UNL     1      44.135 -19.672   5.089  1.00  0.00     0.009 A 
HETATM   26  C   UNL     1      43.960 -20.875   4.404  1.00  0.00     0.001 A 
HETATM   27  C   UNL     1      43.730 -20.868   3.030  1.00  0.00     0.000 A 
HETATM   28  C   UNL     1      43.676 -19.660   2.339  1.00  0.00     0.001 A 
HETATM   29  C   UNL     1      43.853 -18.454   3.022  1.00  0.00     0.009 A 
ENDBRANCH  23  24
ENDBRANCH  20  23
ENDBRANCH   3  18
TORSDOF 7
ENDMDL
MODEL 4
REMARK VINA RESULT:      -8.5      2.544      7.228
REMARK  7 active torsions:
REMARK  status: ('A' for Active; 'I' for Inactive)
REMARK    1  A    between atoms: C_2  and  N_3 
REMARK    2  A    between atoms: C_2  and  C_19 
REMARK       I    between atoms: N_3  and  C_4 
REMARK       I    between atoms: C_4  and  N_5 
REMARK    3  A    between atoms: N_5  and  C_6 
REMARK    4  A    between atoms: N_8  and  C_9 
REMARK    5  A    between atoms: C_9  and  C_10 
REMARK    6  A    between atoms: C_19  and  C_20 
REMARK    7  A    between atoms: C_23  and  O_24 
ROOT
HETATM    1  N   UNL     1      41.873 -15.468   5.875  1.00  0.00    -0.338 N 
HETATM    2  C   UNL     1      40.564 -15.350   6.219  1.00  0.00     0.322 C 
HETATM    3  N   UNL     1      39.830 -14.420   5.544  1.00  0.00    -0.292 N 
HETATM    4  O   UNL     1      40.026 -16.012   7.105  1.00  0.00    -0.247 OA
HETATM    5  H   UNL     1      42.152 -14.900   5.076  1.00  0.00     0.164 HD
HETATM    6  H   UNL     1      38.882 -14.332   5.875  1.00  0.00     0.172 HD
ENDROOT
BRANCH   1   7
HETATM    7  C   UNL     1      42.820 -16.436   6.412  1.00  0.00     0.086 C 
HETATM    8  C   UNL     1      43.240 -16.049   7.831  1.00  0.00     0.032 C 
BRANCH   7   9
HETATM    9  C   UNL     1      44.059 -16.676   5.525  1.00  0.00     0.063 C 
BRANCH   9  10
HETATM   10  C   UNL     1      43.870 -17.767   4.495  1.00  0.00    -0.056 A 
HETATM   11  C   UNL     1      43.368 -17.456   3.222  1.00  0.00     0.010 A 
HETATM   12  C   UNL     1      43.191 -18.456   2.264  1.00  0.00     0.037 A 
HETATM   13  C   UNL     1      43.518 -19.770   2.581  1.00  0.00     0.065 A 
HETATM   14  C   UNL     1      44.014 -20.099   3.836  1.00  0.00     0.037 A 
HETATM   15  C   UNL     1      44.189 -19.099   4.794  1.00  0.00     0.010 A 
BRANCH  13  16
HETATM   16  O   UNL     1      43.365 -20.777   1.673  1.00  0.00    -0.361 OA
HETATM   17  H   UNL     1      44.086 -20.714   1.025  1.00  0.00     0.217 HD
ENDBRANCH  13  16
ENDBRANCH   9  10
ENDBRANCH   7   9
ENDBRANCH   1   7
BRANCH   3  18
HETATM   18  C   UNL     1      40.202 -13.640   4.473  1.00  0.00     0.153 A 
HETATM   19  N   UNL     1      41.039 -14.026   3.503  1.00  0.00    -0.154 NA
HETATM   20  N   UNL     1      41.096 -12.966   2.669  1.00  0.00    -0.275 N 
HETATM   21  C   UNL     1      40.316 -11.922   3.073  1.00  0.00     0.116 A 
HETATM   22  C   UNL     1      39.725 -12.328   4.246  1.00  0.00     0.071 A 
BRANCH  20  23
HETATM   23  C   UNL     1      41.863 -13.051   1.432  1.00  0.00     0.189 C 
BRANCH  23  24
HETATM   24  C   UNL     1      40.975 -13.246   0.230  1.00  0.00    -0.038 A 
HETATM   25  C   UNL     1      40.849 -12.234  -0.734  1.00  0.00     0.009 A 
HETATM   26  C   UNL     1      40.039 -12.420  -1.856  1.00  0.00     0.001 A 
HETATM   27  C   UNL     1      39.348 -13.617  -2.026  1.00  0.00     0.000 A 
HETATM   28  C   UNL     1      39.463 -14.629  -1.076  1.00  0.00     0.001 A 
HETATM   29  C   UNL     1      40.272 -14.446   0.048  1.00  0.00     0.009 A 
ENDBRANCH  23  24
ENDBRANCH  20  23
ENDBRANCH   3  18
TORSDOF 7
ENDMDL
MODEL 5
REMARK VINA RESULT:      -8.4      3.838      6.679
REMARK  7 active torsions:
REMARK  status: ('A' for Active; 'I' for Inactive)
REMARK    1  A    between atoms: C_2  and  N_3 
REMARK    2  A    between atoms: C_2  and  C_19 
REMARK       I    between atoms: N_3  and  C_4 
REMARK       I    between atoms: C_4  and  N_5 
REMARK    3  A    between atoms: N_5  and  C_6 
REMARK    4  A    between atoms: N_8  and  C_9 
REMARK    5  A    between atoms: C_9  and  C_10 
REMARK    6  A    between atoms: C_19  and  C_20 
REMARK    7  A    between atoms: C_23  and  O_24 
ROOT
HETATM    1  N   UNL     1      40.761 -12.484   4.495  1.00  0.00    -0.338 N 
HETATM    2  C   UNL     1      40.146 -13.337   5.355  1.00  0.00     0.322 C 
HETATM    3  N   UNL     1      40.127 -14.655   5.010  1.00  0.00    -0.292 N 
HETATM    4  O   UNL     1      39.599 -12.981   6.398  1.00  0.00    -0.247 OA
HETATM    5  H   UNL     1      41.227 -12.940   3.710  1.00  0.00     0.164 HD
HETATM    6  H   UNL     1      39.611 -15.237   5.651  1.00  0.00     0.172 HD
ENDROOT
BRANCH   1   7
HETATM    7  C   UNL     1      40.958 -11.055   4.693  1.00  0.00     0.086 C 
HETATM    8  C   UNL     1      40.042 -10.250   3.770  1.00  0.00     0.032 C 
BRANCH   7   9
HETATM    9  C   UNL     1      42.422 -10.586   4.549  1.00  0.00     0.063 C 
BRANCH   9  10
HETATM   10  C   UNL     1      43.211 -10.646   5.837  1.00  0.00    -0.056 A 
HETATM   11  C   UNL     1      42.828  -9.864   6.937  1.00  0.00     0.010 A 
HETATM   12  C   UNL     1      43.549  -9.913   8.131  1.00  0.00     0.037 A 
HETATM   13  C   UNL     1      44.658 -10.749   8.225  1.00  0.00     0.065 A 
HETATM   14  C   UNL     1      45.056 -11.528   7.146  1.00  0.00     0.037 A 
HETATM   15  C   UNL     1      44.334 -11.477   5.952  1.00  0.00     0.010 A 
BRANCH  13  16
HETATM   16  O   UNL     1      45.388 -10.831   9.374  1.00  0.00    -0.361 OA
HETATM   17  H   UNL     1      45.047 -10.171   9.998  1.00  0.00     0.217 HD
ENDBRANCH  13  16
ENDBRANCH   9  10
ENDBRANCH   7   9
ENDBRANCH   1   7
BRANCH   3  18
HETATM   18  C   UNL     1      40.741 -15.276   3.946  1.00  0.00     0.153 A 
HETATM   19  N   UNL     1      42.039 -15.601   3.898  1.00  0.00    -0.154 NA
HETATM   20  N   UNL     1      42.191 -16.199   2.697  1.00  0.00    -0.275 N 
HETATM   21  C   UNL     1      41.029 -16.271   1.984  1.00  0.00     0.116 A 
HETATM   22  C   UNL     1      40.069 -15.677   2.768  1.00  0.00     0.071 A 
BRANCH  20  23
HETATM   23  C   UNL     1      43.479 -16.767   2.322  1.00  0.00     0.189 C 
BRANCH  23  24
HETATM   24  C   UNL     1      43.634 -18.185   2.808  1.00  0.00    -0.038 A 
HETATM   25  C   UNL     1      43.298 -19.264   1.977  1.00  0.00     0.009 A 
HETATM   26  C   UNL     1      43.455 -20.577   2.421  1.00  0.00     0.001 A 
HETATM   27  C   UNL     1      43.950 -20.827   3.699  1.00  0.00     0.000 A 
HETATM   28  C   UNL     1      44.287 -19.765   4.535  1.00  0.00     0.001 A 
HETATM   29  C   UNL     1      44.130 -18.450   4.094  1.00  0.00     0.009 A 
ENDBRANCH  23  24
ENDBRANCH  20  23
ENDBRANCH   3  18
TORSDOF 7
ENDMDL
MODEL 6
REMARK VINA RESULT:      -8.4      1.439      2.173
REMARK  7 active torsions:
REMARK  status: ('A' for Active; 'I' for Inactive)
REMARK    1  A    between atoms: C_2  and  N_3 
REMARK    2  A    between atoms: C_2  and  C_19 
REMARK       I    between atoms: N_3  and  C_4 
REMARK       I    between atoms: C_4  and  N_5 
REMARK    3  A    between atoms: N_5  and  C_6 
REMARK    4  A    between atoms: N_8  and  C_9 
REMARK    5  A    between atoms: C_9  and  C_10 
REMARK    6  A    between atoms: C_19  and  C_20 
REMARK    7  A    between atoms: C_23  and  O_24 
ROOT
HETATM    1  N   UNL     1      40.449 -14.621   3.313  1.00  0.00    -0.338 N 
HETATM    2  C   UNL     1      40.358 -13.689   4.296  1.00  0.00     0.322 C 
HETATM    3  N   UNL     1      40.976 -13.973   5.477  1.00  0.00    -0.292 N 
HETATM    4  O   UNL     1      39.740 -12.631   4.182  1.00  0.00    -0.247 OA
HETATM    5  H   UNL     1      41.053 -15.411   3.536  1.00  0.00     0.164 HD
HETATM    6  H   UNL     1      40.831 -13.276   6.191  1.00  0.00     0.172 HD
ENDROOT
BRANCH   1   7
HETATM    7  C   UNL     1      39.927 -14.499   1.959  1.00  0.00     0.086 C 
HETATM    8  C   UNL     1      39.801 -15.874   1.302  1.00  0.00     0.032 C 
BRANCH   7   9
HETATM    9  C   UNL     1      40.722 -13.535   1.053  1.00  0.00     0.063 C 
BRANCH   9  10
HETATM   10  C   UNL     1      39.935 -13.022  -0.132  1.00  0.00    -0.056 A 
HETATM   11  C   UNL     1      40.266 -13.435  -1.431  1.00  0.00     0.010 A 
HETATM   12  C   UNL     1      39.545 -12.968  -2.532  1.00  0.00     0.037 A 
HETATM   13  C   UNL     1      38.488 -12.086  -2.330  1.00  0.00     0.065 A 
HETATM   14  C   UNL     1      38.146 -11.663  -1.051  1.00  0.00     0.037 A 
HETATM   15  C   UNL     1      38.870 -12.129   0.048  1.00  0.00     0.010 A 
BRANCH  13  16
HETATM   16  O   UNL     1      37.753 -11.609  -3.376  1.00  0.00    -0.361 OA
HETATM   17  H   UNL     1      37.023 -12.226  -3.541  1.00  0.00     0.217 HD
ENDBRANCH  13  16
ENDBRANCH   9  10
ENDBRANCH   7   9
ENDBRANCH   1   7
BRANCH   3  18
HETATM   18  C   UNL     1      41.783 -15.044   5.791  1.00  0.00     0.153 A 
HETATM   19  N   UNL     1      42.787 -15.492   5.029  1.00  0.00    -0.154 NA
HETATM   20  N   UNL     1      43.303 -16.525   5.727  1.00  0.00    -0.275 N 
HETATM   21  C   UNL     1      42.663 -16.743   6.913  1.00  0.00     0.116 A 
HETATM   22  C   UNL     1      41.667 -15.799   6.982  1.00  0.00     0.071 A 
BRANCH  20  23
HETATM   23  C   UNL     1      44.486 -17.221   5.236  1.00  0.00     0.189 C 
BRANCH  23  24
HETATM   24  C   UNL     1      44.129 -18.372   4.331  1.00  0.00    -0.038 A 
HETATM   25  C   UNL     1      43.661 -18.136   3.030  1.00  0.00     0.009 A 
HETATM   26  C   UNL     1      43.344 -19.202   2.186  1.00  0.00     0.001 A 
HETATM   27  C   UNL     1      43.492 -20.513   2.633  1.00  0.00     0.000 A 
HETATM   28  C   UNL     1      43.954 -20.761   3.923  1.00  0.00     0.001 A 
HETATM   29  C   UNL     1      44.271 -19.697   4.770  1.00  0.00     0.009 A 
ENDBRANCH  23  24
ENDBRANCH  20  23
ENDBRANCH   3  18
TORSDOF 7
ENDMDL
MODEL 7
REMARK VINA RESULT:      -8.3      3.770      7.617
REMARK  7 active torsions:
REMARK  status: ('A' for Active; 'I' for Inactive)
REMARK    1  A    between atoms: C_2  and  N_3 
REMARK    2  A    between atoms: C_2  and  C_19 
REMARK       I    between atoms: N_3  and  C_4 
REMARK       I    between atoms: C_4  and  N_5 
REMARK    3  A    between atoms: N_5  and  C_6 
REMARK    4  A    between atoms: N_8  and  C_9 
REMARK    5  A    between atoms: C_9  and  C_10 
REMARK    6  A    between atoms: C_19  and  C_20 
REMARK    7  A    between atoms: C_23  and  O_24 
ROOT
HETATM    1  N   UNL     1      42.104 -15.679   5.722  1.00  0.00    -0.338 N 
HETATM    2  C   UNL     1      40.776 -15.761   5.447  1.00  0.00     0.322 C 
HETATM    3  N   UNL     1      40.212 -14.702   4.801  1.00  0.00    -0.292 N 
HETATM    4  O   UNL     1      40.069 -16.716   5.765  1.00  0.00    -0.247 OA
HETATM    5  H   UNL     1      42.565 -14.858   5.333  1.00  0.00     0.164 HD
HETATM    6  H   UNL     1      39.216 -14.787   4.671  1.00  0.00     0.172 HD
ENDROOT
BRANCH   1   7
HETATM    7  C   UNL     1      42.921 -16.715   6.339  1.00  0.00     0.086 C 
HETATM    8  C   UNL     1      43.283 -16.333   7.775  1.00  0.00     0.032 C 
BRANCH   7   9
HETATM    9  C   UNL     1      44.187 -17.090   5.540  1.00  0.00     0.063 C 
BRANCH   9  10
HETATM   10  C   UNL     1      43.939 -18.103   4.445  1.00  0.00    -0.056 A 
HETATM   11  C   UNL     1      44.171 -19.467   4.679  1.00  0.00     0.010 A 
HETATM   12  C   UNL     1      43.944 -20.410   3.675  1.00  0.00     0.037 A 
HETATM   13  C   UNL     1      43.483 -19.986   2.433  1.00  0.00     0.065 A 
HETATM   14  C   UNL     1      43.250 -18.640   2.180  1.00  0.00     0.037 A 
HETATM   15  C   UNL     1      43.479 -17.698   3.184  1.00  0.00     0.010 A 
BRANCH  13  16
HETATM   16  O   UNL     1      43.243 -20.874   1.426  1.00  0.00    -0.361 OA
HETATM   17  H   UNL     1      44.087 -21.073   0.989  1.00  0.00     0.217 HD
ENDBRANCH  13  16
ENDBRANCH   9  10
ENDBRANCH   7   9
ENDBRANCH   1   7
BRANCH   3  18
HETATM   18  C   UNL     1      40.825 -13.583   4.284  1.00  0.00     0.153 A 
HETATM   19  N   UNL     1      41.207 -12.521   5.004  1.00  0.00    -0.154 NA
HETATM   20  N   UNL     1      41.770 -11.690   4.103  1.00  0.00    -0.275 N 
HETATM   21  C   UNL     1      41.764 -12.192   2.833  1.00  0.00     0.116 A 
HETATM   22  C   UNL     1      41.153 -13.420   2.918  1.00  0.00     0.071 A 
BRANCH  20  23
HETATM   23  C   UNL     1      42.384 -10.443   4.543  1.00  0.00     0.189 C 
BRANCH  23  24
HETATM   24  C   UNL     1      43.344 -10.659   5.684  1.00  0.00    -0.038 A 
HETATM   25  C   UNL     1      43.056 -10.154   6.961  1.00  0.00     0.009 A 
HETATM   26  C   UNL     1      43.937 -10.366   8.023  1.00  0.00     0.001 A 
HETATM   27  C   UNL     1      45.114 -11.084   7.819  1.00  0.00     0.000 A 
HETATM   28  C   UNL     1      45.412 -11.589   6.556  1.00  0.00     0.001 A 
HETATM   29  C   UNL     1      44.533 -11.378   5.492  1.00  0.00     0.009 A 
ENDBRANCH  23  24
ENDBRANCH  20  23
ENDBRANCH   3  18
TORSDOF 7
ENDMDL
MODEL 8
REMARK VINA RESULT:      -8.3      4.075      7.633
REMARK  7 active torsions:
REMARK  status: ('A' for Active; 'I' for Inactive)
REMARK    1  A    between atoms: C_2  and  N_3 
REMARK    2  A    between atoms: C_2  and  C_19 
REMARK       I    between atoms: N_3  and  C_4 
REMARK       I    between atoms: C_4  and  N_5 
REMARK    3  A    between atoms: N_5  and  C_6 
REMARK    4  A    between atoms: N_8  and  C_9 
REMARK    5  A    between atoms: C_9  and  C_10 
REMARK    6  A    between atoms: C_19  and  C_20 
REMARK    7  A    between atoms: C_23  and  O_24 
ROOT
HETATM    1  N   UNL     1      41.246 -14.386   3.316  1.00  0.00    -0.338 N 
HETATM    2  C   UNL     1      40.690 -13.790   2.229  1.00  0.00     0.322 C 
HETATM    3  N   UNL     1      40.552 -12.435   2.271  1.00  0.00    -0.292 N 
HETATM    4  O   UNL     1      40.293 -14.404   1.240  1.00  0.00    -0.247 OA
HETATM    5  H   UNL     1      41.587 -13.737   4.024  1.00  0.00     0.164 HD
HETATM    6  H   UNL     1      40.083 -12.048   1.467  1.00  0.00     0.172 HD
ENDROOT
BRANCH   1   7
HETATM    7  C   UNL     1      41.549 -15.804   3.459  1.00  0.00     0.086 C 
HETATM    8  C   UNL     1      40.952 -16.355   4.755  1.00  0.00     0.032 C 
BRANCH   7   9
HETATM    9  C   UNL     1      43.051 -16.148   3.363  1.00  0.00     0.063 C 
BRANCH   9  10
HETATM   10  C   UNL     1      43.336 -17.633   3.354  1.00  0.00    -0.056 A 
HETATM   11  C   UNL     1      42.989 -18.412   2.240  1.00  0.00     0.010 A 
HETATM   12  C   UNL     1      43.250 -19.783   2.221  1.00  0.00     0.037 A 
HETATM   13  C   UNL     1      43.862 -20.376   3.321  1.00  0.00     0.065 A 
HETATM   14  C   UNL     1      44.211 -19.623   4.435  1.00  0.00     0.037 A 
HETATM   15  C   UNL     1      43.948 -18.252   4.453  1.00  0.00     0.010 A 
BRANCH  13  16
HETATM   16  O   UNL     1      44.140 -21.712   3.342  1.00  0.00    -0.361 OA
HETATM   17  H   UNL     1      45.084 -21.829   3.153  1.00  0.00     0.217 HD
ENDBRANCH  13  16
ENDBRANCH   9  10
ENDBRANCH   7   9
ENDBRANCH   1   7
BRANCH   3  18
HETATM   18  C   UNL     1      40.998 -11.553   3.229  1.00  0.00     0.153 A 
HETATM   19  N   UNL     1      41.004 -11.795   4.545  1.00  0.00    -0.154 NA
HETATM   20  N   UNL     1      41.535 -10.679   5.088  1.00  0.00    -0.275 N 
HETATM   21  C   UNL     1      41.873  -9.738   4.159  1.00  0.00     0.116 A 
HETATM   22  C   UNL     1      41.533 -10.275   2.940  1.00  0.00     0.071 A 
BRANCH  20  23
HETATM   23  C   UNL     1      41.777 -10.610   6.524  1.00  0.00     0.189 C 
BRANCH  23  24
HETATM   24  C   UNL     1      43.247 -10.649   6.852  1.00  0.00    -0.038 A 
HETATM   25  C   UNL     1      44.110 -11.504   6.150  1.00  0.00     0.009 A 
HETATM   26  C   UNL     1      45.475 -11.530   6.442  1.00  0.00     0.001 A 
HETATM   27  C   UNL     1      45.990 -10.703   7.438  1.00  0.00     0.000 A 
HETATM   28  C   UNL     1      45.144  -9.851   8.144  1.00  0.00     0.001 A 
HETATM   29  C   UNL     1      43.778  -9.824   7.854  1.00  0.00     0.009 A 
ENDBRANCH  23  24
ENDBRANCH  20  23
ENDBRANCH   3  18
TORSDOF 7
ENDMDL
MODEL 9
REMARK VINA RESULT:      -8.2      3.215      7.590
REMARK  7 active torsions:
REMARK  status: ('A' for Active; 'I' for Inactive)
REMARK    1  A    between atoms: C_2  and  N_3 
REMARK    2  A    between atoms: C_2  and  C_19 
REMARK       I    between atoms: N_3  and  C_4 
REMARK       I    between atoms: C_4  and  N_5 
REMARK    3  A    between atoms: N_5  and  C_6 
REMARK    4  A    between atoms: N_8  and  C_9 
REMARK    5  A    between atoms: C_9  and  C_10 
REMARK    6  A    between atoms: C_19  and  C_20 
REMARK    7  A    between atoms: C_23  and  O_24 
ROOT
HETATM    1  N   UNL     1      40.815 -15.037   2.151  1.00  0.00    -0.338 N 
HETATM    2  C   UNL     1      40.015 -15.194   1.064  1.00  0.00     0.322 C 
HETATM    3  N   UNL     1      39.727 -14.075   0.342  1.00  0.00    -0.292 N 
HETATM    4  O   UNL     1      39.531 -16.271   0.721  1.00  0.00    -0.247 OA
HETATM    5  H   UNL     1      41.193 -14.097   2.263  1.00  0.00     0.164 HD
HETATM    6  H   UNL     1      39.085 -14.234  -0.419  1.00  0.00     0.172 HD
ENDROOT
BRANCH   1   7
HETATM    7  C   UNL     1      41.304 -16.098   3.020  1.00  0.00     0.086 C 
HETATM    8  C   UNL     1      40.907 -15.831   4.473  1.00  0.00     0.032 C 
BRANCH   7   9
HETATM    9  C   UNL     1      42.821 -16.365   2.911  1.00  0.00     0.063 C 
BRANCH   9  10
HETATM   10  C   UNL     1      43.198 -17.818   3.084  1.00  0.00    -0.056 A 
HETATM   11  C   UNL     1      42.910 -18.748   2.073  1.00  0.00     0.010 A 
HETATM   12  C   UNL     1      43.257 -20.092   2.222  1.00  0.00     0.037 A 
HETATM   13  C   UNL     1      43.893 -20.507   3.387  1.00  0.00     0.065 A 
HETATM   14  C   UNL     1      44.184 -19.603   4.402  1.00  0.00     0.037 A 
HETATM   15  C   UNL     1      43.836 -18.260   4.252  1.00  0.00     0.010 A 
BRANCH  13  16
HETATM   16  O   UNL     1      44.253 -21.810   3.572  1.00  0.00    -0.361 OA
HETATM   17  H   UNL     1      45.167 -21.829   3.899  1.00  0.00     0.217 HD
ENDBRANCH  13  16
ENDBRANCH   9  10
ENDBRANCH   7   9
ENDBRANCH   1   7
BRANCH   3  18
HETATM   18  C   UNL     1      40.222 -12.799   0.496  1.00  0.00     0.153 A 
HETATM   19  N   UNL     1      40.233 -12.119   1.648  1.00  0.00    -0.154 NA
HETATM   20  N   UNL     1      40.818 -10.943   1.337  1.00  0.00    -0.275 N 
HETATM   21  C   UNL     1      41.186 -10.857   0.026  1.00  0.00     0.116 A 
HETATM   22  C   UNL     1      40.808 -12.047  -0.549  1.00  0.00     0.071 A 
BRANCH  20  23
HETATM   23  C   UNL     1      41.079  -9.959   2.381  1.00  0.00     0.189 C 
BRANCH  23  24
HETATM   24  C   UNL     1      41.812 -10.560   3.552  1.00  0.00    -0.038 A 
HETATM   25  C   UNL     1      41.229 -10.568   4.829  1.00  0.00     0.009 A 
HETATM   26  C   UNL     1      41.901 -11.137   5.912  1.00  0.00     0.001 A 
HETATM   27  C   UNL     1      43.161 -11.704   5.731  1.00  0.00     0.000 A 
HETATM   28  C   UNL     1      43.752 -11.701   4.469  1.00  0.00     0.001 A 
HETATM   29  C   UNL     1      43.082 -11.131   3.384  1.00  0.00     0.009 A 
ENDBRANCH  23  24
ENDBRANCH  20  23
ENDBRANCH   3  18
TORSDOF 7
ENDMDL
MODEL 10
REMARK VINA RESULT:      -8.1      2.739      7.879
REMARK  7 active torsions:
REMARK  status: ('A' for Active; 'I' for Inactive)
REMARK    1  A    between atoms: C_2  and  N_3 
REMARK    2  A    between atoms: C_2  and  C_19 
REMARK       I    between atoms: N_3  and  C_4 
REMARK       I    between atoms: C_4  and  N_5 
REMARK    3  A    between atoms: N_5  and  C_6 
REMARK    4  A    between atoms: N_8  and  C_9 
REMARK    5  A    between atoms: C_9  and  C_10 
REMARK    6  A    between atoms: C_19  and  C_20 
REMARK    7  A    between atoms: C_23  and  O_24 
ROOT
HETATM    1  N   UNL     1      41.498 -14.292   2.869  1.00  0.00    -0.338 N 
HETATM    2  C   UNL     1      41.905 -13.278   3.675  1.00  0.00     0.322 C 
HETATM    3  N   UNL     1      41.532 -12.017   3.318  1.00  0.00    -0.292 N 
HETATM    4  O   UNL     1      42.597 -13.437   4.679  1.00  0.00    -0.247 OA
HETATM    5  H   UNL     1      40.872 -14.007   2.116  1.00  0.00     0.164 HD
HETATM    6  H   UNL     1      41.906 -11.296   3.915  1.00  0.00     0.172 HD
ENDROOT
BRANCH   1   7
HETATM    7  C   UNL     1      41.721 -15.714   3.094  1.00  0.00     0.086 C 
HETATM    8  C   UNL     1      40.879 -16.213   4.269  1.00  0.00     0.032 C 
BRANCH   7   9
HETATM    9  C   UNL     1      43.202 -16.106   3.282  1.00  0.00     0.063 C 
BRANCH   9  10
HETATM   10  C   UNL     1      43.438 -17.599   3.318  1.00  0.00    -0.056 A 
HETATM   11  C   UNL     1      43.069 -18.399   2.226  1.00  0.00     0.010 A 
HETATM   12  C   UNL     1      43.284 -19.778   2.250  1.00  0.00     0.037 A 
HETATM   13  C   UNL     1      43.872 -20.358   3.370  1.00  0.00     0.065 A 
HETATM   14  C   UNL     1      44.242 -19.583   4.463  1.00  0.00     0.037 A 
HETATM   15  C   UNL     1      44.025 -18.204   4.438  1.00  0.00     0.010 A 
BRANCH  13  16
HETATM   16  O   UNL     1      44.105 -21.700   3.433  1.00  0.00    -0.361 OA
HETATM   17  H   UNL     1      45.051 -21.852   3.277  1.00  0.00     0.217 HD
ENDBRANCH  13  16
ENDBRANCH   9  10
ENDBRANCH   7   9
ENDBRANCH   1   7
BRANCH   3  18
HETATM   18  C   UNL     1      40.699 -11.622   2.295  1.00  0.00     0.153 A 
HETATM   19  N   UNL     1      41.059 -11.534   1.009  1.00  0.00    -0.154 NA
HETATM   20  N   UNL     1      39.937 -11.134   0.374  1.00  0.00    -0.275 N 
HETATM   21  C   UNL     1      38.874 -10.972   1.214  1.00  0.00     0.116 A 
HETATM   22  C   UNL     1      39.338 -11.278   2.471  1.00  0.00     0.071 A 
BRANCH  20  23
HETATM   23  C   UNL     1      39.926 -11.008  -1.079  1.00  0.00     0.189 C 
BRANCH  23  24
HETATM   24  C   UNL     1      39.313 -12.211  -1.746  1.00  0.00    -0.038 A 
HETATM   25  C   UNL     1      37.953 -12.219  -2.090  1.00  0.00     0.009 A 
HETATM   26  C   UNL     1      37.387 -13.327  -2.722  1.00  0.00     0.001 A 
HETATM   27  C   UNL     1      38.174 -14.439  -3.016  1.00  0.00     0.000 A 
HETATM   28  C   UNL     1      39.526 -14.445  -2.679  1.00  0.00     0.001 A 
HETATM   29  C   UNL     1      40.094 -13.337  -2.046  1.00  0.00     0.009 A 
ENDBRANCH  23  24
ENDBRANCH  20  23
ENDBRANCH   3  18
TORSDOF 7
ENDMDL
