MODEL 1
REMARK VINA RESULT:      -9.0      0.000      0.000
REMARK  5 active torsions:
REMARK  status: ('A' for Active; 'I' for Inactive)
REMARK    1  A    between atoms: C_4  and  N_5 
REMARK    2  A    between atoms: C_9  and  C_10 
REMARK    3  A    between atoms: C_13  and  O_14 
REMARK    4  A    between atoms: C_17  and  C_18 
REMARK       I    between atoms: C_18  and  N_19 
REMARK    5  A    between atoms: N_19  and  C_20 
ROOT
HETATM    1  N   UNL     1      39.853 -12.472   1.169  1.00  0.00    -0.292 N 
HETATM    2  C   UNL     1      39.452 -11.601   2.207  1.00  0.00     0.179 C 
HETATM    3  S   UNL     1      38.594 -10.158   2.085  1.00  0.00    -0.040 SA
HETATM    4  N   UNL     1      39.749 -11.985   3.481  1.00  0.00    -0.354 N 
HETATM    5  C   UNL     1      40.626 -13.064   3.863  1.00  0.00     0.158 C 
HETATM    6  C   UNL     1      40.801 -14.017   2.726  1.00  0.00     0.060 C 
HETATM    7  C   UNL     1      40.459 -13.724   1.451  1.00  0.00     0.030 C 
HETATM    8  C   UNL     1      40.681 -14.690   0.304  1.00  0.00     0.070 C 
HETATM    9  H   UNL     1      39.466 -11.337   4.206  1.00  0.00     0.163 HD
ENDROOT
BRANCH   6  10
HETATM   10  C   UNL     1      41.197 -15.382   3.179  1.00  0.00     0.257 C 
HETATM   11  N   UNL     1      42.543 -15.641   3.112  1.00  0.00    -0.306 N 
HETATM   12  H   UNL     1      43.179 -14.899   2.864  1.00  0.00     0.170 HD
HETATM   13  O   UNL     1      40.317 -16.129   3.594  1.00  0.00    -0.267 OA
BRANCH  11  14
HETATM   14  C   UNL     1      43.070 -16.919   3.176  1.00  0.00     0.160 A 
HETATM   15  N   UNL     1      43.659 -17.468   4.244  1.00  0.00    -0.110 NA
HETATM   16  O   UNL     1      43.939 -18.775   3.911  1.00  0.00    -0.216 OA
HETATM   17  C   UNL     1      43.513 -19.018   2.645  1.00  0.00     0.078 A 
HETATM   18  C   UNL     1      43.680 -20.397   2.155  1.00  0.00     0.079 C 
HETATM   19  C   UNL     1      42.987 -17.863   2.121  1.00  0.00     0.087 A 
ENDBRANCH  11  14
ENDBRANCH   6  10
BRANCH   5  20
HETATM   20  C   UNL     1      41.952 -12.514   4.373  1.00  0.00    -0.031 A 
HETATM   21  C   UNL     1      42.220 -12.500   5.753  1.00  0.00     0.012 A 
HETATM   22  C   UNL     1      43.425 -11.986   6.243  1.00  0.00     0.037 A 
HETATM   23  C   UNL     1      44.371 -11.492   5.352  1.00  0.00     0.065 A 
HETATM   24  C   UNL     1      44.137 -11.510   3.984  1.00  0.00     0.037 A 
HETATM   25  C   UNL     1      42.933 -12.020   3.494  1.00  0.00     0.012 A 
BRANCH  23  26
HETATM   26  O   UNL     1      45.555 -10.973   5.786  1.00  0.00    -0.361 OA
HETATM   27  H   UNL     1      45.380 -10.395   6.546  1.00  0.00     0.217 HD
ENDBRANCH  23  26
ENDBRANCH   5  20
BRANCH   1  28
HETATM   28  C   UNL     1      39.541 -12.086  -0.181  1.00  0.00     0.048 A 
HETATM   29  C   UNL     1      38.428 -12.694  -0.792  1.00  0.00     0.037 A 
HETATM   30  C   UNL     1      38.069 -12.386  -2.109  1.00  0.00    -0.060 A 
HETATM   31  C   UNL     1      36.899 -13.067  -2.755  1.00  0.00     0.048 C 
HETATM   32  C   UNL     1      38.796 -11.413  -2.796  1.00  0.00     0.007 A 
HETATM   33  C   UNL     1      39.902 -10.803  -2.198  1.00  0.00     0.009 A 
HETATM   34  C   UNL     1      40.308 -11.149  -0.899  1.00  0.00    -0.035 A 
HETATM   35  C   UNL     1      41.553 -10.501  -0.360  1.00  0.00     0.050 C 
ENDBRANCH   1  28
TORSDOF 5
ENDMDL
MODEL 2
REMARK VINA RESULT:      -8.0      3.250      7.084
REMARK  5 active torsions:
REMARK  status: ('A' for Active; 'I' for Inactive)
REMARK    1  A    between atoms: C_4  and  N_5 
REMARK    2  A    between atoms: C_9  and  C_10 
REMARK    3  A    between atoms: C_13  and  O_14 
REMARK    4  A    between atoms: C_17  and  C_18 
REMARK       I    between atoms: C_18  and  N_19 
REMARK    5  A    between atoms: N_19  and  C_20 
ROOT
HETATM    1  N   UNL     1      42.221 -14.120   4.158  1.00  0.00    -0.292 N 
HETATM    2  C   UNL     1      42.810 -12.972   4.736  1.00  0.00     0.179 C 
HETATM    3  S   UNL     1      43.818 -12.882   6.081  1.00  0.00    -0.040 SA
HETATM    4  N   UNL     1      42.581 -11.783   4.110  1.00  0.00    -0.354 N 
HETATM    5  C   UNL     1      41.620 -11.542   3.062  1.00  0.00     0.158 C 
HETATM    6  C   UNL     1      41.237 -12.828   2.406  1.00  0.00     0.060 C 
HETATM    7  C   UNL     1      41.500 -14.042   2.939  1.00  0.00     0.030 C 
HETATM    8  C   UNL     1      41.067 -15.336   2.276  1.00  0.00     0.070 C 
HETATM    9  H   UNL     1      43.000 -10.973   4.552  1.00  0.00     0.163 HD
ENDROOT
BRANCH   6  10
HETATM   10  C   UNL     1      40.724 -12.631   1.019  1.00  0.00     0.257 C 
HETATM   11  N   UNL     1      39.400 -12.949   0.846  1.00  0.00    -0.306 N 
HETATM   12  H   UNL     1      38.840 -13.194   1.648  1.00  0.00     0.170 HD
HETATM   13  O   UNL     1      41.496 -12.183   0.177  1.00  0.00    -0.267 OA
BRANCH  11  14
HETATM   14  C   UNL     1      38.826 -13.142  -0.399  1.00  0.00     0.160 A 
HETATM   15  N   UNL     1      38.008 -12.286  -1.022  1.00  0.00    -0.110 NA
HETATM   16  O   UNL     1      37.757 -12.819  -2.267  1.00  0.00    -0.216 OA
HETATM   17  C   UNL     1      38.428 -13.992  -2.399  1.00  0.00     0.078 A 
HETATM   18  C   UNL     1      38.317 -14.662  -3.705  1.00  0.00     0.079 C 
HETATM   19  C   UNL     1      39.092 -14.261  -1.228  1.00  0.00     0.087 A 
ENDBRANCH  11  14
ENDBRANCH   6  10
BRANCH   5  20
HETATM   20  C   UNL     1      40.417 -10.786   3.611  1.00  0.00    -0.031 A 
HETATM   21  C   UNL     1      39.954  -9.633   2.953  1.00  0.00     0.012 A 
HETATM   22  C   UNL     1      38.860  -8.916   3.448  1.00  0.00     0.037 A 
HETATM   23  C   UNL     1      38.219  -9.355   4.601  1.00  0.00     0.065 A 
HETATM   24  C   UNL     1      38.646 -10.500   5.260  1.00  0.00     0.037 A 
HETATM   25  C   UNL     1      39.739 -11.215   4.768  1.00  0.00     0.012 A 
BRANCH  23  26
HETATM   26  O   UNL     1      37.154  -8.683   5.124  1.00  0.00    -0.361 OA
HETATM   27  H   UNL     1      37.135  -7.789   4.743  1.00  0.00     0.217 HD
ENDBRANCH  23  26
ENDBRANCH   5  20
BRANCH   1  28
HETATM   28  C   UNL     1      42.459 -15.385   4.800  1.00  0.00     0.048 A 
HETATM   29  C   UNL     1      43.476 -16.203   4.272  1.00  0.00     0.037 A 
HETATM   30  C   UNL     1      43.757 -17.456   4.829  1.00  0.00    -0.060 A 
HETATM   31  C   UNL     1      44.822 -18.328   4.235  1.00  0.00     0.048 C 
HETATM   32  C   UNL     1      43.053 -17.862   5.964  1.00  0.00     0.007 A 
HETATM   33  C   UNL     1      42.043 -17.057   6.496  1.00  0.00     0.009 A 
HETATM   34  C   UNL     1      41.711 -15.825   5.909  1.00  0.00    -0.035 A 
HETATM   35  C   UNL     1      40.561 -15.057   6.497  1.00  0.00     0.050 C 
ENDBRANCH   1  28
TORSDOF 5
ENDMDL
MODEL 3
REMARK VINA RESULT:      -8.0      4.029      8.273
REMARK  5 active torsions:
REMARK  status: ('A' for Active; 'I' for Inactive)
REMARK    1  A    between atoms: C_4  and  N_5 
REMARK    2  A    between atoms: C_9  and  C_10 
REMARK    3  A    between atoms: C_13  and  O_14 
REMARK    4  A    between atoms: C_17  and  C_18 
REMARK       I    between atoms: C_18  and  N_19 
REMARK    5  A    between atoms: N_19  and  C_20 
ROOT
HETATM    1  N   UNL     1      42.066 -14.336   5.780  1.00  0.00    -0.292 N 
HETATM    2  C   UNL     1      40.733 -14.465   6.231  1.00  0.00     0.179 C 
HETATM    3  S   UNL     1      39.835 -15.873   6.442  1.00  0.00    -0.040 SA
HETATM    4  N   UNL     1      40.092 -13.317   6.591  1.00  0.00    -0.354 N 
HETATM    5  C   UNL     1      40.549 -11.972   6.342  1.00  0.00     0.158 C 
HETATM    6  C   UNL     1      42.019 -11.965   6.075  1.00  0.00     0.060 C 
HETATM    7  C   UNL     1      42.727 -13.080   5.784  1.00  0.00     0.030 C 
HETATM    8  C   UNL     1      44.211 -13.048   5.476  1.00  0.00     0.070 C 
HETATM    9  H   UNL     1      39.134 -13.433   6.896  1.00  0.00     0.163 HD
ENDROOT
BRANCH   6  10
HETATM   10  C   UNL     1      42.647 -10.643   6.363  1.00  0.00     0.257 C 
HETATM   11  N   UNL     1      43.084 -10.484   7.654  1.00  0.00    -0.306 N 
HETATM   12  H   UNL     1      43.050 -11.267   8.289  1.00  0.00     0.170 HD
HETATM   13  O   UNL     1      42.748  -9.841   5.440  1.00  0.00    -0.267 OA
BRANCH  11  14
HETATM   14  C   UNL     1      43.394  -9.250   8.199  1.00  0.00     0.160 A 
HETATM   15  N   UNL     1      44.560  -8.610   8.068  1.00  0.00    -0.110 NA
HETATM   16  O   UNL     1      44.405  -7.383   8.674  1.00  0.00    -0.216 OA
HETATM   17  C   UNL     1      43.144  -7.278   9.165  1.00  0.00     0.078 A 
HETATM   18  C   UNL     1      42.792  -5.993   9.791  1.00  0.00     0.079 C 
HETATM   19  C   UNL     1      42.472  -8.451   8.923  1.00  0.00     0.087 A 
ENDBRANCH  11  14
ENDBRANCH   6  10
BRANCH   5  20
HETATM   20  C   UNL     1      39.747 -11.341   5.211  1.00  0.00    -0.031 A 
HETATM   21  C   UNL     1      39.047 -10.142   5.433  1.00  0.00     0.012 A 
HETATM   22  C   UNL     1      38.294  -9.553   4.412  1.00  0.00     0.037 A 
HETATM   23  C   UNL     1      38.244 -10.159   3.162  1.00  0.00     0.065 A 
HETATM   24  C   UNL     1      38.940 -11.335   2.913  1.00  0.00     0.037 A 
HETATM   25  C   UNL     1      39.690 -11.923   3.932  1.00  0.00     0.012 A 
BRANCH  23  26
HETATM   26  O   UNL     1      37.515  -9.626   2.140  1.00  0.00    -0.361 OA
HETATM   27  H   UNL     1      36.671  -9.303   2.498  1.00  0.00     0.217 HD
ENDBRANCH  23  26
ENDBRANCH   5  20
BRANCH   1  28
HETATM   28  C   UNL     1      42.760 -15.538   5.404  1.00  0.00     0.048 A 
HETATM   29  C   UNL     1      42.737 -15.907   4.045  1.00  0.00     0.037 A 
HETATM   30  C   UNL     1      43.373 -17.072   3.602  1.00  0.00    -0.060 A 
HETATM   31  C   UNL     1      43.312 -17.466   2.156  1.00  0.00     0.048 C 
HETATM   32  C   UNL     1      44.091 -17.840   4.521  1.00  0.00     0.007 A 
HETATM   33  C   UNL     1      44.120 -17.482   5.871  1.00  0.00     0.009 A 
HETATM   34  C   UNL     1      43.435 -16.348   6.337  1.00  0.00    -0.035 A 
HETATM   35  C   UNL     1      43.455 -16.078   7.816  1.00  0.00     0.050 C 
ENDBRANCH   1  28
TORSDOF 5
ENDMDL
MODEL 4
REMARK VINA RESULT:      -7.9     11.146     14.778
REMARK  5 active torsions:
REMARK  status: ('A' for Active; 'I' for Inactive)
REMARK    1  A    between atoms: C_4  and  N_5 
REMARK    2  A    between atoms: C_9  and  C_10 
REMARK    3  A    between atoms: C_13  and  O_14 
REMARK    4  A    between atoms: C_17  and  C_18 
REMARK       I    between atoms: C_18  and  N_19 
REMARK    5  A    between atoms: N_19  and  C_20 
ROOT
HETATM    1  N   UNL     1      41.585  -7.771  12.266  1.00  0.00    -0.292 N 
HETATM    2  C   UNL     1      40.294  -8.279  11.995  1.00  0.00     0.179 C 
HETATM    3  S   UNL     1      39.728  -8.986  10.576  1.00  0.00    -0.040 SA
HETATM    4  N   UNL     1      39.392  -8.241  13.016  1.00  0.00    -0.354 N 
HETATM    5  C   UNL     1      39.545  -7.533  14.263  1.00  0.00     0.158 C 
HETATM    6  C   UNL     1      40.987  -7.236  14.517  1.00  0.00     0.060 C 
HETATM    7  C   UNL     1      41.943  -7.325  13.565  1.00  0.00     0.030 C 
HETATM    8  C   UNL     1      43.396  -6.982  13.832  1.00  0.00     0.070 C 
HETATM    9  H   UNL     1      38.470  -8.595  12.793  1.00  0.00     0.163 HD
ENDROOT
BRANCH   6  10
HETATM   10  C   UNL     1      41.283  -7.034  15.965  1.00  0.00     0.257 C 
HETATM   11  N   UNL     1      41.087  -8.143  16.750  1.00  0.00    -0.306 N 
HETATM   12  H   UNL     1      40.858  -9.024  16.318  1.00  0.00     0.170 HD
HETATM   13  O   UNL     1      41.698  -5.936  16.320  1.00  0.00    -0.267 OA
BRANCH  11  14
HETATM   14  C   UNL     1      40.995  -8.083  18.131  1.00  0.00     0.160 A 
HETATM   15  N   UNL     1      42.022  -7.947  18.976  1.00  0.00    -0.110 NA
HETATM   16  O   UNL     1      41.481  -7.828  20.237  1.00  0.00    -0.216 OA
HETATM   17  C   UNL     1      40.127  -7.884  20.153  1.00  0.00     0.078 A 
HETATM   18  C   UNL     1      39.388  -7.706  21.414  1.00  0.00     0.079 C 
HETATM   19  C   UNL     1      39.769  -8.082  18.842  1.00  0.00     0.087 A 
ENDBRANCH  11  14
ENDBRANCH   6  10
BRANCH   5  20
HETATM   20  C   UNL     1      38.682  -6.277  14.268  1.00  0.00    -0.031 A 
HETATM   21  C   UNL     1      38.134  -5.799  13.065  1.00  0.00     0.012 A 
HETATM   22  C   UNL     1      37.350  -4.641  13.046  1.00  0.00     0.037 A 
HETATM   23  C   UNL     1      37.105  -3.960  14.233  1.00  0.00     0.065 A 
HETATM   24  C   UNL     1      37.620  -4.422  15.437  1.00  0.00     0.037 A 
HETATM   25  C   UNL     1      38.404  -5.576  15.456  1.00  0.00     0.012 A 
BRANCH  23  26
HETATM   26  O   UNL     1      36.354  -2.822  14.260  1.00  0.00    -0.361 OA
HETATM   27  H   UNL     1      35.686  -2.909  14.959  1.00  0.00     0.217 HD
ENDBRANCH  23  26
ENDBRANCH   5  20
BRANCH   1  28
HETATM   28  C   UNL     1      42.552  -7.811  11.202  1.00  0.00     0.048 A 
HETATM   29  C   UNL     1      43.397  -8.935  11.130  1.00  0.00     0.037 A 
HETATM   30  C   UNL     1      44.376  -9.040  10.136  1.00  0.00    -0.060 A 
HETATM   31  C   UNL     1      45.287 -10.230  10.093  1.00  0.00     0.048 C 
HETATM   32  C   UNL     1      44.465  -8.038   9.168  1.00  0.00     0.007 A 
HETATM   33  C   UNL     1      43.631  -6.918   9.231  1.00  0.00     0.009 A 
HETATM   34  C   UNL     1      42.686  -6.773  10.260  1.00  0.00    -0.035 A 
HETATM   35  C   UNL     1      41.883  -5.503  10.297  1.00  0.00     0.050 C 
ENDBRANCH   1  28
TORSDOF 5
ENDMDL
MODEL 5
REMARK VINA RESULT:      -7.9      1.693      2.554
REMARK  5 active torsions:
REMARK  status: ('A' for Active; 'I' for Inactive)
REMARK    1  A    between atoms: C_4  and  N_5 
REMARK    2  A    between atoms: C_9  and  C_10 
REMARK    3  A    between atoms: C_13  and  O_14 
REMARK    4  A    between atoms: C_17  and  C_18 
REMARK       I    between atoms: C_18  and  N_19 
REMARK    5  A    between atoms: N_19  and  C_20 
ROOT
HETATM    1  N   UNL     1      39.354 -11.891   0.316  1.00  0.00    -0.292 N 
HETATM    2  C   UNL     1      38.320 -11.322   1.094  1.00  0.00     0.179 C 
HETATM    3  S   UNL     1      37.299 -10.044   0.697  1.00  0.00    -0.040 SA
HETATM    4  N   UNL     1      38.073 -11.900   2.304  1.00  0.00    -0.354 N 
HETATM    5  C   UNL     1      38.901 -12.876   2.968  1.00  0.00     0.158 C 
HETATM    6  C   UNL     1      39.808 -13.540   1.985  1.00  0.00     0.060 C 
HETATM    7  C   UNL     1      40.039 -13.058   0.743  1.00  0.00     0.030 C 
HETATM    8  C   UNL     1      40.994 -13.726  -0.227  1.00  0.00     0.070 C 
HETATM    9  H   UNL     1      37.338 -11.465   2.850  1.00  0.00     0.163 HD
ENDROOT
BRANCH   6  10
HETATM   10  C   UNL     1      40.262 -14.885   2.444  1.00  0.00     0.257 C 
HETATM   11  N   UNL     1      41.505 -14.902   3.027  1.00  0.00    -0.306 N 
HETATM   12  H   UNL     1      41.986 -14.032   3.198  1.00  0.00     0.170 HD
HETATM   13  O   UNL     1      39.498 -15.832   2.297  1.00  0.00    -0.267 OA
BRANCH  11  14
HETATM   14  C   UNL     1      42.230 -16.065   3.223  1.00  0.00     0.160 A 
HETATM   15  N   UNL     1      42.631 -16.545   4.405  1.00  0.00    -0.110 NA
HETATM   16  O   UNL     1      43.225 -17.762   4.155  1.00  0.00    -0.216 OA
HETATM   17  C   UNL     1      43.177 -18.021   2.823  1.00  0.00     0.078 A 
HETATM   18  C   UNL     1      43.716 -19.322   2.393  1.00  0.00     0.079 C 
HETATM   19  C   UNL     1      42.589 -16.958   2.182  1.00  0.00     0.087 A 
ENDBRANCH  11  14
ENDBRANCH   6  10
BRANCH   5  20
HETATM   20  C   UNL     1      39.661 -12.229   4.119  1.00  0.00    -0.031 A 
HETATM   21  C   UNL     1      39.258 -12.465   5.445  1.00  0.00     0.012 A 
HETATM   22  C   UNL     1      39.934 -11.870   6.516  1.00  0.00     0.037 A 
HETATM   23  C   UNL     1      41.021 -11.042   6.263  1.00  0.00     0.065 A 
HETATM   24  C   UNL     1      41.450 -10.806   4.964  1.00  0.00     0.037 A 
HETATM   25  C   UNL     1      40.775 -11.398   3.895  1.00  0.00     0.012 A 
BRANCH  23  26
HETATM   26  O   UNL     1      41.704 -10.434   7.275  1.00  0.00    -0.361 OA
HETATM   27  H   UNL     1      42.638 -10.692   7.217  1.00  0.00     0.217 HD
ENDBRANCH  23  26
ENDBRANCH   5  20
BRANCH   1  28
HETATM   28  C   UNL     1      39.623 -11.300  -0.967  1.00  0.00     0.048 A 
HETATM   29  C   UNL     1      40.590 -10.278  -1.025  1.00  0.00     0.037 A 
HETATM   30  C   UNL     1      40.896  -9.640  -2.232  1.00  0.00    -0.060 A 
HETATM   31  C   UNL     1      41.906  -8.532  -2.269  1.00  0.00     0.048 C 
HETATM   32  C   UNL     1      40.271 -10.075  -3.402  1.00  0.00     0.007 A 
HETATM   33  C   UNL     1      39.310 -11.089  -3.355  1.00  0.00     0.009 A 
HETATM   34  C   UNL     1      38.951 -11.694  -2.140  1.00  0.00    -0.035 A 
HETATM   35  C   UNL     1      37.855 -12.722  -2.168  1.00  0.00     0.050 C 
ENDBRANCH   1  28
TORSDOF 5
ENDMDL
MODEL 6
REMARK VINA RESULT:      -7.9      1.819      2.588
REMARK  5 active torsions:
REMARK  status: ('A' for Active; 'I' for Inactive)
REMARK    1  A    between atoms: C_4  and  N_5 
REMARK    2  A    between atoms: C_9  and  C_10 
REMARK    3  A    between atoms: C_13  and  O_14 
REMARK    4  A    between atoms: C_17  and  C_18 
REMARK       I    between atoms: C_18  and  N_19 
REMARK    5  A    between atoms: N_19  and  C_20 
ROOT
HETATM    1  N   UNL     1      40.821 -11.268   2.615  1.00  0.00    -0.292 N 
HETATM    2  C   UNL     1      40.603 -10.444   3.742  1.00  0.00     0.179 C 
HETATM    3  S   UNL     1      39.955  -8.891   3.789  1.00  0.00    -0.040 SA
HETATM    4  N   UNL     1      40.907 -10.975   4.960  1.00  0.00    -0.354 N 
HETATM    5  C   UNL     1      41.638 -12.195   5.199  1.00  0.00     0.158 C 
HETATM    6  C   UNL     1      41.616 -13.060   3.981  1.00  0.00     0.060 C 
HETATM    7  C   UNL     1      41.254 -12.611   2.758  1.00  0.00     0.030 C 
HETATM    8  C   UNL     1      41.275 -13.495   1.525  1.00  0.00     0.070 C 
HETATM    9  H   UNL     1      40.758 -10.361   5.751  1.00  0.00     0.163 HD
ENDROOT
BRANCH   6  10
HETATM   10  C   UNL     1      41.835 -14.501   4.299  1.00  0.00     0.257 C 
HETATM   11  N   UNL     1      43.028 -15.012   3.853  1.00  0.00    -0.306 N 
HETATM   12  H   UNL     1      43.708 -14.394   3.438  1.00  0.00     0.170 HD
HETATM   13  O   UNL     1      40.970 -15.087   4.942  1.00  0.00    -0.267 OA
BRANCH  11  14
HETATM   14  C   UNL     1      43.280 -16.370   3.760  1.00  0.00     0.160 A 
HETATM   15  N   UNL     1      43.343 -17.076   2.627  1.00  0.00    -0.110 NA
HETATM   16  O   UNL     1      43.716 -18.354   2.980  1.00  0.00    -0.216 OA
HETATM   17  C   UNL     1      43.884 -18.419   4.326  1.00  0.00     0.078 A 
HETATM   18  C   UNL     1      44.348 -19.709   4.863  1.00  0.00     0.079 C 
HETATM   19  C   UNL     1      43.584 -17.196   4.872  1.00  0.00     0.087 A 
ENDBRANCH  11  14
ENDBRANCH   6  10
BRANCH   5  20
HETATM   20  C   UNL     1      43.054 -11.881   5.666  1.00  0.00    -0.031 A 
HETATM   21  C   UNL     1      43.342 -11.824   7.041  1.00  0.00     0.012 A 
HETATM   22  C   UNL     1      44.632 -11.523   7.490  1.00  0.00     0.037 A 
HETATM   23  C   UNL     1      45.641 -11.285   6.564  1.00  0.00     0.065 A 
HETATM   24  C   UNL     1      45.386 -11.351   5.201  1.00  0.00     0.037 A 
HETATM   25  C   UNL     1      44.099 -11.650   4.752  1.00  0.00     0.012 A 
BRANCH  23  26
HETATM   26  O   UNL     1      46.911 -10.980   6.957  1.00  0.00    -0.361 OA
HETATM   27  H   UNL     1      47.195 -11.631   7.619  1.00  0.00     0.217 HD
ENDBRANCH  23  26
ENDBRANCH   5  20
BRANCH   1  28
HETATM   28  C   UNL     1      40.498 -10.726   1.322  1.00  0.00     0.048 A 
HETATM   29  C   UNL     1      41.522 -10.065   0.617  1.00  0.00     0.037 A 
HETATM   30  C   UNL     1      41.283  -9.494  -0.638  1.00  0.00    -0.060 A 
HETATM   31  C   UNL     1      42.377  -8.766  -1.360  1.00  0.00     0.048 C 
HETATM   32  C   UNL     1      40.022  -9.644  -1.217  1.00  0.00     0.007 A 
HETATM   33  C   UNL     1      38.999 -10.299  -0.527  1.00  0.00     0.009 A 
HETATM   34  C   UNL     1      39.210 -10.822   0.759  1.00  0.00    -0.035 A 
HETATM   35  C   UNL     1      38.037 -11.443   1.463  1.00  0.00     0.050 C 
ENDBRANCH   1  28
TORSDOF 5
ENDMDL
MODEL 7
REMARK VINA RESULT:      -7.8      3.462      7.353
REMARK  5 active torsions:
REMARK  status: ('A' for Active; 'I' for Inactive)
REMARK    1  A    between atoms: C_4  and  N_5 
REMARK    2  A    between atoms: C_9  and  C_10 
REMARK    3  A    between atoms: C_13  and  O_14 
REMARK    4  A    between atoms: C_17  and  C_18 
REMARK       I    between atoms: C_18  and  N_19 
REMARK    5  A    between atoms: N_19  and  C_20 
ROOT
HETATM    1  N   UNL     1      41.746 -14.826   4.120  1.00  0.00    -0.292 N 
HETATM    2  C   UNL     1      40.506 -14.791   3.443  1.00  0.00     0.179 C 
HETATM    3  S   UNL     1      39.791 -15.998   2.513  1.00  0.00    -0.040 SA
HETATM    4  N   UNL     1      39.759 -13.660   3.588  1.00  0.00    -0.354 N 
HETATM    5  C   UNL     1      40.201 -12.415   4.167  1.00  0.00     0.158 C 
HETATM    6  C   UNL     1      41.406 -12.639   5.020  1.00  0.00     0.060 C 
HETATM    7  C   UNL     1      42.148 -13.769   4.976  1.00  0.00     0.030 C 
HETATM    8  C   UNL     1      43.392 -13.961   5.822  1.00  0.00     0.070 C 
HETATM    9  H   UNL     1      38.883 -13.652   3.081  1.00  0.00     0.163 HD
ENDROOT
BRANCH   6  10
HETATM   10  C   UNL     1      41.578 -11.580   6.057  1.00  0.00     0.257 C 
HETATM   11  N   UNL     1      42.831 -11.023   6.105  1.00  0.00    -0.306 N 
HETATM   12  H   UNL     1      43.513 -11.273   5.406  1.00  0.00     0.170 HD
HETATM   13  O   UNL     1      40.605 -11.280   6.740  1.00  0.00    -0.267 OA
BRANCH  11  14
HETATM   14  C   UNL     1      43.283 -10.274   7.178  1.00  0.00     0.160 A 
HETATM   15  N   UNL     1      42.906  -9.025   7.472  1.00  0.00    -0.110 NA
HETATM   16  O   UNL     1      43.512  -8.702   8.666  1.00  0.00    -0.216 OA
HETATM   17  C   UNL     1      44.250  -9.757   9.097  1.00  0.00     0.078 A 
HETATM   18  C   UNL     1      44.915  -9.598  10.400  1.00  0.00     0.079 C 
HETATM   19  C   UNL     1      44.168 -10.767   8.170  1.00  0.00     0.087 A 
ENDBRANCH  11  14
ENDBRANCH   6  10
BRANCH   5  20
HETATM   20  C   UNL     1      40.442 -11.380   3.075  1.00  0.00    -0.031 A 
HETATM   21  C   UNL     1      39.603 -10.256   2.977  1.00  0.00     0.012 A 
HETATM   22  C   UNL     1      39.799  -9.302   1.974  1.00  0.00     0.037 A 
HETATM   23  C   UNL     1      40.841  -9.464   1.068  1.00  0.00     0.065 A 
HETATM   24  C   UNL     1      41.694 -10.557   1.154  1.00  0.00     0.037 A 
HETATM   25  C   UNL     1      41.497 -11.511   2.154  1.00  0.00     0.012 A 
BRANCH  23  26
HETATM   26  O   UNL     1      41.063  -8.564   0.069  1.00  0.00    -0.361 OA
HETATM   27  H   UNL     1      40.367  -7.887   0.102  1.00  0.00     0.217 HD
ENDBRANCH  23  26
ENDBRANCH   5  20
BRANCH   1  28
HETATM   28  C   UNL     1      42.544 -16.016   3.985  1.00  0.00     0.048 A 
HETATM   29  C   UNL     1      42.576 -16.907   5.074  1.00  0.00     0.037 A 
HETATM   30  C   UNL     1      43.342 -18.077   5.028  1.00  0.00    -0.060 A 
HETATM   31  C   UNL     1      43.389 -19.000   6.210  1.00  0.00     0.048 C 
HETATM   32  C   UNL     1      44.033 -18.385   3.855  1.00  0.00     0.007 A 
HETATM   33  C   UNL     1      44.007 -17.507   2.768  1.00  0.00     0.009 A 
HETATM   34  C   UNL     1      43.291 -16.301   2.826  1.00  0.00    -0.035 A 
HETATM   35  C   UNL     1      43.378 -15.378   1.642  1.00  0.00     0.050 C 
ENDBRANCH   1  28
TORSDOF 5
ENDMDL
MODEL 8
REMARK VINA RESULT:      -7.7      2.796      6.486
REMARK  5 active torsions:
REMARK  status: ('A' for Active; 'I' for Inactive)
REMARK    1  A    between atoms: C_4  and  N_5 
REMARK    2  A    between atoms: C_9  and  C_10 
REMARK    3  A    between atoms: C_13  and  O_14 
REMARK    4  A    between atoms: C_17  and  C_18 
REMARK       I    between atoms: C_18  and  N_19 
REMARK    5  A    between atoms: N_19  and  C_20 
ROOT
HETATM    1  N   UNL     1      41.408 -10.499   5.054  1.00  0.00    -0.292 N 
HETATM    2  C   UNL     1      41.446  -9.489   4.066  1.00  0.00     0.179 C 
HETATM    3  S   UNL     1      41.158  -7.841   4.246  1.00  0.00    -0.040 SA
HETATM    4  N   UNL     1      41.807  -9.874   2.808  1.00  0.00    -0.354 N 
HETATM    5  C   UNL     1      41.927 -11.231   2.334  1.00  0.00     0.158 C 
HETATM    6  C   UNL     1      42.079 -12.170   3.484  1.00  0.00     0.060 C 
HETATM    7  C   UNL     1      41.808 -11.829   4.764  1.00  0.00     0.030 C 
HETATM    8  C   UNL     1      41.931 -12.809   5.915  1.00  0.00     0.070 C 
HETATM    9  H   UNL     1      41.812  -9.137   2.114  1.00  0.00     0.163 HD
ENDROOT
BRANCH   6  10
HETATM   10  C   UNL     1      42.751 -13.445   3.097  1.00  0.00     0.257 C 
HETATM   11  N   UNL     1      42.023 -14.579   3.358  1.00  0.00    -0.306 N 
HETATM   12  H   UNL     1      41.075 -14.495   3.693  1.00  0.00     0.170 HD
HETATM   13  O   UNL     1      43.852 -13.377   2.562  1.00  0.00    -0.267 OA
BRANCH  11  14
HETATM   14  C   UNL     1      42.580 -15.846   3.374  1.00  0.00     0.160 A 
HETATM   15  N   UNL     1      43.165 -16.428   4.426  1.00  0.00    -0.110 NA
HETATM   16  O   UNL     1      43.482 -17.712   4.040  1.00  0.00    -0.216 OA
HETATM   17  C   UNL     1      43.083 -17.908   2.757  1.00  0.00     0.078 A 
HETATM   18  C   UNL     1      43.291 -19.259   2.209  1.00  0.00     0.079 C 
HETATM   19  C   UNL     1      42.537 -16.743   2.276  1.00  0.00     0.087 A 
ENDBRANCH  11  14
ENDBRANCH   6  10
BRANCH   5  20
HETATM   20  C   UNL     1      40.744 -11.586   1.442  1.00  0.00    -0.031 A 
HETATM   21  C   UNL     1      40.965 -12.203   0.198  1.00  0.00     0.012 A 
HETATM   22  C   UNL     1      39.894 -12.525  -0.642  1.00  0.00     0.037 A 
HETATM   23  C   UNL     1      38.596 -12.238  -0.237  1.00  0.00     0.065 A 
HETATM   24  C   UNL     1      38.350 -11.644   0.994  1.00  0.00     0.037 A 
HETATM   25  C   UNL     1      39.419 -11.321   1.832  1.00  0.00     0.012 A 
BRANCH  23  26
HETATM   26  O   UNL     1      37.523 -12.526  -1.027  1.00  0.00    -0.361 OA
HETATM   27  H   UNL     1      37.056 -11.698  -1.229  1.00  0.00     0.217 HD
ENDBRANCH  23  26
ENDBRANCH   5  20
BRANCH   1  28
HETATM   28  C   UNL     1      41.037 -10.109   6.388  1.00  0.00     0.048 A 
HETATM   29  C   UNL     1      42.062  -9.665   7.246  1.00  0.00     0.037 A 
HETATM   30  C   UNL     1      41.786  -9.286   8.564  1.00  0.00    -0.060 A 
HETATM   31  C   UNL     1      42.894  -8.845   9.474  1.00  0.00     0.048 C 
HETATM   32  C   UNL     1      40.462  -9.293   9.005  1.00  0.00     0.007 A 
HETATM   33  C   UNL     1      39.438  -9.731   8.161  1.00  0.00     0.009 A 
HETATM   34  C   UNL     1      39.711 -10.172   6.857  1.00  0.00    -0.035 A 
HETATM   35  C   UNL     1      38.563 -10.700   6.042  1.00  0.00     0.050 C 
ENDBRANCH   1  28
TORSDOF 5
ENDMDL
MODEL 9
REMARK VINA RESULT:      -7.7     16.295     19.046
REMARK  5 active torsions:
REMARK  status: ('A' for Active; 'I' for Inactive)
REMARK    1  A    between atoms: C_4  and  N_5 
REMARK    2  A    between atoms: C_9  and  C_10 
REMARK    3  A    between atoms: C_13  and  O_14 
REMARK    4  A    between atoms: C_17  and  C_18 
REMARK       I    between atoms: C_18  and  N_19 
REMARK    5  A    between atoms: N_19  and  C_20 
ROOT
HETATM    1  N   UNL     1      44.401 -30.943   1.718  1.00  0.00    -0.292 N 
HETATM    2  C   UNL     1      43.592 -29.831   1.390  1.00  0.00     0.179 C 
HETATM    3  S   UNL     1      42.021 -29.498   1.896  1.00  0.00    -0.040 SA
HETATM    4  N   UNL     1      44.155 -28.873   0.601  1.00  0.00    -0.354 N 
HETATM    5  C   UNL     1      45.401 -28.984  -0.118  1.00  0.00     0.158 C 
HETATM    6  C   UNL     1      46.241 -30.071   0.467  1.00  0.00     0.060 C 
HETATM    7  C   UNL     1      45.759 -31.010   1.313  1.00  0.00     0.030 C 
HETATM    8  C   UNL     1      46.619 -32.130   1.866  1.00  0.00     0.070 C 
HETATM    9  H   UNL     1      43.552 -28.094   0.366  1.00  0.00     0.163 HD
ENDROOT
BRANCH   6  10
HETATM   10  C   UNL     1      47.694 -29.888   0.182  1.00  0.00     0.257 C 
HETATM   11  N   UNL     1      48.161 -30.597  -0.896  1.00  0.00    -0.306 N 
HETATM   12  H   UNL     1      47.511 -31.107  -1.475  1.00  0.00     0.170 HD
HETATM   13  O   UNL     1      48.327 -29.116   0.894  1.00  0.00    -0.267 OA
BRANCH  11  14
HETATM   14  C   UNL     1      49.508 -30.816  -1.129  1.00  0.00     0.160 A 
HETATM   15  N   UNL     1      50.355 -29.944  -1.685  1.00  0.00    -0.110 NA
HETATM   16  O   UNL     1      51.604 -30.522  -1.633  1.00  0.00    -0.216 OA
HETATM   17  C   UNL     1      51.514 -31.740  -1.040  1.00  0.00     0.078 A 
HETATM   18  C   UNL     1      52.779 -32.467  -0.846  1.00  0.00     0.079 C 
HETATM   19  C   UNL     1      50.199 -31.990  -0.734  1.00  0.00     0.087 A 
ENDBRANCH  11  14
ENDBRANCH   6  10
BRANCH   5  20
HETATM   20  C   UNL     1      45.138 -29.186  -1.605  1.00  0.00    -0.031 A 
HETATM   21  C   UNL     1      45.433 -28.155  -2.514  1.00  0.00     0.012 A 
HETATM   22  C   UNL     1      45.187 -28.315  -3.882  1.00  0.00     0.037 A 
HETATM   23  C   UNL     1      44.650 -29.510  -4.346  1.00  0.00     0.065 A 
HETATM   24  C   UNL     1      44.364 -30.549  -3.470  1.00  0.00     0.037 A 
HETATM   25  C   UNL     1      44.609 -30.390  -2.105  1.00  0.00     0.012 A 
BRANCH  23  26
HETATM   26  O   UNL     1      44.384 -29.706  -5.669  1.00  0.00    -0.361 OA
HETATM   27  H   UNL     1      44.788 -30.545  -5.944  1.00  0.00     0.217 HD
ENDBRANCH  23  26
ENDBRANCH   5  20
BRANCH   1  28
HETATM   28  C   UNL     1      43.825 -31.960   2.556  1.00  0.00     0.048 A 
HETATM   29  C   UNL     1      43.972 -31.817   3.950  1.00  0.00     0.037 A 
HETATM   30  C   UNL     1      43.456 -32.773   4.832  1.00  0.00    -0.060 A 
HETATM   31  C   UNL     1      43.649 -32.620   6.311  1.00  0.00     0.048 C 
HETATM   32  C   UNL     1      42.733 -33.848   4.314  1.00  0.00     0.007 A 
HETATM   33  C   UNL     1      42.581 -33.999   2.933  1.00  0.00     0.009 A 
HETATM   34  C   UNL     1      43.147 -33.078   2.035  1.00  0.00    -0.035 A 
HETATM   35  C   UNL     1      43.002 -33.356   0.565  1.00  0.00     0.050 C 
ENDBRANCH   1  28
TORSDOF 5
ENDMDL
MODEL 10
REMARK VINA RESULT:      -7.5     12.498     16.018
REMARK  5 active torsions:
REMARK  status: ('A' for Active; 'I' for Inactive)
REMARK    1  A    between atoms: C_4  and  N_5 
REMARK    2  A    between atoms: C_9  and  C_10 
REMARK    3  A    between atoms: C_13  and  O_14 
REMARK    4  A    between atoms: C_17  and  C_18 
REMARK       I    between atoms: C_18  and  N_19 
REMARK    5  A    between atoms: N_19  and  C_20 
ROOT
HETATM    1  N   UNL     1      40.180  -7.209  13.875  1.00  0.00    -0.292 N 
HETATM    2  C   UNL     1      38.907  -6.609  13.745  1.00  0.00     0.179 C 
HETATM    3  S   UNL     1      37.962  -6.457  12.361  1.00  0.00    -0.040 SA
HETATM    4  N   UNL     1      38.336  -6.128  14.885  1.00  0.00    -0.354 N 
HETATM    5  C   UNL     1      38.988  -5.961  16.161  1.00  0.00     0.158 C 
HETATM    6  C   UNL     1      40.215  -6.810  16.230  1.00  0.00     0.060 C 
HETATM    7  C   UNL     1      40.790  -7.376  15.145  1.00  0.00     0.030 C 
HETATM    8  C   UNL     1      42.059  -8.202  15.230  1.00  0.00     0.070 C 
HETATM    9  H   UNL     1      37.431  -5.689  14.765  1.00  0.00     0.163 HD
ENDROOT
BRANCH   6  10
HETATM   10  C   UNL     1      40.612  -7.129  17.632  1.00  0.00     0.257 C 
HETATM   11  N   UNL     1      40.099  -8.304  18.120  1.00  0.00    -0.306 N 
HETATM   12  H   UNL     1      39.584  -8.915  17.505  1.00  0.00     0.170 HD
HETATM   13  O   UNL     1      41.368  -6.353  18.207  1.00  0.00    -0.267 OA
BRANCH  11  14
HETATM   14  C   UNL     1      40.080  -8.617  19.469  1.00  0.00     0.160 A 
HETATM   15  N   UNL     1      38.999  -8.615  20.255  1.00  0.00    -0.110 NA
HETATM   16  O   UNL     1      39.406  -9.084  21.485  1.00  0.00    -0.216 OA
HETATM   17  C   UNL     1      40.731  -9.376  21.440  1.00  0.00     0.078 A 
HETATM   18  C   UNL     1      41.313  -9.953  22.663  1.00  0.00     0.079 C 
HETATM   19  C   UNL     1      41.215  -9.063  20.194  1.00  0.00     0.087 A 
ENDBRANCH  11  14
ENDBRANCH   6  10
BRANCH   5  20
HETATM   20  C   UNL     1      39.282  -4.488  16.416  1.00  0.00    -0.031 A 
HETATM   21  C   UNL     1      40.423  -3.893  15.849  1.00  0.00     0.012 A 
HETATM   22  C   UNL     1      40.718  -2.546  16.082  1.00  0.00     0.037 A 
HETATM   23  C   UNL     1      39.869  -1.787  16.878  1.00  0.00     0.065 A 
HETATM   24  C   UNL     1      38.727  -2.346  17.436  1.00  0.00     0.037 A 
HETATM   25  C   UNL     1      38.432  -3.691  17.205  1.00  0.00     0.012 A 
BRANCH  23  26
HETATM   26  O   UNL     1      40.122  -0.473  17.140  1.00  0.00    -0.361 OA
HETATM   27  H   UNL     1      40.969  -0.409  17.611  1.00  0.00     0.217 HD
ENDBRANCH  23  26
ENDBRANCH   5  20
BRANCH   1  28
HETATM   28  C   UNL     1      40.795  -7.729  12.682  1.00  0.00     0.048 A 
HETATM   29  C   UNL     1      41.582  -6.848  11.916  1.00  0.00     0.037 A 
HETATM   30  C   UNL     1      42.198  -7.273  10.734  1.00  0.00    -0.060 A 
HETATM   31  C   UNL     1      43.006  -6.312   9.913  1.00  0.00     0.048 C 
HETATM   32  C   UNL     1      42.074  -8.609  10.351  1.00  0.00     0.007 A 
HETATM   33  C   UNL     1      41.296  -9.492  11.105  1.00  0.00     0.009 A 
HETATM   34  C   UNL     1      40.624  -9.062  12.260  1.00  0.00    -0.035 A 
HETATM   35  C   UNL     1      39.746 -10.055  12.970  1.00  0.00     0.050 C 
ENDBRANCH   1  28
TORSDOF 5
ENDMDL
