MODEL 1
REMARK VINA RESULT:      -7.3      0.000      0.000
REMARK  6 active torsions:
REMARK  status: ('A' for Active; 'I' for Inactive)
REMARK    1  A    between atoms: C_2  and  N_3 
REMARK    2  A    between atoms: C_2  and  C_16 
REMARK    3  A    between atoms: N_3  and  C_6 
REMARK    4  A    between atoms: C_16  and  C_17 
REMARK       I    between atoms: C_17  and  N_18 
REMARK    5  A    between atoms: N_18  and  C_19 
REMARK    6  A    between atoms: C_22  and  O_23 
ROOT
HETATM    1  C   UNL     1      40.510 -14.516   0.483  1.00  0.00     0.040 C 
HETATM    2  C   UNL     1      40.464 -14.652   2.003  1.00  0.00     0.191 C 
ENDROOT
BRANCH   2   3
HETATM    3  N   UNL     1      41.818 -15.104   2.542  1.00  0.00    -0.063 N 
HETATM    4  H   UNL     1      42.533 -14.909   1.833  1.00  0.00     0.278 HD
HETATM    5  H   UNL     1      42.050 -14.494   3.337  1.00  0.00     0.278 HD
BRANCH   3   6
HETATM    6  C   UNL     1      42.029 -16.535   3.038  1.00  0.00     0.221 C 
HETATM    7  C   UNL     1      42.298 -16.649   4.525  1.00  0.00    -0.011 A 
HETATM    8  C   UNL     1      43.308 -17.481   5.043  1.00  0.00     0.009 A 
HETATM    9  C   UNL     1      41.482 -15.947   5.441  1.00  0.00     0.011 A 
HETATM   10  C   UNL     1      43.550 -17.513   6.424  1.00  0.00     0.019 A 
HETATM   11  S   UNL     1      44.328 -18.540   4.037  1.00  0.00    -0.129 SA
HETATM   12  C   UNL     1      42.771 -16.767   7.304  1.00  0.00     0.001 A 
HETATM   13  C   UNL     1      41.726 -15.996   6.814  1.00  0.00     0.001 A 
HETATM   14  C   UNL     1      43.306 -18.657   2.551  1.00  0.00     0.082 C 
HETATM   15  C   UNL     1      42.992 -17.249   2.080  1.00  0.00     0.048 C 
ENDBRANCH   3   6
ENDBRANCH   2   3
BRANCH   2  16
HETATM   16  C   UNL     1      40.129 -13.306   2.671  1.00  0.00     0.135 C 
BRANCH  16  17
HETATM   17  C   UNL     1      41.376 -12.701   3.285  1.00  0.00     0.224 C 
HETATM   18  N   UNL     1      41.306 -12.613   4.661  1.00  0.00    -0.327 N 
HETATM   19  H   UNL     1      40.420 -12.808   5.110  1.00  0.00     0.169 HD
HETATM   20  O   UNL     1      42.296 -12.333   2.564  1.00  0.00    -0.273 OA
BRANCH  18  21
HETATM   21  C   UNL     1      42.353 -12.258   5.539  1.00  0.00     0.034 A 
HETATM   22  C   UNL     1      43.473 -13.052   5.779  1.00  0.00     0.032 A 
HETATM   23  C   UNL     1      44.446 -12.640   6.696  1.00  0.00     0.039 A 
HETATM   24  C   UNL     1      44.323 -11.431   7.380  1.00  0.00     0.068 A 
HETATM   25  C   UNL     1      43.205 -10.634   7.146  1.00  0.00     0.039 A 
HETATM   26  C   UNL     1      42.226 -11.047   6.233  1.00  0.00     0.032 A 
BRANCH  24  27
HETATM   27  O   UNL     1      45.344 -11.154   8.245  1.00  0.00    -0.356 OA
HETATM   28  C   UNL     1      45.581  -9.785   8.548  1.00  0.00     0.210 C 
ENDBRANCH  24  27
ENDBRANCH  18  21
ENDBRANCH  16  17
ENDBRANCH   2  16
TORSDOF 6
ENDMDL
MODEL 2
REMARK VINA RESULT:      -7.2      1.639      2.950
REMARK  6 active torsions:
REMARK  status: ('A' for Active; 'I' for Inactive)
REMARK    1  A    between atoms: C_2  and  N_3 
REMARK    2  A    between atoms: C_2  and  C_16 
REMARK    3  A    between atoms: N_3  and  C_6 
REMARK    4  A    between atoms: C_16  and  C_17 
REMARK       I    between atoms: C_17  and  N_18 
REMARK    5  A    between atoms: N_18  and  C_19 
REMARK    6  A    between atoms: C_22  and  O_23 
ROOT
HETATM    1  C   UNL     1      40.550 -14.213   2.703  1.00  0.00     0.040 C 
HETATM    2  C   UNL     1      41.934 -14.379   3.326  1.00  0.00     0.191 C 
ENDROOT
BRANCH   2   3
HETATM    3  N   UNL     1      42.420 -15.818   3.176  1.00  0.00    -0.063 N 
HETATM    4  H   UNL     1      41.603 -16.438   3.167  1.00  0.00     0.278 HD
HETATM    5  H   UNL     1      42.838 -15.904   2.240  1.00  0.00     0.278 HD
BRANCH   3   6
HETATM    6  C   UNL     1      43.444 -16.407   4.147  1.00  0.00     0.221 C 
HETATM    7  C   UNL     1      43.614 -17.909   4.043  1.00  0.00    -0.011 A 
HETATM    8  C   UNL     1      43.683 -18.737   5.179  1.00  0.00     0.009 A 
HETATM    9  C   UNL     1      43.765 -18.511   2.773  1.00  0.00     0.011 A 
HETATM   10  C   UNL     1      43.790 -20.126   5.027  1.00  0.00     0.019 A 
HETATM   11  S   UNL     1      43.653 -18.124   6.851  1.00  0.00    -0.129 SA
HETATM   12  C   UNL     1      43.879 -20.704   3.764  1.00  0.00     0.001 A 
HETATM   13  C   UNL     1      43.883 -19.895   2.636  1.00  0.00     0.001 A 
HETATM   14  C   UNL     1      44.138 -16.404   6.573  1.00  0.00     0.082 C 
HETATM   15  C   UNL     1      43.200 -15.810   5.539  1.00  0.00     0.048 C 
ENDBRANCH   3   6
ENDBRANCH   2   3
BRANCH   2  16
HETATM   16  C   UNL     1      42.967 -13.470   2.634  1.00  0.00     0.135 C 
BRANCH  16  17
HETATM   17  C   UNL     1      43.272 -12.267   3.504  1.00  0.00     0.224 C 
HETATM   18  N   UNL     1      43.347 -12.582   4.846  1.00  0.00    -0.327 N 
HETATM   19  H   UNL     1      43.059 -13.508   5.138  1.00  0.00     0.169 HD
HETATM   20  O   UNL     1      43.403 -11.161   2.993  1.00  0.00    -0.273 OA
BRANCH  18  21
HETATM   21  C   UNL     1      43.776 -11.735   5.890  1.00  0.00     0.034 A 
HETATM   22  C   UNL     1      42.921 -10.938   6.649  1.00  0.00     0.032 A 
HETATM   23  C   UNL     1      43.436 -10.096   7.641  1.00  0.00     0.039 A 
HETATM   24  C   UNL     1      44.806 -10.043   7.898  1.00  0.00     0.068 A 
HETATM   25  C   UNL     1      45.666 -10.835   7.141  1.00  0.00     0.039 A 
HETATM   26  C   UNL     1      45.153 -11.673   6.143  1.00  0.00     0.032 A 
BRANCH  24  27
HETATM   27  O   UNL     1      45.170  -9.179   8.891  1.00  0.00    -0.356 OA
HETATM   28  C   UNL     1      45.260  -9.708  10.208  1.00  0.00     0.210 C 
ENDBRANCH  24  27
ENDBRANCH  18  21
ENDBRANCH  16  17
ENDBRANCH   2  16
TORSDOF 6
ENDMDL
MODEL 3
REMARK VINA RESULT:      -7.1      2.959      5.010
REMARK  6 active torsions:
REMARK  status: ('A' for Active; 'I' for Inactive)
REMARK    1  A    between atoms: C_2  and  N_3 
REMARK    2  A    between atoms: C_2  and  C_16 
REMARK    3  A    between atoms: N_3  and  C_6 
REMARK    4  A    between atoms: C_16  and  C_17 
REMARK       I    between atoms: C_17  and  N_18 
REMARK    5  A    between atoms: N_18  and  C_19 
REMARK    6  A    between atoms: C_22  and  O_23 
ROOT
HETATM    1  C   UNL     1      42.221 -11.334   5.078  1.00  0.00     0.040 C 
HETATM    2  C   UNL     1      42.569 -12.032   6.389  1.00  0.00     0.191 C 
ENDROOT
BRANCH   2   3
HETATM    3  N   UNL     1      42.096 -13.483   6.366  1.00  0.00    -0.063 N 
HETATM    4  H   UNL     1      41.507 -13.647   7.189  1.00  0.00     0.278 HD
HETATM    5  H   UNL     1      41.468 -13.587   5.557  1.00  0.00     0.278 HD
BRANCH   3   6
HETATM    6  C   UNL     1      43.096 -14.636   6.269  1.00  0.00     0.221 C 
HETATM    7  C   UNL     1      43.100 -15.350   4.932  1.00  0.00    -0.011 A 
HETATM    8  C   UNL     1      43.134 -16.753   4.832  1.00  0.00     0.009 A 
HETATM    9  C   UNL     1      43.127 -14.598   3.736  1.00  0.00     0.011 A 
HETATM   10  C   UNL     1      43.085 -17.367   3.573  1.00  0.00     0.019 A 
HETATM   11  S   UNL     1      43.248 -17.842   6.238  1.00  0.00    -0.129 SA
HETATM   12  C   UNL     1      43.053 -16.607   2.407  1.00  0.00     0.001 A 
HETATM   13  C   UNL     1      43.090 -15.222   2.487  1.00  0.00     0.001 A 
HETATM   14  C   UNL     1      43.899 -16.699   7.479  1.00  0.00     0.082 C 
HETATM   15  C   UNL     1      42.982 -15.492   7.537  1.00  0.00     0.048 C 
ENDBRANCH   3   6
ENDBRANCH   2   3
BRANCH   2  16
HETATM   16  C   UNL     1      44.091 -12.049   6.623  1.00  0.00     0.135 C 
BRANCH  16  17
HETATM   17  C   UNL     1      44.445 -11.210   7.835  1.00  0.00     0.224 C 
HETATM   18  N   UNL     1      43.347 -10.585   8.392  1.00  0.00    -0.327 N 
HETATM   19  H   UNL     1      42.470 -10.614   7.886  1.00  0.00     0.169 HD
HETATM   20  O   UNL     1      45.611 -11.130   8.203  1.00  0.00    -0.273 OA
BRANCH  18  21
HETATM   21  C   UNL     1      43.307  -9.877   9.612  1.00  0.00     0.034 A 
HETATM   22  C   UNL     1      43.189  -8.491   9.706  1.00  0.00     0.032 A 
HETATM   23  C   UNL     1      43.196  -7.866  10.958  1.00  0.00     0.039 A 
HETATM   24  C   UNL     1      43.312  -8.611  12.132  1.00  0.00     0.068 A 
HETATM   25  C   UNL     1      43.433  -9.995  12.044  1.00  0.00     0.039 A 
HETATM   26  C   UNL     1      43.433 -10.623  10.792  1.00  0.00     0.032 A 
BRANCH  24  27
HETATM   27  O   UNL     1      43.306  -7.873  13.282  1.00  0.00    -0.356 OA
HETATM   28  C   UNL     1      42.247  -8.114  14.200  1.00  0.00     0.210 C 
ENDBRANCH  24  27
ENDBRANCH  18  21
ENDBRANCH  16  17
ENDBRANCH   2  16
TORSDOF 6
ENDMDL
MODEL 4
REMARK VINA RESULT:      -7.1      2.677      5.965
REMARK  6 active torsions:
REMARK  status: ('A' for Active; 'I' for Inactive)
REMARK    1  A    between atoms: C_2  and  N_3 
REMARK    2  A    between atoms: C_2  and  C_16 
REMARK    3  A    between atoms: N_3  and  C_6 
REMARK    4  A    between atoms: C_16  and  C_17 
REMARK       I    between atoms: C_17  and  N_18 
REMARK    5  A    between atoms: N_18  and  C_19 
REMARK    6  A    between atoms: C_22  and  O_23 
ROOT
HETATM    1  C   UNL     1      40.254 -15.505   6.159  1.00  0.00     0.040 C 
HETATM    2  C   UNL     1      40.714 -14.063   6.353  1.00  0.00     0.191 C 
ENDROOT
BRANCH   2   3
HETATM    3  N   UNL     1      42.088 -13.849   5.725  1.00  0.00    -0.063 N 
HETATM    4  H   UNL     1      41.960 -13.573   4.746  1.00  0.00     0.278 HD
HETATM    5  H   UNL     1      42.511 -13.032   6.185  1.00  0.00     0.278 HD
BRANCH   3   6
HETATM    6  C   UNL     1      43.152 -14.948   5.766  1.00  0.00     0.221 C 
HETATM    7  C   UNL     1      43.204 -15.815   4.524  1.00  0.00    -0.011 A 
HETATM    8  C   UNL     1      43.315 -17.216   4.592  1.00  0.00     0.009 A 
HETATM    9  C   UNL     1      43.197 -15.210   3.246  1.00  0.00     0.011 A 
HETATM   10  C   UNL     1      43.310 -17.977   3.414  1.00  0.00     0.019 A 
HETATM   11  S   UNL     1      43.480 -18.121   6.118  1.00  0.00    -0.129 SA
HETATM   12  C   UNL     1      43.243 -17.364   2.166  1.00  0.00     0.001 A 
HETATM   13  C   UNL     1      43.203 -15.979   2.081  1.00  0.00     0.001 A 
HETATM   14  C   UNL     1      44.059 -16.805   7.213  1.00  0.00     0.082 C 
HETATM   15  C   UNL     1      43.077 -15.652   7.127  1.00  0.00     0.048 C 
ENDBRANCH   3   6
ENDBRANCH   2   3
BRANCH   2  16
HETATM   16  C   UNL     1      39.743 -13.075   5.682  1.00  0.00     0.135 C 
BRANCH  16  17
HETATM   17  C   UNL     1      40.166 -12.816   4.249  1.00  0.00     0.224 C 
HETATM   18  N   UNL     1      39.555 -13.666   3.349  1.00  0.00    -0.327 N 
HETATM   19  H   UNL     1      39.022 -14.447   3.713  1.00  0.00     0.169 HD
HETATM   20  O   UNL     1      40.985 -11.939   4.002  1.00  0.00    -0.273 OA
BRANCH  18  21
HETATM   21  C   UNL     1      39.602 -13.581   1.941  1.00  0.00     0.034 A 
HETATM   22  C   UNL     1      39.228 -12.451   1.216  1.00  0.00     0.032 A 
HETATM   23  C   UNL     1      39.269 -12.465  -0.183  1.00  0.00     0.039 A 
HETATM   24  C   UNL     1      39.689 -13.600  -0.878  1.00  0.00     0.068 A 
HETATM   25  C   UNL     1      40.061 -14.733  -0.159  1.00  0.00     0.039 A 
HETATM   26  C   UNL     1      40.015 -14.723   1.242  1.00  0.00     0.032 A 
BRANCH  24  27
HETATM   27  O   UNL     1      39.678 -13.476  -2.238  1.00  0.00    -0.356 OA
HETATM   28  C   UNL     1      40.723 -12.713  -2.827  1.00  0.00     0.210 C 
ENDBRANCH  24  27
ENDBRANCH  18  21
ENDBRANCH  16  17
ENDBRANCH   2  16
TORSDOF 6
ENDMDL
MODEL 5
REMARK VINA RESULT:      -6.9      3.526      7.033
REMARK  6 active torsions:
REMARK  status: ('A' for Active; 'I' for Inactive)
REMARK    1  A    between atoms: C_2  and  N_3 
REMARK    2  A    between atoms: C_2  and  C_16 
REMARK    3  A    between atoms: N_3  and  C_6 
REMARK    4  A    between atoms: C_16  and  C_17 
REMARK       I    between atoms: C_17  and  N_18 
REMARK    5  A    between atoms: N_18  and  C_19 
REMARK    6  A    between atoms: C_22  and  O_23 
ROOT
HETATM    1  C   UNL     1      41.950 -13.448   2.870  1.00  0.00     0.040 C 
HETATM    2  C   UNL     1      42.727 -14.741   2.636  1.00  0.00     0.191 C 
ENDROOT
BRANCH   2   3
HETATM    3  N   UNL     1      42.323 -15.801   3.657  1.00  0.00    -0.063 N 
HETATM    4  H   UNL     1      41.602 -15.406   4.269  1.00  0.00     0.278 HD
HETATM    5  H   UNL     1      41.857 -16.560   3.141  1.00  0.00     0.278 HD
BRANCH   3   6
HETATM    6  C   UNL     1      43.370 -16.480   4.542  1.00  0.00     0.221 C 
HETATM    7  C   UNL     1      43.572 -17.954   4.255  1.00  0.00    -0.011 A 
HETATM    8  C   UNL     1      43.670 -18.911   5.282  1.00  0.00     0.009 A 
HETATM    9  C   UNL     1      43.726 -18.393   2.921  1.00  0.00     0.011 A 
HETATM   10  C   UNL     1      43.807 -20.269   4.962  1.00  0.00     0.019 A 
HETATM   11  S   UNL     1      43.642 -18.506   7.017  1.00  0.00    -0.129 SA
HETATM   12  C   UNL     1      43.898 -20.688   3.637  1.00  0.00     0.001 A 
HETATM   13  C   UNL     1      43.873 -19.748   2.616  1.00  0.00     0.001 A 
HETATM   14  C   UNL     1      44.085 -16.755   6.946  1.00  0.00     0.082 C 
HETATM   15  C   UNL     1      43.125 -16.062   5.998  1.00  0.00     0.048 C 
ENDBRANCH   3   6
ENDBRANCH   2   3
BRANCH   2  16
HETATM   16  C   UNL     1      42.440 -15.316   1.237  1.00  0.00     0.135 C 
BRANCH  16  17
HETATM   17  C   UNL     1      41.017 -14.996   0.821  1.00  0.00     0.224 C 
HETATM   18  N   UNL     1      40.956 -14.107  -0.233  1.00  0.00    -0.327 N 
HETATM   19  H   UNL     1      41.811 -13.650  -0.526  1.00  0.00     0.169 HD
HETATM   20  O   UNL     1      40.076 -15.499   1.423  1.00  0.00    -0.273 OA
BRANCH  18  21
HETATM   21  C   UNL     1      39.804 -13.737  -0.961  1.00  0.00     0.034 A 
HETATM   22  C   UNL     1      39.220 -14.526  -1.950  1.00  0.00     0.032 A 
HETATM   23  C   UNL     1      38.100 -14.065  -2.650  1.00  0.00     0.039 A 
HETATM   24  C   UNL     1      37.541 -12.818  -2.370  1.00  0.00     0.068 A 
HETATM   25  C   UNL     1      38.121 -12.024  -1.385  1.00  0.00     0.039 A 
HETATM   26  C   UNL     1      39.247 -12.481  -0.687  1.00  0.00     0.032 A 
BRANCH  24  27
HETATM   27  O   UNL     1      36.452 -12.494  -3.129  1.00  0.00    -0.356 OA
HETATM   28  C   UNL     1      35.988 -11.152  -3.055  1.00  0.00     0.210 C 
ENDBRANCH  24  27
ENDBRANCH  18  21
ENDBRANCH  16  17
ENDBRANCH   2  16
TORSDOF 6
ENDMDL
MODEL 6
REMARK VINA RESULT:      -6.9      4.139      6.717
REMARK  6 active torsions:
REMARK  status: ('A' for Active; 'I' for Inactive)
REMARK    1  A    between atoms: C_2  and  N_3 
REMARK    2  A    between atoms: C_2  and  C_16 
REMARK    3  A    between atoms: N_3  and  C_6 
REMARK    4  A    between atoms: C_16  and  C_17 
REMARK       I    between atoms: C_17  and  N_18 
REMARK    5  A    between atoms: N_18  and  C_19 
REMARK    6  A    between atoms: C_22  and  O_23 
ROOT
HETATM    1  C   UNL     1      39.823 -16.042   1.509  1.00  0.00     0.040 C 
HETATM    2  C   UNL     1      40.445 -14.805   0.868  1.00  0.00     0.191 C 
ENDROOT
BRANCH   2   3
HETATM    3  N   UNL     1      41.958 -14.963   0.756  1.00  0.00    -0.063 N 
HETATM    4  H   UNL     1      42.165 -15.921   0.453  1.00  0.00     0.278 HD
HETATM    5  H   UNL     1      42.273 -14.359  -0.016  1.00  0.00     0.278 HD
BRANCH   3   6
HETATM    6  C   UNL     1      42.873 -14.639   1.938  1.00  0.00     0.221 C 
HETATM    7  C   UNL     1      43.161 -15.816   2.848  1.00  0.00    -0.011 A 
HETATM    8  C   UNL     1      43.125 -15.706   4.251  1.00  0.00     0.009 A 
HETATM    9  C   UNL     1      43.533 -17.060   2.289  1.00  0.00     0.011 A 
HETATM   10  C   UNL     1      43.350 -16.837   5.048  1.00  0.00     0.019 A 
HETATM   11  S   UNL     1      42.814 -14.179   5.115  1.00  0.00    -0.129 SA
HETATM   12  C   UNL     1      43.658 -18.068   4.474  1.00  0.00     0.001 A 
HETATM   13  C   UNL     1      43.766 -18.175   3.094  1.00  0.00     0.001 A 
HETATM   14  C   UNL     1      43.211 -12.987   3.815  1.00  0.00     0.082 C 
HETATM   15  C   UNL     1      42.392 -13.335   2.587  1.00  0.00     0.048 C 
ENDBRANCH   3   6
ENDBRANCH   2   3
BRANCH   2  16
HETATM   16  C   UNL     1      39.899 -14.583  -0.555  1.00  0.00     0.135 C 
BRANCH  16  17
HETATM   17  C   UNL     1      39.796 -13.100  -0.852  1.00  0.00     0.224 C 
HETATM   18  N   UNL     1      40.974 -12.568  -1.336  1.00  0.00    -0.327 N 
HETATM   19  H   UNL     1      41.807 -13.144  -1.311  1.00  0.00     0.169 HD
HETATM   20  O   UNL     1      38.746 -12.505  -0.636  1.00  0.00    -0.273 OA
BRANCH  18  21
HETATM   21  C   UNL     1      41.163 -11.272  -1.861  1.00  0.00     0.034 A 
HETATM   22  C   UNL     1      41.718 -10.213  -1.145  1.00  0.00     0.032 A 
HETATM   23  C   UNL     1      41.833  -8.948  -1.731  1.00  0.00     0.039 A 
HETATM   24  C   UNL     1      41.405  -8.721  -3.039  1.00  0.00     0.068 A 
HETATM   25  C   UNL     1      40.847  -9.774  -3.759  1.00  0.00     0.039 A 
HETATM   26  C   UNL     1      40.725 -11.040  -3.172  1.00  0.00     0.032 A 
BRANCH  24  27
HETATM   27  O   UNL     1      41.575  -7.441  -3.485  1.00  0.00    -0.356 OA
HETATM   28  C   UNL     1      42.749  -7.170  -4.241  1.00  0.00     0.210 C 
ENDBRANCH  24  27
ENDBRANCH  18  21
ENDBRANCH  16  17
ENDBRANCH   2  16
TORSDOF 6
ENDMDL
MODEL 7
REMARK VINA RESULT:      -6.9      2.516      6.570
REMARK  6 active torsions:
REMARK  status: ('A' for Active; 'I' for Inactive)
REMARK    1  A    between atoms: C_2  and  N_3 
REMARK    2  A    between atoms: C_2  and  C_16 
REMARK    3  A    between atoms: N_3  and  C_6 
REMARK    4  A    between atoms: C_16  and  C_17 
REMARK       I    between atoms: C_17  and  N_18 
REMARK    5  A    between atoms: N_18  and  C_19 
REMARK    6  A    between atoms: C_22  and  O_23 
ROOT
HETATM    1  C   UNL     1      43.484 -11.266   4.947  1.00  0.00     0.040 C 
HETATM    2  C   UNL     1      42.540 -12.001   3.999  1.00  0.00     0.191 C 
ENDROOT
BRANCH   2   3
HETATM    3  N   UNL     1      42.055 -13.304   4.629  1.00  0.00    -0.063 N 
HETATM    4  H   UNL     1      41.506 -13.078   5.465  1.00  0.00     0.278 HD
HETATM    5  H   UNL     1      41.388 -13.732   3.973  1.00  0.00     0.278 HD
BRANCH   3   6
HETATM    6  C   UNL     1      43.041 -14.412   5.003  1.00  0.00     0.221 C 
HETATM    7  C   UNL     1      43.111 -15.551   4.006  1.00  0.00    -0.011 A 
HETATM    8  C   UNL     1      43.128 -16.899   4.408  1.00  0.00     0.009 A 
HETATM    9  C   UNL     1      43.218 -15.268   2.625  1.00  0.00     0.011 A 
HETATM   10  C   UNL     1      43.143 -17.917   3.444  1.00  0.00     0.019 A 
HETATM   11  S   UNL     1      43.145 -17.423   6.111  1.00  0.00    -0.129 SA
HETATM   12  C   UNL     1      43.190 -17.617   2.086  1.00  0.00     0.001 A 
HETATM   13  C   UNL     1      43.243 -16.291   1.676  1.00  0.00     0.001 A 
HETATM   14  C   UNL     1      43.741 -15.913   6.907  1.00  0.00     0.082 C 
HETATM   15  C   UNL     1      42.842 -14.767   6.482  1.00  0.00     0.048 C 
ENDBRANCH   3   6
ENDBRANCH   2   3
BRANCH   2  16
HETATM   16  C   UNL     1      41.295 -11.151   3.686  1.00  0.00     0.135 C 
BRANCH  16  17
HETATM   17  C   UNL     1      40.342 -11.925   2.795  1.00  0.00     0.224 C 
HETATM   18  N   UNL     1      40.795 -12.035   1.496  1.00  0.00    -0.327 N 
HETATM   19  H   UNL     1      41.605 -11.493   1.223  1.00  0.00     0.169 HD
HETATM   20  O   UNL     1      39.290 -12.354   3.254  1.00  0.00    -0.273 OA
BRANCH  18  21
HETATM   21  C   UNL     1      40.234 -12.827   0.470  1.00  0.00     0.034 A 
HETATM   22  C   UNL     1      39.469 -12.317  -0.577  1.00  0.00     0.032 A 
HETATM   23  C   UNL     1      38.918 -13.179  -1.532  1.00  0.00     0.039 A 
HETATM   24  C   UNL     1      39.127 -14.556  -1.462  1.00  0.00     0.068 A 
HETATM   25  C   UNL     1      39.889 -15.071  -0.416  1.00  0.00     0.039 A 
HETATM   26  C   UNL     1      40.436 -14.211   0.544  1.00  0.00     0.032 A 
BRANCH  24  27
HETATM   27  O   UNL     1      38.531 -15.278  -2.457  1.00  0.00    -0.356 OA
HETATM   28  C   UNL     1      38.237 -14.592  -3.667  1.00  0.00     0.210 C 
ENDBRANCH  24  27
ENDBRANCH  18  21
ENDBRANCH  16  17
ENDBRANCH   2  16
TORSDOF 6
ENDMDL
MODEL 8
REMARK VINA RESULT:      -6.9      3.464      7.082
REMARK  6 active torsions:
REMARK  status: ('A' for Active; 'I' for Inactive)
REMARK    1  A    between atoms: C_2  and  N_3 
REMARK    2  A    between atoms: C_2  and  C_16 
REMARK    3  A    between atoms: N_3  and  C_6 
REMARK    4  A    between atoms: C_16  and  C_17 
REMARK       I    between atoms: C_17  and  N_18 
REMARK    5  A    between atoms: N_18  and  C_19 
REMARK    6  A    between atoms: C_22  and  O_23 
ROOT
HETATM    1  C   UNL     1      39.479 -11.530   6.440  1.00  0.00     0.040 C 
HETATM    2  C   UNL     1      39.967 -12.549   5.414  1.00  0.00     0.191 C 
ENDROOT
BRANCH   2   3
HETATM    3  N   UNL     1      40.198 -11.881   4.062  1.00  0.00    -0.063 N 
HETATM    4  H   UNL     1      40.474 -10.907   4.223  1.00  0.00     0.278 HD
HETATM    5  H   UNL     1      41.019 -12.330   3.635  1.00  0.00     0.278 HD
BRANCH   3   6
HETATM    6  C   UNL     1      39.112 -11.888   2.985  1.00  0.00     0.221 C 
HETATM    7  C   UNL     1      39.387 -12.823   1.825  1.00  0.00    -0.011 A 
HETATM    8  C   UNL     1      39.182 -12.438   0.487  1.00  0.00     0.009 A 
HETATM    9  C   UNL     1      39.812 -14.147   2.077  1.00  0.00     0.011 A 
HETATM   10  C   UNL     1      39.499 -13.323  -0.553  1.00  0.00     0.019 A 
HETATM   11  S   UNL     1      38.516 -10.857   0.004  1.00  0.00    -0.129 SA
HETATM   12  C   UNL     1      39.972 -14.604  -0.284  1.00  0.00     0.001 A 
HETATM   13  C   UNL     1      40.113 -15.023   1.032  1.00  0.00     0.001 A 
HETATM   14  C   UNL     1      37.709 -10.364   1.545  1.00  0.00     0.082 C 
HETATM   15  C   UNL     1      38.734 -10.437   2.660  1.00  0.00     0.048 C 
ENDBRANCH   3   6
ENDBRANCH   2   3
BRANCH   2  16
HETATM   16  C   UNL     1      41.302 -13.180   5.850  1.00  0.00     0.135 C 
BRANCH  16  17
HETATM   17  C   UNL     1      41.406 -14.601   5.332  1.00  0.00     0.224 C 
HETATM   18  N   UNL     1      42.509 -14.797   4.526  1.00  0.00    -0.327 N 
HETATM   19  H   UNL     1      43.045 -13.987   4.240  1.00  0.00     0.169 HD
HETATM   20  O   UNL     1      40.546 -15.423   5.626  1.00  0.00    -0.273 OA
BRANCH  18  21
HETATM   21  C   UNL     1      42.982 -16.031   4.027  1.00  0.00     0.034 A 
HETATM   22  C   UNL     1      42.728 -16.499   2.739  1.00  0.00     0.032 A 
HETATM   23  C   UNL     1      43.203 -17.753   2.339  1.00  0.00     0.039 A 
HETATM   24  C   UNL     1      43.944 -18.552   3.209  1.00  0.00     0.068 A 
HETATM   25  C   UNL     1      44.199 -18.090   4.498  1.00  0.00     0.039 A 
HETATM   26  C   UNL     1      43.718 -16.838   4.904  1.00  0.00     0.032 A 
BRANCH  24  27
HETATM   27  O   UNL     1      44.343 -19.750   2.689  1.00  0.00    -0.356 OA
HETATM   28  C   UNL     1      43.409 -20.444   1.872  1.00  0.00     0.210 C 
ENDBRANCH  24  27
ENDBRANCH  18  21
ENDBRANCH  16  17
ENDBRANCH   2  16
TORSDOF 6
ENDMDL
MODEL 9
REMARK VINA RESULT:      -6.5      2.063      3.259
REMARK  6 active torsions:
REMARK  status: ('A' for Active; 'I' for Inactive)
REMARK    1  A    between atoms: C_2  and  N_3 
REMARK    2  A    between atoms: C_2  and  C_16 
REMARK    3  A    between atoms: N_3  and  C_6 
REMARK    4  A    between atoms: C_16  and  C_17 
REMARK       I    between atoms: C_17  and  N_18 
REMARK    5  A    between atoms: N_18  and  C_19 
REMARK    6  A    between atoms: C_22  and  O_23 
ROOT
HETATM    1  C   UNL     1      41.743 -13.019   2.605  1.00  0.00     0.040 C 
HETATM    2  C   UNL     1      40.509 -13.748   3.132  1.00  0.00     0.191 C 
ENDROOT
BRANCH   2   3
HETATM    3  N   UNL     1      40.896 -14.726   4.237  1.00  0.00    -0.063 N 
HETATM    4  H   UNL     1      40.415 -14.450   5.100  1.00  0.00     0.278 HD
HETATM    5  H   UNL     1      40.502 -15.643   3.987  1.00  0.00     0.278 HD
BRANCH   3   6
HETATM    6  C   UNL     1      42.364 -14.983   4.582  1.00  0.00     0.221 C 
HETATM    7  C   UNL     1      42.900 -16.311   4.088  1.00  0.00    -0.011 A 
HETATM    8  C   UNL     1      43.696 -17.145   4.895  1.00  0.00     0.009 A 
HETATM    9  C   UNL     1      42.649 -16.717   2.758  1.00  0.00     0.011 A 
HETATM   10  C   UNL     1      44.126 -18.388   4.408  1.00  0.00     0.019 A 
HETATM   11  S   UNL     1      44.223 -16.717   6.542  1.00  0.00    -0.129 SA
HETATM   12  C   UNL     1      43.818 -18.795   3.113  1.00  0.00     0.001 A 
HETATM   13  C   UNL     1      43.092 -17.952   2.281  1.00  0.00     0.001 A 
HETATM   14  C   UNL     1      44.014 -14.922   6.491  1.00  0.00     0.082 C 
HETATM   15  C   UNL     1      42.591 -14.624   6.057  1.00  0.00     0.048 C 
ENDBRANCH   3   6
ENDBRANCH   2   3
BRANCH   2  16
HETATM   16  C   UNL     1      39.492 -12.758   3.728  1.00  0.00     0.135 C 
BRANCH  16  17
HETATM   17  C   UNL     1      39.890 -12.385   5.142  1.00  0.00     0.224 C 
HETATM   18  N   UNL     1      40.826 -11.371   5.184  1.00  0.00    -0.327 N 
HETATM   19  H   UNL     1      41.258 -11.081   4.315  1.00  0.00     0.169 HD
HETATM   20  O   UNL     1      39.402 -12.984   6.094  1.00  0.00    -0.273 OA
BRANCH  18  21
HETATM   21  C   UNL     1      41.277 -10.683   6.332  1.00  0.00     0.034 A 
HETATM   22  C   UNL     1      40.477  -9.835   7.096  1.00  0.00     0.032 A 
HETATM   23  C   UNL     1      41.015  -9.161   8.198  1.00  0.00     0.039 A 
HETATM   24  C   UNL     1      42.352  -9.329   8.559  1.00  0.00     0.068 A 
HETATM   25  C   UNL     1      43.157 -10.173   7.798  1.00  0.00     0.039 A 
HETATM   26  C   UNL     1      42.622 -10.844   6.690  1.00  0.00     0.032 A 
BRANCH  24  27
HETATM   27  O   UNL     1      42.745  -8.611   9.653  1.00  0.00    -0.356 OA
HETATM   28  C   UNL     1      43.402  -7.373   9.413  1.00  0.00     0.210 C 
ENDBRANCH  24  27
ENDBRANCH  18  21
ENDBRANCH  16  17
ENDBRANCH   2  16
TORSDOF 6
ENDMDL
MODEL 10
REMARK VINA RESULT:      -6.4      2.525      4.142
REMARK  6 active torsions:
REMARK  status: ('A' for Active; 'I' for Inactive)
REMARK    1  A    between atoms: C_2  and  N_3 
REMARK    2  A    between atoms: C_2  and  C_16 
REMARK    3  A    between atoms: N_3  and  C_6 
REMARK    4  A    between atoms: C_16  and  C_17 
REMARK       I    between atoms: C_17  and  N_18 
REMARK    5  A    between atoms: N_18  and  C_19 
REMARK    6  A    between atoms: C_22  and  O_23 
ROOT
HETATM    1  C   UNL     1      44.166 -11.549   4.005  1.00  0.00     0.040 C 
HETATM    2  C   UNL     1      42.659 -11.568   3.761  1.00  0.00     0.191 C 
ENDROOT
BRANCH   2   3
HETATM    3  N   UNL     1      42.032 -12.816   4.373  1.00  0.00    -0.063 N 
HETATM    4  H   UNL     1      41.415 -12.529   5.141  1.00  0.00     0.278 HD
HETATM    5  H   UNL     1      41.410 -13.226   3.663  1.00  0.00     0.278 HD
BRANCH   3   6
HETATM    6  C   UNL     1      42.902 -13.967   4.879  1.00  0.00     0.221 C 
HETATM    7  C   UNL     1      42.987 -15.150   3.935  1.00  0.00    -0.011 A 
HETATM    8  C   UNL     1      42.876 -16.479   4.387  1.00  0.00     0.009 A 
HETATM    9  C   UNL     1      43.239 -14.935   2.562  1.00  0.00     0.011 A 
HETATM   10  C   UNL     1      42.911 -17.536   3.467  1.00  0.00     0.019 A 
HETATM   11  S   UNL     1      42.701 -16.928   6.102  1.00  0.00    -0.129 SA
HETATM   12  C   UNL     1      43.103 -17.298   2.109  1.00  0.00     0.001 A 
HETATM   13  C   UNL     1      43.283 -15.997   1.658  1.00  0.00     0.001 A 
HETATM   14  C   UNL     1      43.322 -15.427   6.894  1.00  0.00     0.082 C 
HETATM   15  C   UNL     1      42.544 -14.246   6.344  1.00  0.00     0.048 C 
ENDBRANCH   3   6
ENDBRANCH   2   3
BRANCH   2  16
HETATM   16  C   UNL     1      41.977 -10.347   4.405  1.00  0.00     0.135 C 
BRANCH  16  17
HETATM   17  C   UNL     1      41.811 -10.565   5.896  1.00  0.00     0.224 C 
HETATM   18  N   UNL     1      42.841 -10.017   6.634  1.00  0.00    -0.327 N 
HETATM   19  H   UNL     1      43.652  -9.667   6.140  1.00  0.00     0.169 HD
HETATM   20  O   UNL     1      40.847 -11.192   6.319  1.00  0.00    -0.273 OA
BRANCH  18  21
HETATM   21  C   UNL     1      42.903  -9.899   8.040  1.00  0.00     0.034 A 
HETATM   22  C   UNL     1      42.014  -9.138   8.798  1.00  0.00     0.032 A 
HETATM   23  C   UNL     1      42.172  -9.045  10.186  1.00  0.00     0.039 A 
HETATM   24  C   UNL     1      43.208  -9.713  10.837  1.00  0.00     0.068 A 
HETATM   25  C   UNL     1      44.101 -10.473  10.085  1.00  0.00     0.039 A 
HETATM   26  C   UNL     1      43.949 -10.562   8.695  1.00  0.00     0.032 A 
BRANCH  24  27
HETATM   27  O   UNL     1      43.245  -9.534  12.191  1.00  0.00    -0.356 OA
HETATM   28  C   UNL     1      43.208  -8.195  12.667  1.00  0.00     0.210 C 
ENDBRANCH  24  27
ENDBRANCH  18  21
ENDBRANCH  16  17
ENDBRANCH   2  16
TORSDOF 6
ENDMDL
