MODEL 1
REMARK VINA RESULT:      -8.9      0.000      0.000
REMARK  9 active torsions:
REMARK  status: ('A' for Active; 'I' for Inactive)
REMARK    1  A    between atoms: C_2  and  C_3 
REMARK    2  A    between atoms: C_3  and  C_4 
REMARK    3  A    between atoms: C_4  and  O_5 
REMARK    4  A    between atoms: O_5  and  C_6 
REMARK    5  A    between atoms: C_8  and  C_9 
REMARK       I    between atoms: C_9  and  N_10 
REMARK    6  A    between atoms: N_10  and  C_11 
REMARK    7  A    between atoms: N_12  and  C_13 
REMARK    8  A    between atoms: C_15  and  C_16 
REMARK    9  A    between atoms: C_25  and  O_26 
ROOT
HETATM    1  C   UNL     1      40.976 -10.497   5.023  1.00  0.00     0.179 C 
HETATM    2  N   UNL     1      41.350  -9.715   6.059  1.00  0.00    -0.333 N 
HETATM    3  S   UNL     1      40.308  -9.760   3.673  1.00  0.00    -0.040 SA
HETATM    4  H   UNL     1      40.928  -8.792   6.023  1.00  0.00     0.168 HD
ENDROOT
BRANCH   2   5
HETATM    5  C   UNL     1      42.325  -9.875   7.066  1.00  0.00     0.035 A 
HETATM    6  C   UNL     1      42.109  -9.597   8.415  1.00  0.00     0.048 A 
HETATM    7  C   UNL     1      43.139  -9.723   9.364  1.00  0.00     0.053 A 
HETATM    8  C   UNL     1      44.378 -10.238   8.943  1.00  0.00     0.086 A 
HETATM    9  C   UNL     1      44.597 -10.593   7.606  1.00  0.00    -0.026 A 
HETATM   10  C   UNL     1      45.898 -11.199   7.163  1.00  0.00     0.051 C 
HETATM   11  C   UNL     1      43.561 -10.407   6.679  1.00  0.00     0.039 A 
BRANCH   7  12
HETATM   12  C   UNL     1      42.934  -9.293  10.744  1.00  0.00     0.183 A 
HETATM   13  O   UNL     1      41.877  -9.843  11.424  1.00  0.00    -0.289 OA
HETATM   14  C   UNL     1      41.887  -9.198  12.625  1.00  0.00     0.106 A 
HETATM   15  C   UNL     1      42.947  -8.306  12.619  1.00  0.00     0.093 A 
HETATM   16  C   UNL     1      41.003  -9.372  13.682  1.00  0.00     0.040 A 
HETATM   17  N   UNL     1      43.620  -8.387  11.425  1.00  0.00    -0.221 NA
HETATM   18  C   UNL     1      43.161  -7.501  13.744  1.00  0.00     0.034 A 
HETATM   19  C   UNL     1      42.286  -7.640  14.833  1.00  0.00     0.002 A 
HETATM   20  C   UNL     1      41.230  -8.561  14.800  1.00  0.00     0.003 A 
ENDBRANCH   7  12
BRANCH   8  21
HETATM   21  O   UNL     1      45.422 -10.420   9.818  1.00  0.00    -0.359 OA
HETATM   22  H   UNL     1      46.164 -10.843   9.338  1.00  0.00     0.218 HD
ENDBRANCH   8  21
ENDBRANCH   2   5
BRANCH   1  23
HETATM   23  N   UNL     1      41.108 -11.851   5.004  1.00  0.00    -0.299 N 
HETATM   24  C   UNL     1      40.273 -12.842   5.513  1.00  0.00     0.257 C 
HETATM   25  O   UNL     1      39.101 -12.677   5.826  1.00  0.00    -0.267 OA
HETATM   26  H   UNL     1      41.757 -12.166   4.294  1.00  0.00     0.171 HD
BRANCH  24  27
HETATM   27  C   UNL     1      40.886 -14.203   5.583  1.00  0.00     0.035 A 
HETATM   28  C   UNL     1      41.903 -14.539   4.681  1.00  0.00     0.053 A 
HETATM   29  C   UNL     1      42.477 -15.814   4.693  1.00  0.00     0.069 A 
HETATM   30  C   UNL     1      42.029 -16.759   5.619  1.00  0.00     0.037 A 
HETATM   31  C   UNL     1      41.005 -16.438   6.513  1.00  0.00     0.004 A 
HETATM   32  C   UNL     1      40.428 -15.169   6.491  1.00  0.00     0.017 A 
BRANCH  29  33
HETATM   33  O   UNL     1      43.457 -16.015   3.760  1.00  0.00    -0.351 OA
BRANCH  33  34
HETATM   34  C   UNL     1      43.039 -16.199   2.408  1.00  0.00     0.175 C 
BRANCH  34  35
HETATM   35  C   UNL     1      42.565 -17.639   2.217  1.00  0.00     0.026 C 
BRANCH  35  36
HETATM   36  C   UNL     1      43.592 -18.660   2.708  1.00  0.00    -0.002 C 
HETATM   37  C   UNL     1      43.370 -20.021   2.067  1.00  0.00     0.005 C 
ENDBRANCH  35  36
ENDBRANCH  34  35
ENDBRANCH  33  34
ENDBRANCH  29  33
ENDBRANCH  24  27
ENDBRANCH   1  23
TORSDOF 9
ENDMDL
MODEL 2
REMARK VINA RESULT:      -8.8      2.456      9.679
REMARK  9 active torsions:
REMARK  status: ('A' for Active; 'I' for Inactive)
REMARK    1  A    between atoms: C_2  and  C_3 
REMARK    2  A    between atoms: C_3  and  C_4 
REMARK    3  A    between atoms: C_4  and  O_5 
REMARK    4  A    between atoms: O_5  and  C_6 
REMARK    5  A    between atoms: C_8  and  C_9 
REMARK       I    between atoms: C_9  and  N_10 
REMARK    6  A    between atoms: N_10  and  C_11 
REMARK    7  A    between atoms: N_12  and  C_13 
REMARK    8  A    between atoms: C_15  and  C_16 
REMARK    9  A    between atoms: C_25  and  O_26 
ROOT
HETATM    1  C   UNL     1      40.183 -11.231   5.671  1.00  0.00     0.179 C 
HETATM    2  N   UNL     1      39.609 -11.576   4.497  1.00  0.00    -0.333 N 
HETATM    3  S   UNL     1      39.184 -10.810   6.950  1.00  0.00    -0.040 SA
HETATM    4  H   UNL     1      38.643 -11.273   4.432  1.00  0.00     0.168 HD
ENDROOT
BRANCH   2   5
HETATM    5  C   UNL     1      40.036 -12.406   3.440  1.00  0.00     0.035 A 
HETATM    6  C   UNL     1      40.568 -13.684   3.614  1.00  0.00     0.048 A 
HETATM    7  C   UNL     1      41.028 -14.442   2.523  1.00  0.00     0.053 A 
HETATM    8  C   UNL     1      40.849 -13.927   1.227  1.00  0.00     0.086 A 
HETATM    9  C   UNL     1      40.251 -12.678   1.021  1.00  0.00    -0.026 A 
HETATM   10  C   UNL     1      40.003 -12.150  -0.363  1.00  0.00     0.051 C 
HETATM   11  C   UNL     1      39.849 -11.928   2.137  1.00  0.00     0.039 A 
BRANCH   7  12
HETATM   12  C   UNL     1      41.709 -15.715   2.738  1.00  0.00     0.183 A 
HETATM   13  O   UNL     1      42.505 -15.824   3.851  1.00  0.00    -0.289 OA
HETATM   14  C   UNL     1      43.063 -17.062   3.735  1.00  0.00     0.106 A 
HETATM   15  C   UNL     1      42.576 -17.642   2.575  1.00  0.00     0.093 A 
HETATM   16  C   UNL     1      43.971 -17.661   4.600  1.00  0.00     0.040 A 
HETATM   17  N   UNL     1      41.699 -16.785   1.957  1.00  0.00    -0.221 NA
HETATM   18  C   UNL     1      43.019 -18.921   2.220  1.00  0.00     0.034 A 
HETATM   19  C   UNL     1      43.942 -19.560   3.063  1.00  0.00     0.002 A 
HETATM   20  C   UNL     1      44.404 -18.940   4.232  1.00  0.00     0.003 A 
ENDBRANCH   7  12
BRANCH   8  21
HETATM   21  O   UNL     1      41.244 -14.624   0.110  1.00  0.00    -0.359 OA
HETATM   22  H   UNL     1      41.760 -15.407   0.395  1.00  0.00     0.218 HD
ENDBRANCH   8  21
ENDBRANCH   2   5
BRANCH   1  23
HETATM   23  N   UNL     1      41.527 -11.203   5.883  1.00  0.00    -0.299 N 
HETATM   24  C   UNL     1      42.382 -12.194   6.358  1.00  0.00     0.257 C 
HETATM   25  O   UNL     1      42.114 -13.388   6.401  1.00  0.00    -0.267 OA
HETATM   26  H   UNL     1      41.983 -10.458   5.374  1.00  0.00     0.171 HD
BRANCH  24  27
HETATM   27  C   UNL     1      43.740 -11.713   6.754  1.00  0.00     0.035 A 
HETATM   28  C   UNL     1      43.954 -11.286   8.070  1.00  0.00     0.053 A 
HETATM   29  C   UNL     1      45.202 -10.797   8.468  1.00  0.00     0.069 A 
HETATM   30  C   UNL     1      46.245 -10.739   7.541  1.00  0.00     0.037 A 
HETATM   31  C   UNL     1      46.036 -11.149   6.222  1.00  0.00     0.004 A 
HETATM   32  C   UNL     1      44.787 -11.626   5.825  1.00  0.00     0.017 A 
BRANCH  29  33
HETATM   33  O   UNL     1      45.279 -10.410   9.779  1.00  0.00    -0.351 OA
BRANCH  33  34
HETATM   34  C   UNL     1      44.049 -10.278  10.490  1.00  0.00     0.175 C 
BRANCH  34  35
HETATM   35  C   UNL     1      43.946  -8.866  11.065  1.00  0.00     0.026 C 
BRANCH  35  36
HETATM   36  C   UNL     1      43.213  -8.836  12.406  1.00  0.00    -0.002 C 
HETATM   37  C   UNL     1      42.384 -10.095  12.611  1.00  0.00     0.005 C 
ENDBRANCH  35  36
ENDBRANCH  34  35
ENDBRANCH  33  34
ENDBRANCH  29  33
ENDBRANCH  24  27
ENDBRANCH   1  23
TORSDOF 9
ENDMDL
MODEL 3
REMARK VINA RESULT:      -8.8      2.493     10.428
REMARK  9 active torsions:
REMARK  status: ('A' for Active; 'I' for Inactive)
REMARK    1  A    between atoms: C_2  and  C_3 
REMARK    2  A    between atoms: C_3  and  C_4 
REMARK    3  A    between atoms: C_4  and  O_5 
REMARK    4  A    between atoms: O_5  and  C_6 
REMARK    5  A    between atoms: C_8  and  C_9 
REMARK       I    between atoms: C_9  and  N_10 
REMARK    6  A    between atoms: N_10  and  C_11 
REMARK    7  A    between atoms: N_12  and  C_13 
REMARK    8  A    between atoms: C_15  and  C_16 
REMARK    9  A    between atoms: C_25  and  O_26 
ROOT
HETATM    1  C   UNL     1      44.589 -11.052   7.862  1.00  0.00     0.179 C 
HETATM    2  N   UNL     1      44.688 -12.174   7.115  1.00  0.00    -0.333 N 
HETATM    3  S   UNL     1      45.873  -9.974   7.850  1.00  0.00    -0.040 SA
HETATM    4  H   UNL     1      45.644 -12.380   6.846  1.00  0.00     0.168 HD
ENDROOT
BRANCH   2   5
HETATM    5  C   UNL     1      43.717 -12.999   6.509  1.00  0.00     0.035 A 
HETATM    6  C   UNL     1      43.949 -14.316   6.111  1.00  0.00     0.048 A 
HETATM    7  C   UNL     1      42.958 -15.071   5.461  1.00  0.00     0.053 A 
HETATM    8  C   UNL     1      41.679 -14.506   5.307  1.00  0.00     0.086 A 
HETATM    9  C   UNL     1      41.400 -13.212   5.764  1.00  0.00    -0.026 A 
HETATM   10  C   UNL     1      40.021 -12.626   5.656  1.00  0.00     0.051 C 
HETATM   11  C   UNL     1      42.429 -12.470   6.364  1.00  0.00     0.039 A 
BRANCH   7  12
HETATM   12  C   UNL     1      43.262 -16.395   4.926  1.00  0.00     0.183 A 
HETATM   13  O   UNL     1      42.965 -16.624   3.606  1.00  0.00    -0.289 OA
HETATM   14  C   UNL     1      43.269 -17.941   3.425  1.00  0.00     0.106 A 
HETATM   15  C   UNL     1      43.742 -18.437   4.629  1.00  0.00     0.093 A 
HETATM   16  C   UNL     1      43.130 -18.685   2.260  1.00  0.00     0.040 A 
HETATM   17  N   UNL     1      43.753 -17.441   5.574  1.00  0.00    -0.221 NA
HETATM   18  C   UNL     1      44.107 -19.786   4.709  1.00  0.00     0.034 A 
HETATM   19  C   UNL     1      43.977 -20.576   3.555  1.00  0.00     0.002 A 
HETATM   20  C   UNL     1      43.501 -20.031   2.355  1.00  0.00     0.003 A 
ENDBRANCH   7  12
BRANCH   8  21
HETATM   21  O   UNL     1      40.650 -15.194   4.710  1.00  0.00    -0.359 OA
HETATM   22  H   UNL     1      41.008 -15.694   3.947  1.00  0.00     0.218 HD
ENDBRANCH   8  21
ENDBRANCH   2   5
BRANCH   1  23
HETATM   23  N   UNL     1      43.509 -10.739   8.627  1.00  0.00    -0.299 N 
HETATM   24  C   UNL     1      42.741  -9.578   8.667  1.00  0.00     0.257 C 
HETATM   25  O   UNL     1      42.728  -8.718   7.796  1.00  0.00    -0.267 OA
HETATM   26  H   UNL     1      43.057 -11.559   9.013  1.00  0.00     0.171 HD
BRANCH  24  27
HETATM   27  C   UNL     1      41.828  -9.470   9.845  1.00  0.00     0.035 A 
HETATM   28  C   UNL     1      42.362  -9.588  11.133  1.00  0.00     0.053 A 
HETATM   29  C   UNL     1      41.533  -9.527  12.258  1.00  0.00     0.069 A 
HETATM   30  C   UNL     1      40.159  -9.342  12.090  1.00  0.00     0.037 A 
HETATM   31  C   UNL     1      39.615  -9.239  10.807  1.00  0.00     0.004 A 
HETATM   32  C   UNL     1      40.443  -9.311   9.687  1.00  0.00     0.017 A 
BRANCH  29  33
HETATM   33  O   UNL     1      42.178  -9.658  13.458  1.00  0.00    -0.351 OA
BRANCH  33  34
HETATM   34  C   UNL     1      42.167  -8.527  14.328  1.00  0.00     0.175 C 
BRANCH  34  35
HETATM   35  C   UNL     1      43.179  -7.495  13.830  1.00  0.00     0.026 C 
BRANCH  35  36
HETATM   36  C   UNL     1      42.565  -6.102  13.685  1.00  0.00    -0.002 C 
HETATM   37  C   UNL     1      41.785  -5.975  12.385  1.00  0.00     0.005 C 
ENDBRANCH  35  36
ENDBRANCH  34  35
ENDBRANCH  33  34
ENDBRANCH  29  33
ENDBRANCH  24  27
ENDBRANCH   1  23
TORSDOF 9
ENDMDL
MODEL 4
REMARK VINA RESULT:      -8.7      3.458     10.308
REMARK  9 active torsions:
REMARK  status: ('A' for Active; 'I' for Inactive)
REMARK    1  A    between atoms: C_2  and  C_3 
REMARK    2  A    between atoms: C_3  and  C_4 
REMARK    3  A    between atoms: C_4  and  O_5 
REMARK    4  A    between atoms: O_5  and  C_6 
REMARK    5  A    between atoms: C_8  and  C_9 
REMARK       I    between atoms: C_9  and  N_10 
REMARK    6  A    between atoms: N_10  and  C_11 
REMARK    7  A    between atoms: N_12  and  C_13 
REMARK    8  A    between atoms: C_15  and  C_16 
REMARK    9  A    between atoms: C_25  and  O_26 
ROOT
HETATM    1  C   UNL     1      42.549 -14.694   7.119  1.00  0.00     0.179 C 
HETATM    2  N   UNL     1      41.363 -14.768   6.476  1.00  0.00    -0.333 N 
HETATM    3  S   UNL     1      43.304 -16.124   7.560  1.00  0.00    -0.040 SA
HETATM    4  H   UNL     1      40.920 -15.676   6.578  1.00  0.00     0.168 HD
ENDROOT
BRANCH   2   5
HETATM    5  C   UNL     1      40.717 -13.900   5.571  1.00  0.00     0.035 A 
HETATM    6  C   UNL     1      40.685 -14.093   4.190  1.00  0.00     0.048 A 
HETATM    7  C   UNL     1      40.073 -13.161   3.333  1.00  0.00     0.053 A 
HETATM    8  C   UNL     1      39.397 -12.069   3.905  1.00  0.00     0.086 A 
HETATM    9  C   UNL     1      39.352 -11.892   5.294  1.00  0.00    -0.026 A 
HETATM   10  C   UNL     1      38.581 -10.761   5.913  1.00  0.00     0.051 C 
HETATM   11  C   UNL     1      40.016 -12.816   6.115  1.00  0.00     0.039 A 
BRANCH   7  12
HETATM   12  C   UNL     1      40.172 -13.308   1.884  1.00  0.00     0.183 A 
HETATM   13  O   UNL     1      40.737 -12.272   1.184  1.00  0.00    -0.289 OA
HETATM   14  C   UNL     1      40.611 -12.649  -0.120  1.00  0.00     0.106 A 
HETATM   15  C   UNL     1      39.991 -13.888  -0.146  1.00  0.00     0.093 A 
HETATM   16  C   UNL     1      41.009 -11.938  -1.245  1.00  0.00     0.040 A 
HETATM   17  N   UNL     1      39.733 -14.309   1.136  1.00  0.00    -0.221 NA
HETATM   18  C   UNL     1      39.728 -14.487  -1.383  1.00  0.00     0.034 A 
HETATM   19  C   UNL     1      40.109 -13.800  -2.546  1.00  0.00     0.002 A 
HETATM   20  C   UNL     1      40.741 -12.551  -2.474  1.00  0.00     0.003 A 
ENDBRANCH   7  12
BRANCH   8  21
HETATM   21  O   UNL     1      38.748 -11.134   3.134  1.00  0.00    -0.359 OA
HETATM   22  H   UNL     1      37.876 -11.496   2.870  1.00  0.00     0.218 HD
ENDBRANCH   8  21
ENDBRANCH   2   5
BRANCH   1  23
HETATM   23  N   UNL     1      43.173 -13.527   7.432  1.00  0.00    -0.299 N 
HETATM   24  C   UNL     1      43.807 -12.598   6.611  1.00  0.00     0.257 C 
HETATM   25  O   UNL     1      43.662 -12.522   5.398  1.00  0.00    -0.267 OA
HETATM   26  H   UNL     1      42.899 -13.173   8.340  1.00  0.00     0.171 HD
BRANCH  24  27
HETATM   27  C   UNL     1      44.649 -11.595   7.332  1.00  0.00     0.035 A 
HETATM   28  C   UNL     1      44.171 -11.037   8.524  1.00  0.00     0.053 A 
HETATM   29  C   UNL     1      44.915 -10.070   9.208  1.00  0.00     0.069 A 
HETATM   30  C   UNL     1      46.148  -9.662   8.694  1.00  0.00     0.037 A 
HETATM   31  C   UNL     1      46.625 -10.202   7.498  1.00  0.00     0.004 A 
HETATM   32  C   UNL     1      45.876 -11.159   6.813  1.00  0.00     0.017 A 
BRANCH  29  33
HETATM   33  O   UNL     1      44.336  -9.603  10.357  1.00  0.00    -0.351 OA
BRANCH  33  34
HETATM   34  C   UNL     1      43.356 -10.436  10.975  1.00  0.00     0.175 C 
BRANCH  34  35
HETATM   35  C   UNL     1      42.871  -9.774  12.265  1.00  0.00     0.026 C 
BRANCH  35  36
HETATM   36  C   UNL     1      43.255  -8.296  12.340  1.00  0.00    -0.002 C 
HETATM   37  C   UNL     1      43.015  -7.732  13.732  1.00  0.00     0.005 C 
ENDBRANCH  35  36
ENDBRANCH  34  35
ENDBRANCH  33  34
ENDBRANCH  29  33
ENDBRANCH  24  27
ENDBRANCH   1  23
TORSDOF 9
ENDMDL
MODEL 5
REMARK VINA RESULT:      -8.7      1.442      2.319
REMARK  9 active torsions:
REMARK  status: ('A' for Active; 'I' for Inactive)
REMARK    1  A    between atoms: C_2  and  C_3 
REMARK    2  A    between atoms: C_3  and  C_4 
REMARK    3  A    between atoms: C_4  and  O_5 
REMARK    4  A    between atoms: O_5  and  C_6 
REMARK    5  A    between atoms: C_8  and  C_9 
REMARK       I    between atoms: C_9  and  N_10 
REMARK    6  A    between atoms: N_10  and  C_11 
REMARK    7  A    between atoms: N_12  and  C_13 
REMARK    8  A    between atoms: C_15  and  C_16 
REMARK    9  A    between atoms: C_25  and  O_26 
ROOT
HETATM    1  C   UNL     1      41.427 -10.489   4.585  1.00  0.00     0.179 C 
HETATM    2  N   UNL     1      41.591  -9.864   5.771  1.00  0.00    -0.333 N 
HETATM    3  S   UNL     1      40.672  -9.652   3.343  1.00  0.00    -0.040 SA
HETATM    4  H   UNL     1      40.990  -9.052   5.871  1.00  0.00     0.168 HD
ENDROOT
BRANCH   2   5
HETATM    5  C   UNL     1      42.539 -10.021   6.803  1.00  0.00     0.035 A 
HETATM    6  C   UNL     1      42.284  -9.752   8.148  1.00  0.00     0.048 A 
HETATM    7  C   UNL     1      43.287  -9.875   9.124  1.00  0.00     0.053 A 
HETATM    8  C   UNL     1      44.542 -10.376   8.735  1.00  0.00     0.086 A 
HETATM    9  C   UNL     1      44.802 -10.721   7.403  1.00  0.00    -0.026 A 
HETATM   10  C   UNL     1      46.121 -11.313   6.993  1.00  0.00     0.051 C 
HETATM   11  C   UNL     1      43.791 -10.539   6.448  1.00  0.00     0.039 A 
BRANCH   7  12
HETATM   12  C   UNL     1      43.041  -9.456  10.501  1.00  0.00     0.183 A 
HETATM   13  O   UNL     1      41.948  -9.991  11.136  1.00  0.00    -0.289 OA
HETATM   14  C   UNL     1      41.927  -9.359  12.343  1.00  0.00     0.106 A 
HETATM   15  C   UNL     1      43.004  -8.488  12.386  1.00  0.00     0.093 A 
HETATM   16  C   UNL     1      41.001  -9.525  13.365  1.00  0.00     0.040 A 
HETATM   17  N   UNL     1      43.719  -8.571  11.216  1.00  0.00    -0.221 NA
HETATM   18  C   UNL     1      43.191  -7.699  13.527  1.00  0.00     0.034 A 
HETATM   19  C   UNL     1      42.275  -7.832  14.581  1.00  0.00     0.002 A 
HETATM   20  C   UNL     1      41.202  -8.731  14.500  1.00  0.00     0.003 A 
ENDBRANCH   7  12
BRANCH   8  21
HETATM   21  O   UNL     1      45.563 -10.553   9.638  1.00  0.00    -0.359 OA
HETATM   22  H   UNL     1      45.423  -9.945  10.394  1.00  0.00     0.218 HD
ENDBRANCH   8  21
ENDBRANCH   2   5
BRANCH   1  23
HETATM   23  N   UNL     1      41.836 -11.761   4.331  1.00  0.00    -0.299 N 
HETATM   24  C   UNL     1      42.877 -12.228   3.532  1.00  0.00     0.257 C 
HETATM   25  O   UNL     1      43.811 -11.546   3.131  1.00  0.00    -0.267 OA
HETATM   26  H   UNL     1      41.507 -12.419   5.026  1.00  0.00     0.171 HD
BRANCH  24  27
HETATM   27  C   UNL     1      42.838 -13.694   3.245  1.00  0.00     0.035 A 
HETATM   28  C   UNL     1      42.358 -14.568   4.229  1.00  0.00     0.053 A 
HETATM   29  C   UNL     1      42.339 -15.948   4.009  1.00  0.00     0.069 A 
HETATM   30  C   UNL     1      42.801 -16.457   2.793  1.00  0.00     0.037 A 
HETATM   31  C   UNL     1      43.296 -15.594   1.812  1.00  0.00     0.004 A 
HETATM   32  C   UNL     1      43.323 -14.218   2.038  1.00  0.00     0.017 A 
BRANCH  29  33
HETATM   33  O   UNL     1      41.850 -16.692   5.049  1.00  0.00    -0.351 OA
BRANCH  33  34
HETATM   34  C   UNL     1      42.436 -16.477   6.332  1.00  0.00     0.175 C 
BRANCH  34  35
HETATM   35  C   UNL     1      43.712 -17.310   6.451  1.00  0.00     0.026 C 
BRANCH  35  36
HETATM   36  C   UNL     1      43.465 -18.794   6.177  1.00  0.00    -0.002 C 
HETATM   37  C   UNL     1      44.155 -19.242   4.898  1.00  0.00     0.005 C 
ENDBRANCH  35  36
ENDBRANCH  34  35
ENDBRANCH  33  34
ENDBRANCH  29  33
ENDBRANCH  24  27
ENDBRANCH   1  23
TORSDOF 9
ENDMDL
MODEL 6
REMARK VINA RESULT:      -8.4      4.157      6.248
REMARK  9 active torsions:
REMARK  status: ('A' for Active; 'I' for Inactive)
REMARK    1  A    between atoms: C_2  and  C_3 
REMARK    2  A    between atoms: C_3  and  C_4 
REMARK    3  A    between atoms: C_4  and  O_5 
REMARK    4  A    between atoms: O_5  and  C_6 
REMARK    5  A    between atoms: C_8  and  C_9 
REMARK       I    between atoms: C_9  and  N_10 
REMARK    6  A    between atoms: N_10  and  C_11 
REMARK    7  A    between atoms: N_12  and  C_13 
REMARK    8  A    between atoms: C_15  and  C_16 
REMARK    9  A    between atoms: C_25  and  O_26 
ROOT
HETATM    1  C   UNL     1      40.421 -13.576  -0.359  1.00  0.00     0.179 C 
HETATM    2  N   UNL     1      39.911 -12.366  -0.042  1.00  0.00    -0.333 N 
HETATM    3  S   UNL     1      40.121 -14.188  -1.891  1.00  0.00    -0.040 SA
HETATM    4  H   UNL     1      39.165 -12.080  -0.669  1.00  0.00     0.168 HD
ENDROOT
BRANCH   2   5
HETATM    5  C   UNL     1      40.322 -11.371   0.870  1.00  0.00     0.035 A 
HETATM    6  C   UNL     1      41.271 -11.573   1.872  1.00  0.00     0.048 A 
HETATM    7  C   UNL     1      41.599 -10.557   2.787  1.00  0.00     0.053 A 
HETATM    8  C   UNL     1      41.023  -9.287   2.611  1.00  0.00     0.086 A 
HETATM    9  C   UNL     1      40.123  -9.038   1.568  1.00  0.00    -0.026 A 
HETATM   10  C   UNL     1      39.551  -7.668   1.340  1.00  0.00     0.051 C 
HETATM   11  C   UNL     1      39.782 -10.090   0.704  1.00  0.00     0.039 A 
BRANCH   7  12
HETATM   12  C   UNL     1      42.487 -10.830   3.913  1.00  0.00     0.183 A 
HETATM   13  O   UNL     1      42.030 -10.511   5.167  1.00  0.00    -0.289 OA
HETATM   14  C   UNL     1      43.087 -10.787   5.982  1.00  0.00     0.106 A 
HETATM   15  C   UNL     1      44.119 -11.267   5.192  1.00  0.00     0.093 A 
HETATM   16  C   UNL     1      43.155 -10.620   7.359  1.00  0.00     0.040 A 
HETATM   17  N   UNL     1      43.722 -11.309   3.878  1.00  0.00    -0.221 NA
HETATM   18  C   UNL     1      45.334 -11.607   5.798  1.00  0.00     0.034 A 
HETATM   19  C   UNL     1      45.447 -11.447   7.188  1.00  0.00     0.002 A 
HETATM   20  C   UNL     1      44.375 -10.965   7.952  1.00  0.00     0.003 A 
ENDBRANCH   7  12
BRANCH   8  21
HETATM   21  O   UNL     1      41.319  -8.235   3.446  1.00  0.00    -0.359 OA
HETATM   22  H   UNL     1      40.976  -8.440   4.341  1.00  0.00     0.218 HD
ENDBRANCH   8  21
ENDBRANCH   2   5
BRANCH   1  23
HETATM   23  N   UNL     1      41.166 -14.334   0.490  1.00  0.00    -0.299 N 
HETATM   24  C   UNL     1      40.792 -15.395   1.311  1.00  0.00     0.257 C 
HETATM   25  O   UNL     1      39.754 -16.035   1.199  1.00  0.00    -0.267 OA
HETATM   26  H   UNL     1      42.155 -14.286   0.284  1.00  0.00     0.171 HD
BRANCH  24  27
HETATM   27  C   UNL     1      41.809 -15.786   2.333  1.00  0.00     0.035 A 
HETATM   28  C   UNL     1      42.531 -16.972   2.156  1.00  0.00     0.053 A 
HETATM   29  C   UNL     1      43.467 -17.388   3.109  1.00  0.00     0.069 A 
HETATM   30  C   UNL     1      43.682 -16.607   4.246  1.00  0.00     0.037 A 
HETATM   31  C   UNL     1      42.955 -15.430   4.439  1.00  0.00     0.004 A 
HETATM   32  C   UNL     1      42.015 -15.023   3.492  1.00  0.00     0.017 A 
BRANCH  29  33
HETATM   33  O   UNL     1      44.102 -18.565   2.818  1.00  0.00    -0.351 OA
BRANCH  33  34
HETATM   34  C   UNL     1      43.283 -19.724   2.664  1.00  0.00     0.175 C 
BRANCH  34  35
HETATM   35  C   UNL     1      43.838 -20.854   3.530  1.00  0.00     0.026 C 
BRANCH  35  36
HETATM   36  C   UNL     1      44.517 -20.334   4.799  1.00  0.00    -0.002 C 
HETATM   37  C   UNL     1      43.519 -20.182   5.936  1.00  0.00     0.005 C 
ENDBRANCH  35  36
ENDBRANCH  34  35
ENDBRANCH  33  34
ENDBRANCH  29  33
ENDBRANCH  24  27
ENDBRANCH   1  23
TORSDOF 9
ENDMDL
MODEL 7
REMARK VINA RESULT:      -8.4      3.962      8.231
REMARK  9 active torsions:
REMARK  status: ('A' for Active; 'I' for Inactive)
REMARK    1  A    between atoms: C_2  and  C_3 
REMARK    2  A    between atoms: C_3  and  C_4 
REMARK    3  A    between atoms: C_4  and  O_5 
REMARK    4  A    between atoms: O_5  and  C_6 
REMARK    5  A    between atoms: C_8  and  C_9 
REMARK       I    between atoms: C_9  and  N_10 
REMARK    6  A    between atoms: N_10  and  C_11 
REMARK    7  A    between atoms: N_12  and  C_13 
REMARK    8  A    between atoms: C_15  and  C_16 
REMARK    9  A    between atoms: C_25  and  O_26 
ROOT
HETATM    1  C   UNL     1      42.690 -10.511   6.956  1.00  0.00     0.179 C 
HETATM    2  N   UNL     1      42.157  -9.702   6.014  1.00  0.00    -0.333 N 
HETATM    3  S   UNL     1      43.562  -9.808   8.204  1.00  0.00    -0.040 SA
HETATM    4  H   UNL     1      42.579  -8.778   6.009  1.00  0.00     0.168 HD
ENDROOT
BRANCH   2   5
HETATM    5  C   UNL     1      41.036  -9.839   5.169  1.00  0.00     0.035 A 
HETATM    6  C   UNL     1      40.934 -10.789   4.153  1.00  0.00     0.048 A 
HETATM    7  C   UNL     1      39.812 -10.840   3.306  1.00  0.00     0.053 A 
HETATM    8  C   UNL     1      38.736  -9.973   3.568  1.00  0.00     0.086 A 
HETATM    9  C   UNL     1      38.784  -9.059   4.628  1.00  0.00    -0.026 A 
HETATM   10  C   UNL     1      37.615  -8.173   4.948  1.00  0.00     0.051 C 
HETATM   11  C   UNL     1      39.940  -9.004   5.421  1.00  0.00     0.039 A 
BRANCH   7  12
HETATM   12  C   UNL     1      39.785 -11.746   2.162  1.00  0.00     0.183 A 
HETATM   13  O   UNL     1      39.138 -11.314   1.032  1.00  0.00    -0.289 OA
HETATM   14  C   UNL     1      39.200 -12.383   0.189  1.00  0.00     0.106 A 
HETATM   15  C   UNL     1      39.884 -13.398   0.838  1.00  0.00     0.093 A 
HETATM   16  C   UNL     1      38.672 -12.476  -1.093  1.00  0.00     0.040 A 
HETATM   17  N   UNL     1      40.271 -12.977   2.087  1.00  0.00    -0.221 NA
HETATM   18  C   UNL     1      40.065 -14.621   0.182  1.00  0.00     0.034 A 
HETATM   19  C   UNL     1      39.542 -14.760  -1.114  1.00  0.00     0.002 A 
HETATM   20  C   UNL     1      38.862 -13.705  -1.737  1.00  0.00     0.003 A 
ENDBRANCH   7  12
BRANCH   8  21
HETATM   21  O   UNL     1      37.594  -9.986   2.804  1.00  0.00    -0.359 OA
HETATM   22  H   UNL     1      37.828 -10.267   1.894  1.00  0.00     0.218 HD
ENDBRANCH   8  21
ENDBRANCH   2   5
BRANCH   1  23
HETATM   23  N   UNL     1      42.564 -11.865   6.957  1.00  0.00    -0.299 N 
HETATM   24  C   UNL     1      43.492 -12.854   6.641  1.00  0.00     0.257 C 
HETATM   25  O   UNL     1      44.703 -12.684   6.579  1.00  0.00    -0.267 OA
HETATM   26  H   UNL     1      41.783 -12.180   7.518  1.00  0.00     0.171 HD
BRANCH  24  27
HETATM   27  C   UNL     1      42.914 -14.220   6.455  1.00  0.00     0.035 A 
HETATM   28  C   UNL     1      43.779 -15.307   6.280  1.00  0.00     0.053 A 
HETATM   29  C   UNL     1      43.275 -16.594   6.069  1.00  0.00     0.069 A 
HETATM   30  C   UNL     1      41.893 -16.793   6.035  1.00  0.00     0.037 A 
HETATM   31  C   UNL     1      41.022 -15.712   6.194  1.00  0.00     0.004 A 
HETATM   32  C   UNL     1      41.528 -14.428   6.394  1.00  0.00     0.017 A 
BRANCH  29  33
HETATM   33  O   UNL     1      44.224 -17.567   5.910  1.00  0.00    -0.351 OA
BRANCH  33  34
HETATM   34  C   UNL     1      43.889 -18.668   5.066  1.00  0.00     0.175 C 
BRANCH  34  35
HETATM   35  C   UNL     1      44.352 -18.371   3.639  1.00  0.00     0.026 C 
BRANCH  35  36
HETATM   36  C   UNL     1      43.180 -18.136   2.685  1.00  0.00    -0.002 C 
HETATM   37  C   UNL     1      43.109 -16.683   2.244  1.00  0.00     0.005 C 
ENDBRANCH  35  36
ENDBRANCH  34  35
ENDBRANCH  33  34
ENDBRANCH  29  33
ENDBRANCH  24  27
ENDBRANCH   1  23
TORSDOF 9
ENDMDL
MODEL 8
REMARK VINA RESULT:      -8.3      3.186      7.971
REMARK  9 active torsions:
REMARK  status: ('A' for Active; 'I' for Inactive)
REMARK    1  A    between atoms: C_2  and  C_3 
REMARK    2  A    between atoms: C_3  and  C_4 
REMARK    3  A    between atoms: C_4  and  O_5 
REMARK    4  A    between atoms: O_5  and  C_6 
REMARK    5  A    between atoms: C_8  and  C_9 
REMARK       I    between atoms: C_9  and  N_10 
REMARK    6  A    between atoms: N_10  and  C_11 
REMARK    7  A    between atoms: N_12  and  C_13 
REMARK    8  A    between atoms: C_15  and  C_16 
REMARK    9  A    between atoms: C_25  and  O_26 
ROOT
HETATM    1  C   UNL     1      39.950  -9.501   8.390  1.00  0.00     0.179 C 
HETATM    2  N   UNL     1      39.246  -9.255   7.263  1.00  0.00    -0.333 N 
HETATM    3  S   UNL     1      39.126  -9.526   9.850  1.00  0.00    -0.040 SA
HETATM    4  H   UNL     1      38.342  -8.835   7.451  1.00  0.00     0.168 HD
ENDROOT
BRANCH   2   5
HETATM    5  C   UNL     1      39.453  -9.620   5.916  1.00  0.00     0.035 A 
HETATM    6  C   UNL     1      39.941 -10.861   5.508  1.00  0.00     0.048 A 
HETATM    7  C   UNL     1      40.180 -11.146   4.152  1.00  0.00     0.053 A 
HETATM    8  C   UNL     1      39.819 -10.184   3.192  1.00  0.00     0.086 A 
HETATM    9  C   UNL     1      39.260  -8.957   3.572  1.00  0.00    -0.026 A 
HETATM   10  C   UNL     1      38.818  -7.950   2.549  1.00  0.00     0.051 C 
HETATM   11  C   UNL     1      39.082  -8.689   4.938  1.00  0.00     0.039 A 
BRANCH   7  12
HETATM   12  C   UNL     1      40.821 -12.396   3.757  1.00  0.00     0.183 A 
HETATM   13  O   UNL     1      40.238 -13.564   4.180  1.00  0.00    -0.289 OA
HETATM   14  C   UNL     1      41.091 -14.534   3.744  1.00  0.00     0.106 A 
HETATM   15  C   UNL     1      42.133 -13.914   3.074  1.00  0.00     0.093 A 
HETATM   16  C   UNL     1      40.973 -15.906   3.931  1.00  0.00     0.040 A 
HETATM   17  N   UNL     1      41.943 -12.554   3.069  1.00  0.00    -0.221 NA
HETATM   18  C   UNL     1      43.160 -14.702   2.543  1.00  0.00     0.034 A 
HETATM   19  C   UNL     1      43.083 -16.093   2.714  1.00  0.00     0.002 A 
HETATM   20  C   UNL     1      42.007 -16.681   3.393  1.00  0.00     0.003 A 
ENDBRANCH   7  12
BRANCH   8  21
HETATM   21  O   UNL     1      39.993 -10.402   1.846  1.00  0.00    -0.359 OA
HETATM   22  H   UNL     1      39.132 -10.277   1.395  1.00  0.00     0.218 HD
ENDBRANCH   8  21
ENDBRANCH   2   5
BRANCH   1  23
HETATM   23  N   UNL     1      41.290  -9.731   8.416  1.00  0.00    -0.299 N 
HETATM   24  C   UNL     1      42.349  -8.849   8.619  1.00  0.00     0.257 C 
HETATM   25  O   UNL     1      42.245  -7.731   9.106  1.00  0.00    -0.267 OA
HETATM   26  H   UNL     1      41.512 -10.705   8.577  1.00  0.00     0.171 HD
BRANCH  24  27
HETATM   27  C   UNL     1      43.696  -9.397   8.274  1.00  0.00     0.035 A 
HETATM   28  C   UNL     1      43.792 -10.701   7.771  1.00  0.00     0.053 A 
HETATM   29  C   UNL     1      45.037 -11.259   7.469  1.00  0.00     0.069 A 
HETATM   30  C   UNL     1      46.196 -10.505   7.669  1.00  0.00     0.037 A 
HETATM   31  C   UNL     1      46.111  -9.210   8.185  1.00  0.00     0.004 A 
HETATM   32  C   UNL     1      44.867  -8.659   8.495  1.00  0.00     0.017 A 
BRANCH  29  33
HETATM   33  O   UNL     1      44.994 -12.540   6.988  1.00  0.00    -0.351 OA
BRANCH  33  34
HETATM   34  C   UNL     1      43.770 -12.969   6.394  1.00  0.00     0.175 C 
BRANCH  34  35
HETATM   35  C   UNL     1      43.764 -14.495   6.293  1.00  0.00     0.026 C 
BRANCH  35  36
HETATM   36  C   UNL     1      42.984 -15.150   7.434  1.00  0.00    -0.002 C 
HETATM   37  C   UNL     1      42.699 -16.614   7.138  1.00  0.00     0.005 C 
ENDBRANCH  35  36
ENDBRANCH  34  35
ENDBRANCH  33  34
ENDBRANCH  29  33
ENDBRANCH  24  27
ENDBRANCH   1  23
TORSDOF 9
ENDMDL
MODEL 9
REMARK VINA RESULT:      -8.1      5.026      9.045
REMARK  9 active torsions:
REMARK  status: ('A' for Active; 'I' for Inactive)
REMARK    1  A    between atoms: C_2  and  C_3 
REMARK    2  A    between atoms: C_3  and  C_4 
REMARK    3  A    between atoms: C_4  and  O_5 
REMARK    4  A    between atoms: O_5  and  C_6 
REMARK    5  A    between atoms: C_8  and  C_9 
REMARK       I    between atoms: C_9  and  N_10 
REMARK    6  A    between atoms: N_10  and  C_11 
REMARK    7  A    between atoms: N_12  and  C_13 
REMARK    8  A    between atoms: C_15  and  C_16 
REMARK    9  A    between atoms: C_25  and  O_26 
ROOT
HETATM    1  C   UNL     1      42.469 -11.176   5.489  1.00  0.00     0.179 C 
HETATM    2  N   UNL     1      41.705 -10.189   4.971  1.00  0.00    -0.333 N 
HETATM    3  S   UNL     1      43.241 -10.898   6.952  1.00  0.00    -0.040 SA
HETATM    4  H   UNL     1      41.906  -9.283   5.384  1.00  0.00     0.168 HD
ENDROOT
BRANCH   2   5
HETATM    5  C   UNL     1      40.590 -10.205   4.107  1.00  0.00     0.035 A 
HETATM    6  C   UNL     1      40.436 -11.097   3.046  1.00  0.00     0.048 A 
HETATM    7  C   UNL     1      39.327 -11.027   2.185  1.00  0.00     0.053 A 
HETATM    8  C   UNL     1      38.312 -10.098   2.474  1.00  0.00     0.086 A 
HETATM    9  C   UNL     1      38.409  -9.240   3.577  1.00  0.00    -0.026 A 
HETATM   10  C   UNL     1      37.301  -8.287   3.925  1.00  0.00     0.051 C 
HETATM   11  C   UNL     1      39.554  -9.305   4.385  1.00  0.00     0.039 A 
BRANCH   7  12
HETATM   12  C   UNL     1      39.253 -11.875   0.999  1.00  0.00     0.183 A 
HETATM   13  O   UNL     1      38.548 -11.394  -0.076  1.00  0.00    -0.289 OA
HETATM   14  C   UNL     1      38.578 -12.419  -0.974  1.00  0.00     0.106 A 
HETATM   15  C   UNL     1      39.303 -13.457  -0.410  1.00  0.00     0.093 A 
HETATM   16  C   UNL     1      37.990 -12.454  -2.232  1.00  0.00     0.040 A 
HETATM   17  N   UNL     1      39.745 -13.095   0.838  1.00  0.00    -0.221 NA
HETATM   18  C   UNL     1      39.462 -14.643  -1.136  1.00  0.00     0.034 A 
HETATM   19  C   UNL     1      38.878 -14.723  -2.410  1.00  0.00     0.002 A 
HETATM   20  C   UNL     1      38.159 -13.646  -2.946  1.00  0.00     0.003 A 
ENDBRANCH   7  12
BRANCH   8  21
HETATM   21  O   UNL     1      37.184  -9.993   1.696  1.00  0.00    -0.359 OA
HETATM   22  H   UNL     1      36.707  -9.173   1.945  1.00  0.00     0.218 HD
ENDBRANCH   8  21
ENDBRANCH   2   5
BRANCH   1  23
HETATM   23  N   UNL     1      42.652 -12.387   4.898  1.00  0.00    -0.299 N 
HETATM   24  C   UNL     1      43.349 -12.726   3.741  1.00  0.00     0.257 C 
HETATM   25  O   UNL     1      44.180 -12.015   3.191  1.00  0.00    -0.267 OA
HETATM   26  H   UNL     1      42.486 -13.157   5.534  1.00  0.00     0.171 HD
BRANCH  24  27
HETATM   27  C   UNL     1      43.078 -14.102   3.226  1.00  0.00     0.035 A 
HETATM   28  C   UNL     1      43.234 -15.194   4.089  1.00  0.00     0.053 A 
HETATM   29  C   UNL     1      43.023 -16.499   3.634  1.00  0.00     0.069 A 
HETATM   30  C   UNL     1      42.650 -16.711   2.304  1.00  0.00     0.037 A 
HETATM   31  C   UNL     1      42.507 -15.630   1.433  1.00  0.00     0.004 A 
HETATM   32  C   UNL     1      42.728 -14.329   1.887  1.00  0.00     0.017 A 
BRANCH  29  33
HETATM   33  O   UNL     1      43.211 -17.476   4.574  1.00  0.00    -0.351 OA
BRANCH  33  34
HETATM   34  C   UNL     1      44.327 -18.347   4.392  1.00  0.00     0.175 C 
BRANCH  34  35
HETATM   35  C   UNL     1      44.044 -19.682   5.080  1.00  0.00     0.026 C 
BRANCH  35  36
HETATM   36  C   UNL     1      43.931 -20.837   4.084  1.00  0.00    -0.002 C 
HETATM   37  C   UNL     1      43.644 -20.329   2.680  1.00  0.00     0.005 C 
ENDBRANCH  35  36
ENDBRANCH  34  35
ENDBRANCH  33  34
ENDBRANCH  29  33
ENDBRANCH  24  27
ENDBRANCH   1  23
TORSDOF 9
ENDMDL
MODEL 10
REMARK VINA RESULT:      -8.1      2.349      9.636
REMARK  9 active torsions:
REMARK  status: ('A' for Active; 'I' for Inactive)
REMARK    1  A    between atoms: C_2  and  C_3 
REMARK    2  A    between atoms: C_3  and  C_4 
REMARK    3  A    between atoms: C_4  and  O_5 
REMARK    4  A    between atoms: O_5  and  C_6 
REMARK    5  A    between atoms: C_8  and  C_9 
REMARK       I    between atoms: C_9  and  N_10 
REMARK    6  A    between atoms: N_10  and  C_11 
REMARK    7  A    between atoms: N_12  and  C_13 
REMARK    8  A    between atoms: C_15  and  C_16 
REMARK    9  A    between atoms: C_25  and  O_26 
ROOT
HETATM    1  C   UNL     1      40.112 -11.412   3.659  1.00  0.00     0.179 C 
HETATM    2  N   UNL     1      41.101 -12.275   3.337  1.00  0.00    -0.333 N 
HETATM    3  S   UNL     1      38.887 -11.158   2.544  1.00  0.00    -0.040 SA
HETATM    4  H   UNL     1      41.145 -12.464   2.341  1.00  0.00     0.168 HD
ENDROOT
BRANCH   2   5
HETATM    5  C   UNL     1      41.956 -13.076   4.123  1.00  0.00     0.035 A 
HETATM    6  C   UNL     1      42.331 -14.378   3.793  1.00  0.00     0.048 A 
HETATM    7  C   UNL     1      43.141 -15.147   4.647  1.00  0.00     0.053 A 
HETATM    8  C   UNL     1      43.659 -14.540   5.805  1.00  0.00     0.086 A 
HETATM    9  C   UNL     1      43.356 -13.210   6.121  1.00  0.00    -0.026 A 
HETATM   10  C   UNL     1      43.953 -12.538   7.325  1.00  0.00     0.051 C 
HETATM   11  C   UNL     1      42.504 -12.489   5.271  1.00  0.00     0.039 A 
BRANCH   7  12
HETATM   12  C   UNL     1      43.407 -16.552   4.353  1.00  0.00     0.183 A 
HETATM   13  O   UNL     1      43.152 -16.987   3.077  1.00  0.00    -0.289 OA
HETATM   14  C   UNL     1      43.403 -18.326   3.130  1.00  0.00     0.106 A 
HETATM   15  C   UNL     1      43.805 -18.632   4.421  1.00  0.00     0.093 A 
HETATM   16  C   UNL     1      43.278 -19.248   2.099  1.00  0.00     0.040 A 
HETATM   17  N   UNL     1      43.823 -17.493   5.187  1.00  0.00    -0.221 NA
HETATM   18  C   UNL     1      44.105 -19.962   4.739  1.00  0.00     0.034 A 
HETATM   19  C   UNL     1      43.986 -20.927   3.727  1.00  0.00     0.002 A 
HETATM   20  C   UNL     1      43.583 -20.573   2.432  1.00  0.00     0.003 A 
ENDBRANCH   7  12
BRANCH   8  21
HETATM   21  O   UNL     1      44.483 -15.217   6.671  1.00  0.00    -0.359 OA
HETATM   22  H   UNL     1      44.491 -16.165   6.421  1.00  0.00     0.218 HD
ENDBRANCH   8  21
ENDBRANCH   2   5
BRANCH   1  23
HETATM   23  N   UNL     1      40.047 -10.734   4.836  1.00  0.00    -0.299 N 
HETATM   24  C   UNL     1      40.613  -9.516   5.204  1.00  0.00     0.257 C 
HETATM   25  O   UNL     1      41.046  -8.681   4.421  1.00  0.00    -0.267 OA
HETATM   26  H   UNL     1      39.268 -11.030   5.410  1.00  0.00     0.171 HD
BRANCH  24  27
HETATM   27  C   UNL     1      40.587  -9.230   6.671  1.00  0.00     0.035 A 
HETATM   28  C   UNL     1      41.721  -9.520   7.440  1.00  0.00     0.053 A 
HETATM   29  C   UNL     1      41.722  -9.298   8.821  1.00  0.00     0.069 A 
HETATM   30  C   UNL     1      40.579  -8.779   9.434  1.00  0.00     0.037 A 
HETATM   31  C   UNL     1      39.439  -8.501   8.677  1.00  0.00     0.004 A 
HETATM   32  C   UNL     1      39.437  -8.734   7.301  1.00  0.00     0.017 A 
BRANCH  29  33
HETATM   33  O   UNL     1      42.889  -9.625   9.457  1.00  0.00    -0.351 OA
BRANCH  33  34
HETATM   34  C   UNL     1      42.827  -9.809  10.871  1.00  0.00     0.175 C 
BRANCH  34  35
HETATM   35  C   UNL     1      43.808  -8.851  11.549  1.00  0.00     0.026 C 
BRANCH  35  36
HETATM   36  C   UNL     1      43.181  -8.124  12.739  1.00  0.00    -0.002 C 
HETATM   37  C   UNL     1      42.275  -9.049  13.537  1.00  0.00     0.005 C 
ENDBRANCH  35  36
ENDBRANCH  34  35
ENDBRANCH  33  34
ENDBRANCH  29  33
ENDBRANCH  24  27
ENDBRANCH   1  23
TORSDOF 9
ENDMDL
