MODEL 1
REMARK VINA RESULT:      -6.8      0.000      0.000
REMARK  3 active torsions:
REMARK  status: ('A' for Active; 'I' for Inactive)
REMARK    1  A    between atoms: C_4  and  N_5 
REMARK    2  A    between atoms: N_5  and  C_6 
REMARK    3  A    between atoms: C_14  and  C_15 
REMARK       I    between atoms: C_15  and  N_16 
ROOT
HETATM    1  C   UNL     1      43.926 -20.924   4.432  1.00  0.00     0.020 A 
HETATM    2  C   UNL     1      43.721 -20.427   3.160  1.00  0.00     0.119 A 
HETATM    3  N   UNL     1      43.607 -19.111   2.875  1.00  0.00    -0.242 NA
HETATM    4  C   UNL     1      43.679 -18.213   3.890  1.00  0.00     0.143 A 
HETATM    5  C   UNL     1      43.905 -18.643   5.209  1.00  0.00     0.077 A 
HETATM    6  C   UNL     1      44.021 -20.014   5.477  1.00  0.00     0.022 A 
ENDROOT
BRANCH   4   7
HETATM    7  N   UNL     1      43.593 -16.830   3.605  1.00  0.00    -0.339 N 
HETATM    8  H   UNL     1      43.922 -16.280   4.406  1.00  0.00     0.167 HD
BRANCH   7   9
HETATM    9  C   UNL     1      42.638 -16.136   2.828  1.00  0.00     0.055 A 
HETATM   10  C   UNL     1      41.370 -15.822   3.359  1.00  0.00     0.062 A 
HETATM   11 CL   UNL     1      40.932 -16.327   4.956  1.00  0.00    -0.082 Cl
HETATM   12  C   UNL     1      40.424 -15.110   2.616  1.00  0.00     0.050 A 
HETATM   13  C   UNL     1      40.743 -14.688   1.330  1.00  0.00     0.035 A 
HETATM   14 CL   UNL     1      39.589 -13.805   0.408  1.00  0.00    -0.084 Cl
HETATM   15  C   UNL     1      41.992 -14.971   0.785  1.00  0.00     0.026 A 
HETATM   16  C   UNL     1      42.931 -15.688   1.533  1.00  0.00     0.033 A 
ENDBRANCH   7   9
ENDBRANCH   4   7
BRANCH   5  17
HETATM   17  C   UNL     1      43.968 -17.664   6.318  1.00  0.00     0.253 C 
HETATM   18  N   UNL     1      43.239 -17.945   7.441  1.00  0.00    -0.366 N 
HETATM   19  H   UNL     1      42.862 -18.863   7.628  1.00  0.00     0.159 HD
HETATM   20  H   UNL     1      43.381 -17.328   8.233  1.00  0.00     0.159 HD
HETATM   21  O   UNL     1      44.655 -16.653   6.240  1.00  0.00    -0.268 OA
ENDBRANCH   5  17
TORSDOF 3
ENDMDL
MODEL 2
REMARK VINA RESULT:      -6.8      1.847      2.220
REMARK  3 active torsions:
REMARK  status: ('A' for Active; 'I' for Inactive)
REMARK    1  A    between atoms: C_4  and  N_5 
REMARK    2  A    between atoms: N_5  and  C_6 
REMARK    3  A    between atoms: C_14  and  C_15 
REMARK       I    between atoms: C_15  and  N_16 
ROOT
HETATM    1  C   UNL     1      44.059 -19.341   5.265  1.00  0.00     0.020 A 
HETATM    2  C   UNL     1      44.093 -18.872   3.967  1.00  0.00     0.119 A 
HETATM    3  N   UNL     1      43.582 -17.682   3.583  1.00  0.00    -0.242 NA
HETATM    4  C   UNL     1      42.984 -16.895   4.513  1.00  0.00     0.143 A 
HETATM    5  C   UNL     1      42.928 -17.299   5.858  1.00  0.00     0.077 A 
HETATM    6  C   UNL     1      43.466 -18.538   6.231  1.00  0.00     0.022 A 
ENDROOT
BRANCH   4   7
HETATM    7  N   UNL     1      42.472 -15.632   4.133  1.00  0.00    -0.339 N 
HETATM    8  H   UNL     1      42.185 -15.101   4.963  1.00  0.00     0.167 HD
BRANCH   7   9
HETATM    9  C   UNL     1      41.737 -15.276   2.981  1.00  0.00     0.055 A 
HETATM   10  C   UNL     1      42.099 -14.146   2.218  1.00  0.00     0.062 A 
HETATM   11 CL   UNL     1      43.420 -13.138   2.706  1.00  0.00    -0.082 Cl
HETATM   12  C   UNL     1      41.403 -13.795   1.059  1.00  0.00     0.050 A 
HETATM   13  C   UNL     1      40.337 -14.583   0.638  1.00  0.00     0.035 A 
HETATM   14 CL   UNL     1      39.475 -14.165  -0.792  1.00  0.00    -0.084 Cl
HETATM   15  C   UNL     1      39.966 -15.712   1.362  1.00  0.00     0.026 A 
HETATM   16  C   UNL     1      40.665 -16.054   2.524  1.00  0.00     0.033 A 
ENDBRANCH   7   9
ENDBRANCH   4   7
BRANCH   5  17
HETATM   17  C   UNL     1      42.260 -16.448   6.870  1.00  0.00     0.253 C 
HETATM   18  N   UNL     1      42.996 -16.082   7.964  1.00  0.00    -0.366 N 
HETATM   19  H   UNL     1      44.001 -16.171   7.996  1.00  0.00     0.159 HD
HETATM   20  H   UNL     1      42.567 -15.409   8.588  1.00  0.00     0.159 HD
HETATM   21  O   UNL     1      41.102 -16.074   6.727  1.00  0.00    -0.268 OA
ENDBRANCH   5  17
TORSDOF 3
ENDMDL
MODEL 3
REMARK VINA RESULT:      -6.7      3.459      4.585
REMARK  3 active torsions:
REMARK  status: ('A' for Active; 'I' for Inactive)
REMARK    1  A    between atoms: C_4  and  N_5 
REMARK    2  A    between atoms: N_5  and  C_6 
REMARK    3  A    between atoms: C_14  and  C_15 
REMARK       I    between atoms: C_15  and  N_16 
ROOT
HETATM    1  C   UNL     1      43.952 -19.094   3.030  1.00  0.00     0.020 A 
HETATM    2  C   UNL     1      44.080 -18.823   4.378  1.00  0.00     0.119 A 
HETATM    3  N   UNL     1      43.506 -17.765   4.991  1.00  0.00    -0.242 NA
HETATM    4  C   UNL     1      42.771 -16.898   4.249  1.00  0.00     0.143 A 
HETATM    5  C   UNL     1      42.581 -17.120   2.874  1.00  0.00     0.077 A 
HETATM    6  C   UNL     1      43.186 -18.226   2.263  1.00  0.00     0.022 A 
ENDROOT
BRANCH   4   7
HETATM    7  N   UNL     1      42.138 -15.803   4.881  1.00  0.00    -0.339 N 
HETATM    8  H   UNL     1      41.183 -15.688   4.522  1.00  0.00     0.167 HD
BRANCH   7   9
HETATM    9  C   UNL     1      42.697 -14.586   5.331  1.00  0.00     0.055 A 
HETATM   10  C   UNL     1      43.099 -14.431   6.674  1.00  0.00     0.062 A 
HETATM   11 CL   UNL     1      42.868 -15.711   7.816  1.00  0.00    -0.082 Cl
HETATM   12  C   UNL     1      43.681 -13.246   7.129  1.00  0.00     0.050 A 
HETATM   13  C   UNL     1      43.883 -12.198   6.238  1.00  0.00     0.035 A 
HETATM   14 CL   UNL     1      44.605 -10.734   6.786  1.00  0.00    -0.084 Cl
HETATM   15  C   UNL     1      43.510 -12.326   4.904  1.00  0.00     0.026 A 
HETATM   16  C   UNL     1      42.923 -13.514   4.456  1.00  0.00     0.033 A 
ENDBRANCH   7   9
ENDBRANCH   4   7
BRANCH   5  17
HETATM   17  C   UNL     1      41.792 -16.165   2.062  1.00  0.00     0.253 C 
HETATM   18  N   UNL     1      42.470 -15.427   1.131  1.00  0.00    -0.366 N 
HETATM   19  H   UNL     1      43.405 -15.662   0.828  1.00  0.00     0.159 HD
HETATM   20  H   UNL     1      41.904 -14.865   0.506  1.00  0.00     0.159 HD
HETATM   21  O   UNL     1      40.581 -16.052   2.206  1.00  0.00    -0.268 OA
ENDBRANCH   5  17
TORSDOF 3
ENDMDL
MODEL 4
REMARK VINA RESULT:      -6.7      2.975      5.470
REMARK  3 active torsions:
REMARK  status: ('A' for Active; 'I' for Inactive)
REMARK    1  A    between atoms: C_4  and  N_5 
REMARK    2  A    between atoms: N_5  and  C_6 
REMARK    3  A    between atoms: C_14  and  C_15 
REMARK       I    between atoms: C_15  and  N_16 
ROOT
HETATM    1  C   UNL     1      39.988 -12.848   2.179  1.00  0.00     0.020 A 
HETATM    2  C   UNL     1      41.175 -13.001   1.490  1.00  0.00     0.119 A 
HETATM    3  N   UNL     1      42.221 -13.724   1.946  1.00  0.00    -0.242 NA
HETATM    4  C   UNL     1      42.121 -14.330   3.156  1.00  0.00     0.143 A 
HETATM    5  C   UNL     1      40.936 -14.234   3.905  1.00  0.00     0.077 A 
HETATM    6  C   UNL     1      39.865 -13.478   3.410  1.00  0.00     0.022 A 
ENDROOT
BRANCH   4   7
HETATM    7  N   UNL     1      43.196 -15.117   3.633  1.00  0.00    -0.339 N 
HETATM    8  H   UNL     1      44.076 -14.593   3.569  1.00  0.00     0.167 HD
BRANCH   7   9
HETATM    9  C   UNL     1      43.390 -16.513   3.543  1.00  0.00     0.055 A 
HETATM   10  C   UNL     1      43.934 -17.236   4.625  1.00  0.00     0.062 A 
HETATM   11 CL   UNL     1      44.427 -16.420   6.070  1.00  0.00    -0.082 Cl
HETATM   12  C   UNL     1      44.105 -18.621   4.565  1.00  0.00     0.050 A 
HETATM   13  C   UNL     1      43.719 -19.307   3.420  1.00  0.00     0.035 A 
HETATM   14 CL   UNL     1      43.919 -21.015   3.337  1.00  0.00    -0.084 Cl
HETATM   15  C   UNL     1      43.166 -18.624   2.341  1.00  0.00     0.026 A 
HETATM   16  C   UNL     1      43.002 -17.237   2.407  1.00  0.00     0.033 A 
ENDBRANCH   7   9
ENDBRANCH   4   7
BRANCH   5  17
HETATM   17  C   UNL     1      40.833 -14.882   5.233  1.00  0.00     0.253 C 
HETATM   18  N   UNL     1      40.113 -16.043   5.309  1.00  0.00    -0.366 N 
HETATM   19  H   UNL     1      39.855 -16.576   4.491  1.00  0.00     0.159 HD
HETATM   20  H   UNL     1      40.147 -16.534   6.195  1.00  0.00     0.159 HD
HETATM   21  O   UNL     1      41.382 -14.407   6.220  1.00  0.00    -0.268 OA
ENDBRANCH   5  17
TORSDOF 3
ENDMDL
MODEL 5
REMARK VINA RESULT:      -6.6      2.933      5.434
REMARK  3 active torsions:
REMARK  status: ('A' for Active; 'I' for Inactive)
REMARK    1  A    between atoms: C_4  and  N_5 
REMARK    2  A    between atoms: N_5  and  C_6 
REMARK    3  A    between atoms: C_14  and  C_15 
REMARK       I    between atoms: C_15  and  N_16 
ROOT
HETATM    1  C   UNL     1      39.915 -12.920   5.034  1.00  0.00     0.020 A 
HETATM    2  C   UNL     1      40.129 -13.505   3.801  1.00  0.00     0.119 A 
HETATM    3  N   UNL     1      41.233 -14.218   3.488  1.00  0.00    -0.242 NA
HETATM    4  C   UNL     1      42.205 -14.365   4.424  1.00  0.00     0.143 A 
HETATM    5  C   UNL     1      42.048 -13.814   5.707  1.00  0.00     0.077 A 
HETATM    6  C   UNL     1      40.893 -13.079   6.007  1.00  0.00     0.022 A 
ENDROOT
BRANCH   4   7
HETATM    7  N   UNL     1      43.352 -15.135   4.123  1.00  0.00    -0.339 N 
HETATM    8  H   UNL     1      43.957 -14.630   3.465  1.00  0.00     0.167 HD
BRANCH   7   9
HETATM    9  C   UNL     1      43.483 -16.537   4.009  1.00  0.00     0.055 A 
HETATM   10  C   UNL     1      43.386 -17.170   2.753  1.00  0.00     0.062 A 
HETATM   11 CL   UNL     1      43.049 -16.250   1.326  1.00  0.00    -0.082 Cl
HETATM   12  C   UNL     1      43.543 -18.552   2.618  1.00  0.00     0.050 A 
HETATM   13  C   UNL     1      43.815 -19.321   3.743  1.00  0.00     0.035 A 
HETATM   14 CL   UNL     1      44.016 -21.024   3.589  1.00  0.00    -0.084 Cl
HETATM   15  C   UNL     1      43.931 -18.723   4.994  1.00  0.00     0.026 A 
HETATM   16  C   UNL     1      43.768 -17.340   5.122  1.00  0.00     0.033 A 
ENDBRANCH   7   9
ENDBRANCH   4   7
BRANCH   5  17
HETATM   17  C   UNL     1      43.116 -13.960   6.723  1.00  0.00     0.253 C 
HETATM   18  N   UNL     1      42.893 -14.845   7.742  1.00  0.00    -0.366 N 
HETATM   19  H   UNL     1      42.162 -15.542   7.706  1.00  0.00     0.159 HD
HETATM   20  H   UNL     1      43.674 -15.020   8.363  1.00  0.00     0.159 HD
HETATM   21  O   UNL     1      44.163 -13.328   6.646  1.00  0.00    -0.268 OA
ENDBRANCH   5  17
TORSDOF 3
ENDMDL
MODEL 6
REMARK VINA RESULT:      -6.5      3.140      5.969
REMARK  3 active torsions:
REMARK  status: ('A' for Active; 'I' for Inactive)
REMARK    1  A    between atoms: C_4  and  N_5 
REMARK    2  A    between atoms: N_5  and  C_6 
REMARK    3  A    between atoms: C_14  and  C_15 
REMARK       I    between atoms: C_15  and  N_16 
ROOT
HETATM    1  C   UNL     1      39.846 -13.027   4.863  1.00  0.00     0.020 A 
HETATM    2  C   UNL     1      40.861 -13.500   5.671  1.00  0.00     0.119 A 
HETATM    3  N   UNL     1      41.912 -14.217   5.217  1.00  0.00    -0.242 NA
HETATM    4  C   UNL     1      41.981 -14.512   3.893  1.00  0.00     0.143 A 
HETATM    5  C   UNL     1      40.994 -14.048   3.007  1.00  0.00     0.077 A 
HETATM    6  C   UNL     1      39.914 -13.305   3.504  1.00  0.00     0.022 A 
ENDROOT
BRANCH   4   7
HETATM    7  N   UNL     1      43.091 -15.235   3.398  1.00  0.00    -0.339 N 
HETATM    8  H   UNL     1      43.465 -14.780   2.557  1.00  0.00     0.167 HD
BRANCH   7   9
HETATM    9  C   UNL     1      43.328 -16.628   3.410  1.00  0.00     0.055 A 
HETATM   10  C   UNL     1      43.898 -17.251   4.539  1.00  0.00     0.062 A 
HETATM   11 CL   UNL     1      44.371 -16.316   5.918  1.00  0.00    -0.082 Cl
HETATM   12  C   UNL     1      44.112 -18.631   4.581  1.00  0.00     0.050 A 
HETATM   13  C   UNL     1      43.743 -19.412   3.492  1.00  0.00     0.035 A 
HETATM   14 CL   UNL     1      43.996 -21.114   3.534  1.00  0.00    -0.084 Cl
HETATM   15  C   UNL     1      43.165 -18.828   2.369  1.00  0.00     0.026 A 
HETATM   16  C   UNL     1      42.958 -17.445   2.333  1.00  0.00     0.033 A 
ENDBRANCH   7   9
ENDBRANCH   4   7
BRANCH   5  17
HETATM   17  C   UNL     1      41.061 -14.384   1.566  1.00  0.00     0.253 C 
HETATM   18  N   UNL     1      41.635 -13.462   0.735  1.00  0.00    -0.366 N 
HETATM   19  H   UNL     1      42.198 -12.697   1.080  1.00  0.00     0.159 HD
HETATM   20  H   UNL     1      41.778 -13.751  -0.225  1.00  0.00     0.159 HD
HETATM   21  O   UNL     1      40.635 -15.450   1.138  1.00  0.00    -0.268 OA
ENDBRANCH   5  17
TORSDOF 3
ENDMDL
MODEL 7
REMARK VINA RESULT:      -6.4      2.029      2.262
REMARK  3 active torsions:
REMARK  status: ('A' for Active; 'I' for Inactive)
REMARK    1  A    between atoms: C_4  and  N_5 
REMARK    2  A    between atoms: N_5  and  C_6 
REMARK    3  A    between atoms: C_14  and  C_15 
REMARK       I    between atoms: C_15  and  N_16 
ROOT
HETATM    1  C   UNL     1      44.104 -19.307   3.161  1.00  0.00     0.020 A 
HETATM    2  C   UNL     1      43.210 -18.679   2.316  1.00  0.00     0.119 A 
HETATM    3  N   UNL     1      42.532 -17.555   2.638  1.00  0.00    -0.242 NA
HETATM    4  C   UNL     1      42.716 -17.009   3.867  1.00  0.00     0.143 A 
HETATM    5  C   UNL     1      43.624 -17.582   4.773  1.00  0.00     0.077 A 
HETATM    6  C   UNL     1      44.316 -18.747   4.414  1.00  0.00     0.022 A 
ENDROOT
BRANCH   4   7
HETATM    7  N   UNL     1      42.037 -15.816   4.208  1.00  0.00    -0.339 N 
HETATM    8  H   UNL     1      41.144 -16.034   4.665  1.00  0.00     0.167 HD
BRANCH   7   9
HETATM    9  C   UNL     1      42.009 -14.578   3.529  1.00  0.00     0.055 A 
HETATM   10  C   UNL     1      40.966 -14.273   2.629  1.00  0.00     0.062 A 
HETATM   11 CL   UNL     1      39.724 -15.432   2.295  1.00  0.00    -0.082 Cl
HETATM   12  C   UNL     1      40.906 -13.042   1.972  1.00  0.00     0.050 A 
HETATM   13  C   UNL     1      41.887 -12.088   2.217  1.00  0.00     0.035 A 
HETATM   14 CL   UNL     1      41.821 -10.565   1.417  1.00  0.00    -0.084 Cl
HETATM   15  C   UNL     1      42.921 -12.354   3.111  1.00  0.00     0.026 A 
HETATM   16  C   UNL     1      42.977 -13.590   3.762  1.00  0.00     0.033 A 
ENDBRANCH   7   9
ENDBRANCH   4   7
BRANCH   5  17
HETATM   17  C   UNL     1      43.813 -16.995   6.120  1.00  0.00     0.253 C 
HETATM   18  N   UNL     1      43.320 -17.699   7.184  1.00  0.00    -0.366 N 
HETATM   19  H   UNL     1      43.050 -18.671   7.114  1.00  0.00     0.159 HD
HETATM   20  H   UNL     1      43.555 -17.346   8.103  1.00  0.00     0.159 HD
HETATM   21  O   UNL     1      44.399 -15.931   6.276  1.00  0.00    -0.268 OA
ENDBRANCH   5  17
TORSDOF 3
ENDMDL
MODEL 8
REMARK VINA RESULT:      -6.1      3.934      5.974
REMARK  3 active torsions:
REMARK  status: ('A' for Active; 'I' for Inactive)
REMARK    1  A    between atoms: C_4  and  N_5 
REMARK    2  A    between atoms: N_5  and  C_6 
REMARK    3  A    between atoms: C_14  and  C_15 
REMARK       I    between atoms: C_15  and  N_16 
ROOT
HETATM    1  C   UNL     1      43.523 -11.310   6.511  1.00  0.00     0.020 A 
HETATM    2  C   UNL     1      44.292 -12.442   6.689  1.00  0.00     0.119 A 
HETATM    3  N   UNL     1      43.832 -13.701   6.513  1.00  0.00    -0.242 NA
HETATM    4  C   UNL     1      42.534 -13.879   6.157  1.00  0.00     0.143 A 
HETATM    5  C   UNL     1      41.696 -12.772   5.939  1.00  0.00     0.077 A 
HETATM    6  C   UNL     1      42.198 -11.477   6.127  1.00  0.00     0.022 A 
ENDROOT
BRANCH   4   7
HETATM    7  N   UNL     1      42.045 -15.188   5.939  1.00  0.00    -0.339 N 
HETATM    8  H   UNL     1      41.655 -15.571   6.808  1.00  0.00     0.167 HD
BRANCH   7   9
HETATM    9  C   UNL     1      42.537 -16.194   5.077  1.00  0.00     0.055 A 
HETATM   10  C   UNL     1      43.306 -17.263   5.583  1.00  0.00     0.062 A 
HETATM   11 CL   UNL     1      43.713 -17.338   7.264  1.00  0.00    -0.082 Cl
HETATM   12  C   UNL     1      43.774 -18.282   4.750  1.00  0.00     0.050 A 
HETATM   13  C   UNL     1      43.466 -18.253   3.395  1.00  0.00     0.035 A 
HETATM   14 CL   UNL     1      44.032 -19.507   2.361  1.00  0.00    -0.084 Cl
HETATM   15  C   UNL     1      42.696 -17.220   2.870  1.00  0.00     0.026 A 
HETATM   16  C   UNL     1      42.235 -16.200   3.708  1.00  0.00     0.033 A 
ENDBRANCH   7   9
ENDBRANCH   4   7
BRANCH   5  17
HETATM   17  C   UNL     1      40.276 -12.968   5.566  1.00  0.00     0.253 C 
HETATM   18  N   UNL     1      39.931 -12.719   4.266  1.00  0.00    -0.366 N 
HETATM   19  H   UNL     1      40.617 -12.635   3.529  1.00  0.00     0.159 HD
HETATM   20  H   UNL     1      38.986 -12.966   3.998  1.00  0.00     0.159 HD
HETATM   21  O   UNL     1      39.448 -13.352   6.383  1.00  0.00    -0.268 OA
ENDBRANCH   5  17
TORSDOF 3
ENDMDL
MODEL 9
REMARK VINA RESULT:      -6.1      3.711      6.406
REMARK  3 active torsions:
REMARK  status: ('A' for Active; 'I' for Inactive)
REMARK    1  A    between atoms: C_4  and  N_5 
REMARK    2  A    between atoms: N_5  and  C_6 
REMARK    3  A    between atoms: C_14  and  C_15 
REMARK       I    between atoms: C_15  and  N_16 
ROOT
HETATM    1  C   UNL     1      39.842 -10.495   2.796  1.00  0.00     0.020 A 
HETATM    2  C   UNL     1      39.705 -11.517   1.876  1.00  0.00     0.119 A 
HETATM    3  N   UNL     1      39.728 -12.829   2.200  1.00  0.00    -0.242 NA
HETATM    4  C   UNL     1      39.912 -13.180   3.498  1.00  0.00     0.143 A 
HETATM    5  C   UNL     1      40.040 -12.195   4.492  1.00  0.00     0.077 A 
HETATM    6  C   UNL     1      40.012 -10.841   4.130  1.00  0.00     0.022 A 
ENDROOT
BRANCH   4   7
HETATM    7  N   UNL     1      39.908 -14.548   3.857  1.00  0.00    -0.339 N 
HETATM    8  H   UNL     1      39.357 -14.689   4.711  1.00  0.00     0.167 HD
BRANCH   7   9
HETATM    9  C   UNL     1      40.925 -15.516   3.703  1.00  0.00     0.055 A 
HETATM   10  C   UNL     1      41.034 -16.261   2.511  1.00  0.00     0.062 A 
HETATM   11 CL   UNL     1      39.890 -16.047   1.229  1.00  0.00    -0.082 Cl
HETATM   12  C   UNL     1      42.051 -17.201   2.328  1.00  0.00     0.050 A 
HETATM   13  C   UNL     1      42.988 -17.398   3.337  1.00  0.00     0.035 A 
HETATM   14 CL   UNL     1      44.250 -18.549   3.122  1.00  0.00    -0.084 Cl
HETATM   15  C   UNL     1      42.915 -16.667   4.519  1.00  0.00     0.026 A 
HETATM   16  C   UNL     1      41.891 -15.731   4.696  1.00  0.00     0.033 A 
ENDBRANCH   7   9
ENDBRANCH   4   7
BRANCH   5  17
HETATM   17  C   UNL     1      40.257 -12.578   5.906  1.00  0.00     0.253 C 
HETATM   18  N   UNL     1      41.375 -12.087   6.523  1.00  0.00    -0.366 N 
HETATM   19  H   UNL     1      41.912 -11.320   6.142  1.00  0.00     0.159 HD
HETATM   20  H   UNL     1      41.451 -12.261   7.518  1.00  0.00     0.159 HD
HETATM   21  O   UNL     1      39.462 -13.293   6.503  1.00  0.00    -0.268 OA
ENDBRANCH   5  17
TORSDOF 3
ENDMDL
MODEL 10
REMARK VINA RESULT:      -6.0     13.006     14.320
REMARK  3 active torsions:
REMARK  status: ('A' for Active; 'I' for Inactive)
REMARK    1  A    between atoms: C_4  and  N_5 
REMARK    2  A    between atoms: N_5  and  C_6 
REMARK    3  A    between atoms: C_14  and  C_15 
REMARK       I    between atoms: C_15  and  N_16 
ROOT
HETATM    1  C   UNL     1      43.970 -29.205  -3.903  1.00  0.00     0.020 A 
HETATM    2  C   UNL     1      45.089 -28.405  -4.027  1.00  0.00     0.119 A 
HETATM    3  N   UNL     1      45.863 -28.027  -2.986  1.00  0.00    -0.242 NA
HETATM    4  C   UNL     1      45.525 -28.435  -1.737  1.00  0.00     0.143 A 
HETATM    5  C   UNL     1      44.409 -29.266  -1.536  1.00  0.00     0.077 A 
HETATM    6  C   UNL     1      43.623 -29.645  -2.633  1.00  0.00     0.022 A 
ENDROOT
BRANCH   4   7
HETATM    7  N   UNL     1      46.342 -28.073  -0.640  1.00  0.00    -0.339 N 
HETATM    8  H   UNL     1      46.428 -27.052  -0.583  1.00  0.00     0.167 HD
BRANCH   7   9
HETATM    9  C   UNL     1      47.464 -28.742  -0.103  1.00  0.00     0.055 A 
HETATM   10  C   UNL     1      47.534 -29.038   1.274  1.00  0.00     0.062 A 
HETATM   11 CL   UNL     1      46.270 -28.539   2.348  1.00  0.00    -0.082 Cl
HETATM   12  C   UNL     1      48.621 -29.725   1.819  1.00  0.00     0.050 A 
HETATM   13  C   UNL     1      49.653 -30.141   0.984  1.00  0.00     0.035 A 
HETATM   14 CL   UNL     1      50.995 -30.994   1.643  1.00  0.00    -0.084 Cl
HETATM   15  C   UNL     1      49.605 -29.876  -0.381  1.00  0.00     0.026 A 
HETATM   16  C   UNL     1      48.515 -29.184  -0.918  1.00  0.00     0.033 A 
ENDBRANCH   7   9
ENDBRANCH   4   7
BRANCH   5  17
HETATM   17  C   UNL     1      44.031 -29.697  -0.170  1.00  0.00     0.253 C 
HETATM   18  N   UNL     1      43.109 -28.934   0.494  1.00  0.00    -0.366 N 
HETATM   19  H   UNL     1      42.530 -28.252   0.025  1.00  0.00     0.159 HD
HETATM   20  H   UNL     1      42.775 -29.302   1.377  1.00  0.00     0.159 HD
HETATM   21  O   UNL     1      44.510 -30.703   0.338  1.00  0.00    -0.268 OA
ENDBRANCH   5  17
TORSDOF 3
ENDMDL
