MODEL 1
REMARK VINA RESULT:      -8.9      0.000      0.000
REMARK  7 active torsions:
REMARK  status: ('A' for Active; 'I' for Inactive)
REMARK    1  A    between atoms: C_2  and  C_3 
REMARK    2  A    between atoms: C_3  and  C_4 
REMARK    3  A    between atoms: C_5  and  O_6 
REMARK    4  A    between atoms: O_6  and  C_7 
REMARK    5  A    between atoms: C_7  and  C_8 
REMARK       I    between atoms: C_8  and  N_9 
REMARK    6  A    between atoms: N_9  and  C_10 
REMARK    7  A    between atoms: C_17  and  C_18 
REMARK       I    between atoms: C_18  and  N_19 
ROOT
HETATM    1  C   UNL     1      42.746 -16.394   6.615  1.00  0.00     0.246 C 
HETATM    2  N   UNL     1      43.287 -15.322   5.909  1.00  0.00    -0.325 N 
HETATM    3  O   UNL     1      41.820 -16.331   7.416  1.00  0.00    -0.271 OA
HETATM    4  H   UNL     1      44.024 -15.534   5.247  1.00  0.00     0.169 HD
ENDROOT
BRANCH   2   5
HETATM    5  C   UNL     1      42.942 -13.956   6.017  1.00  0.00     0.035 A 
HETATM    6  C   UNL     1      43.841 -13.131   6.716  1.00  0.00     0.046 A 
HETATM    7  C   UNL     1      43.552 -11.761   6.884  1.00  0.00     0.030 A 
HETATM    8  C   UNL     1      42.376 -11.256   6.346  1.00  0.00     0.063 A 
HETATM    9  C   UNL     1      44.182 -10.644   7.512  1.00  0.00     0.156 A 
HETATM   10  N   UNL     1      42.371  -9.927   6.667  1.00  0.00    -0.277 N 
HETATM   11  C   UNL     1      41.465 -12.043   5.643  1.00  0.00     0.034 A 
HETATM   12  H   UNL     1      41.659  -9.243   6.435  1.00  0.00     0.189 HD
HETATM   13  N   UNL     1      43.443  -9.521   7.370  1.00  0.00    -0.168 NA
HETATM   14  C   UNL     1      41.772 -13.404   5.491  1.00  0.00     0.032 A 
BRANCH   9  15
HETATM   15  C   UNL     1      45.459 -10.635   8.236  1.00  0.00     0.270 C 
HETATM   16  N   UNL     1      46.542 -10.331   7.458  1.00  0.00    -0.365 N 
HETATM   17  H   UNL     1      46.393 -10.141   6.473  1.00  0.00     0.159 HD
HETATM   18  H   UNL     1      47.463 -10.300   7.865  1.00  0.00     0.159 HD
HETATM   19  O   UNL     1      45.578 -10.874   9.434  1.00  0.00    -0.266 OA
ENDBRANCH   9  15
ENDBRANCH   2   5
BRANCH   1  20
HETATM   20  C   UNL     1      43.462 -17.712   6.282  1.00  0.00     0.278 C 
BRANCH  20  21
HETATM   21  O   UNL     1      44.295 -17.586   5.128  1.00  0.00    -0.342 OA
BRANCH  21  22
HETATM   22  C   UNL     1      43.934 -18.452   4.130  1.00  0.00     0.076 A 
HETATM   23  C   UNL     1      43.170 -18.021   3.035  1.00  0.00    -0.021 A 
HETATM   24  C   UNL     1      42.842 -18.987   2.057  1.00  0.00     0.010 A 
HETATM   25  C   UNL     1      43.211 -20.328   2.191  1.00  0.00     0.001 A 
HETATM   26  C   UNL     1      43.912 -20.743   3.314  1.00  0.00     0.003 A 
HETATM   27  C   UNL     1      44.263 -19.809   4.284  1.00  0.00     0.037 A 
BRANCH  23  28
HETATM   28  C   UNL     1      42.626 -16.610   2.812  1.00  0.00     0.017 C 
HETATM   29  C   UNL     1      41.139 -16.454   2.476  1.00  0.00     0.015 C 
BRANCH  28  30
HETATM   30  C   UNL     1      43.495 -15.808   1.810  1.00  0.00     0.004 C 
HETATM   31  C   UNL     1      43.460 -14.296   1.995  1.00  0.00     0.006 C 
ENDBRANCH  28  30
ENDBRANCH  23  28
ENDBRANCH  21  22
ENDBRANCH  20  21
ENDBRANCH   1  20
TORSDOF 7
ENDMDL
MODEL 2
REMARK VINA RESULT:      -8.2      5.306      7.775
REMARK  7 active torsions:
REMARK  status: ('A' for Active; 'I' for Inactive)
REMARK    1  A    between atoms: C_2  and  C_3 
REMARK    2  A    between atoms: C_3  and  C_4 
REMARK    3  A    between atoms: C_5  and  O_6 
REMARK    4  A    between atoms: O_6  and  C_7 
REMARK    5  A    between atoms: C_7  and  C_8 
REMARK       I    between atoms: C_8  and  N_9 
REMARK    6  A    between atoms: N_9  and  C_10 
REMARK    7  A    between atoms: C_17  and  C_18 
REMARK       I    between atoms: C_18  and  N_19 
ROOT
HETATM    1  C   UNL     1      41.713 -15.322   1.638  1.00  0.00     0.246 C 
HETATM    2  N   UNL     1      41.700 -14.093   0.983  1.00  0.00    -0.325 N 
HETATM    3  O   UNL     1      40.756 -16.080   1.761  1.00  0.00    -0.271 OA
HETATM    4  H   UNL     1      42.581 -13.596   0.924  1.00  0.00     0.169 HD
ENDROOT
BRANCH   2   5
HETATM    5  C   UNL     1      40.593 -13.438   0.400  1.00  0.00     0.035 A 
HETATM    6  C   UNL     1      40.009 -14.060  -0.718  1.00  0.00     0.046 A 
HETATM    7  C   UNL     1      38.913 -13.453  -1.367  1.00  0.00     0.030 A 
HETATM    8  C   UNL     1      38.431 -12.247  -0.877  1.00  0.00     0.063 A 
HETATM    9  C   UNL     1      38.084 -13.755  -2.489  1.00  0.00     0.156 A 
HETATM   10  N   UNL     1      37.390 -11.911  -1.697  1.00  0.00    -0.277 N 
HETATM   11  C   UNL     1      38.982 -11.605   0.232  1.00  0.00     0.034 A 
HETATM   12  H   UNL     1      36.804 -11.087  -1.636  1.00  0.00     0.189 HD
HETATM   13  N   UNL     1      37.150 -12.795  -2.681  1.00  0.00    -0.168 NA
HETATM   14  C   UNL     1      40.073 -12.226   0.859  1.00  0.00     0.032 A 
BRANCH   9  15
HETATM   15  C   UNL     1      38.172 -14.926  -3.370  1.00  0.00     0.270 C 
HETATM   16  N   UNL     1      38.232 -16.121  -2.709  1.00  0.00    -0.365 N 
HETATM   17  H   UNL     1      38.214 -16.115  -1.695  1.00  0.00     0.159 HD
HETATM   18  H   UNL     1      38.294 -16.983  -3.227  1.00  0.00     0.159 HD
HETATM   19  O   UNL     1      38.189 -14.871  -4.596  1.00  0.00    -0.266 OA
ENDBRANCH   9  15
ENDBRANCH   2   5
BRANCH   1  20
HETATM   20  C   UNL     1      43.099 -15.642   2.219  1.00  0.00     0.278 C 
BRANCH  20  21
HETATM   21  O   UNL     1      43.029 -15.959   3.610  1.00  0.00    -0.342 OA
BRANCH  21  22
HETATM   22  C   UNL     1      43.356 -17.265   3.861  1.00  0.00     0.076 A 
HETATM   23  C   UNL     1      43.518 -17.734   5.174  1.00  0.00    -0.021 A 
HETATM   24  C   UNL     1      43.861 -19.096   5.335  1.00  0.00     0.010 A 
HETATM   25  C   UNL     1      44.082 -19.936   4.241  1.00  0.00     0.001 A 
HETATM   26  C   UNL     1      43.979 -19.434   2.952  1.00  0.00     0.003 A 
HETATM   27  C   UNL     1      43.626 -18.100   2.765  1.00  0.00     0.037 A 
BRANCH  23  28
HETATM   28  C   UNL     1      43.395 -16.905   6.452  1.00  0.00     0.017 C 
HETATM   29  C   UNL     1      42.012 -16.365   6.833  1.00  0.00     0.015 C 
BRANCH  28  30
HETATM   30  C   UNL     1      44.453 -15.773   6.510  1.00  0.00     0.004 C 
HETATM   31  C   UNL     1      43.883 -14.365   6.623  1.00  0.00     0.006 C 
ENDBRANCH  28  30
ENDBRANCH  23  28
ENDBRANCH  21  22
ENDBRANCH  20  21
ENDBRANCH   1  20
TORSDOF 7
ENDMDL
MODEL 3
REMARK VINA RESULT:      -8.1      1.615      2.879
REMARK  7 active torsions:
REMARK  status: ('A' for Active; 'I' for Inactive)
REMARK    1  A    between atoms: C_2  and  C_3 
REMARK    2  A    between atoms: C_3  and  C_4 
REMARK    3  A    between atoms: C_5  and  O_6 
REMARK    4  A    between atoms: O_6  and  C_7 
REMARK    5  A    between atoms: C_7  and  C_8 
REMARK       I    between atoms: C_8  and  N_9 
REMARK    6  A    between atoms: N_9  and  C_10 
REMARK    7  A    between atoms: C_17  and  C_18 
REMARK       I    between atoms: C_18  and  N_19 
ROOT
HETATM    1  C   UNL     1      43.346 -16.048   7.029  1.00  0.00     0.246 C 
HETATM    2  N   UNL     1      43.542 -15.042   6.085  1.00  0.00    -0.325 N 
HETATM    3  O   UNL     1      42.948 -15.886   8.178  1.00  0.00    -0.271 OA
HETATM    4  H   UNL     1      43.834 -15.332   5.160  1.00  0.00     0.169 HD
ENDROOT
BRANCH   2   5
HETATM    5  C   UNL     1      43.399 -13.648   6.268  1.00  0.00     0.035 A 
HETATM    6  C   UNL     1      42.113 -13.114   6.068  1.00  0.00     0.046 A 
HETATM    7  C   UNL     1      41.898 -11.728   6.211  1.00  0.00     0.030 A 
HETATM    8  C   UNL     1      42.972 -10.918   6.553  1.00  0.00     0.063 A 
HETATM    9  C   UNL     1      40.788 -10.839   6.088  1.00  0.00     0.156 A 
HETATM   10  N   UNL     1      42.466  -9.649   6.613  1.00  0.00    -0.277 N 
HETATM   11  C   UNL     1      44.259 -11.414   6.764  1.00  0.00     0.034 A 
HETATM   12  H   UNL     1      42.970  -8.798   6.835  1.00  0.00     0.189 HD
HETATM   13  N   UNL     1      41.153  -9.561   6.339  1.00  0.00    -0.168 NA
HETATM   14  C   UNL     1      44.449 -12.795   6.614  1.00  0.00     0.032 A 
BRANCH   9  15
HETATM   15  C   UNL     1      39.405 -11.187   5.739  1.00  0.00     0.270 C 
HETATM   16  N   UNL     1      38.817 -10.325   4.856  1.00  0.00    -0.365 N 
HETATM   17  H   UNL     1      39.355  -9.535   4.518  1.00  0.00     0.159 HD
HETATM   18  H   UNL     1      37.867 -10.480   4.556  1.00  0.00     0.159 HD
HETATM   19  O   UNL     1      38.803 -12.160   6.182  1.00  0.00    -0.266 OA
ENDBRANCH   9  15
ENDBRANCH   2   5
BRANCH   1  20
HETATM   20  C   UNL     1      43.701 -17.432   6.465  1.00  0.00     0.278 C 
BRANCH  20  21
HETATM   21  O   UNL     1      44.499 -17.335   5.285  1.00  0.00    -0.342 OA
BRANCH  21  22
HETATM   22  C   UNL     1      44.097 -18.212   4.313  1.00  0.00     0.076 A 
HETATM   23  C   UNL     1      43.309 -17.787   3.232  1.00  0.00    -0.021 A 
HETATM   24  C   UNL     1      42.938 -18.765   2.281  1.00  0.00     0.010 A 
HETATM   25  C   UNL     1      43.291 -20.108   2.426  1.00  0.00     0.001 A 
HETATM   26  C   UNL     1      44.017 -20.516   3.537  1.00  0.00     0.003 A 
HETATM   27  C   UNL     1      44.410 -19.571   4.480  1.00  0.00     0.037 A 
BRANCH  23  28
HETATM   28  C   UNL     1      42.780 -16.372   3.000  1.00  0.00     0.017 C 
HETATM   29  C   UNL     1      41.381 -16.029   3.524  1.00  0.00     0.015 C 
BRANCH  28  30
HETATM   30  C   UNL     1      42.926 -15.936   1.520  1.00  0.00     0.004 C 
HETATM   31  C   UNL     1      41.767 -15.112   0.975  1.00  0.00     0.006 C 
ENDBRANCH  28  30
ENDBRANCH  23  28
ENDBRANCH  21  22
ENDBRANCH  20  21
ENDBRANCH   1  20
TORSDOF 7
ENDMDL
MODEL 4
REMARK VINA RESULT:      -8.0      3.259      4.709
REMARK  7 active torsions:
REMARK  status: ('A' for Active; 'I' for Inactive)
REMARK    1  A    between atoms: C_2  and  C_3 
REMARK    2  A    between atoms: C_3  and  C_4 
REMARK    3  A    between atoms: C_5  and  O_6 
REMARK    4  A    between atoms: O_6  and  C_7 
REMARK    5  A    between atoms: C_7  and  C_8 
REMARK       I    between atoms: C_8  and  N_9 
REMARK    6  A    between atoms: N_9  and  C_10 
REMARK    7  A    between atoms: C_17  and  C_18 
REMARK       I    between atoms: C_18  and  N_19 
ROOT
HETATM    1  C   UNL     1      41.320 -15.684   5.835  1.00  0.00     0.246 C 
HETATM    2  N   UNL     1      41.636 -14.454   5.262  1.00  0.00    -0.325 N 
HETATM    3  O   UNL     1      40.205 -16.041   6.199  1.00  0.00    -0.271 OA
HETATM    4  H   UNL     1      42.596 -14.317   4.970  1.00  0.00     0.169 HD
ENDROOT
BRANCH   2   5
HETATM    5  C   UNL     1      40.774 -13.354   5.052  1.00  0.00     0.035 A 
HETATM    6  C   UNL     1      40.361 -13.120   3.728  1.00  0.00     0.046 A 
HETATM    7  C   UNL     1      39.518 -12.027   3.438  1.00  0.00     0.030 A 
HETATM    8  C   UNL     1      39.111 -11.204   4.478  1.00  0.00     0.063 A 
HETATM    9  C   UNL     1      38.912 -11.475   2.269  1.00  0.00     0.156 A 
HETATM   10  N   UNL     1      38.321 -10.250   3.899  1.00  0.00    -0.277 N 
HETATM   11  C   UNL     1      39.497 -11.408   5.803  1.00  0.00     0.034 A 
HETATM   12  H   UNL     1      37.851  -9.479   4.362  1.00  0.00     0.189 HD
HETATM   13  N   UNL     1      38.177 -10.380   2.569  1.00  0.00    -0.168 NA
HETATM   14  C   UNL     1      40.338 -12.500   6.067  1.00  0.00     0.032 A 
BRANCH   9  15
HETATM   15  C   UNL     1      39.024 -11.969   0.891  1.00  0.00     0.270 C 
HETATM   16  N   UNL     1      37.838 -12.015   0.214  1.00  0.00    -0.365 N 
HETATM   17  H   UNL     1      36.995 -11.716   0.692  1.00  0.00     0.159 HD
HETATM   18  H   UNL     1      37.813 -12.341  -0.740  1.00  0.00     0.159 HD
HETATM   19  O   UNL     1      40.076 -12.317   0.364  1.00  0.00    -0.266 OA
ENDBRANCH   9  15
ENDBRANCH   2   5
BRANCH   1  20
HETATM   20  C   UNL     1      42.560 -16.579   5.977  1.00  0.00     0.278 C 
BRANCH  20  21
HETATM   21  O   UNL     1      43.421 -16.476   4.841  1.00  0.00    -0.342 OA
BRANCH  21  22
HETATM   22  C   UNL     1      43.536 -17.663   4.168  1.00  0.00     0.076 A 
HETATM   23  C   UNL     1      43.134 -17.780   2.829  1.00  0.00    -0.021 A 
HETATM   24  C   UNL     1      43.285 -19.045   2.218  1.00  0.00     0.010 A 
HETATM   25  C   UNL     1      43.764 -20.152   2.922  1.00  0.00     0.001 A 
HETATM   26  C   UNL     1      44.096 -20.028   4.263  1.00  0.00     0.003 A 
HETATM   27  C   UNL     1      43.972 -18.789   4.885  1.00  0.00     0.037 A 
BRANCH  23  28
HETATM   28  C   UNL     1      42.512 -16.677   1.972  1.00  0.00     0.017 C 
HETATM   29  C   UNL     1      43.258 -15.343   1.858  1.00  0.00     0.015 C 
BRANCH  28  30
HETATM   30  C   UNL     1      41.023 -16.436   2.332  1.00  0.00     0.004 C 
HETATM   31  C   UNL     1      40.205 -15.740   1.252  1.00  0.00     0.006 C 
ENDBRANCH  28  30
ENDBRANCH  23  28
ENDBRANCH  21  22
ENDBRANCH  20  21
ENDBRANCH   1  20
TORSDOF 7
ENDMDL
MODEL 5
REMARK VINA RESULT:      -8.0      2.865      3.477
REMARK  7 active torsions:
REMARK  status: ('A' for Active; 'I' for Inactive)
REMARK    1  A    between atoms: C_2  and  C_3 
REMARK    2  A    between atoms: C_3  and  C_4 
REMARK    3  A    between atoms: C_5  and  O_6 
REMARK    4  A    between atoms: O_6  and  C_7 
REMARK    5  A    between atoms: C_7  and  C_8 
REMARK       I    between atoms: C_8  and  N_9 
REMARK    6  A    between atoms: N_9  and  C_10 
REMARK    7  A    between atoms: C_17  and  C_18 
REMARK       I    between atoms: C_18  and  N_19 
ROOT
HETATM    1  C   UNL     1      41.400 -15.329   5.872  1.00  0.00     0.246 C 
HETATM    2  N   UNL     1      41.654 -14.153   5.169  1.00  0.00    -0.325 N 
HETATM    3  O   UNL     1      40.320 -15.660   6.349  1.00  0.00    -0.271 OA
HETATM    4  H   UNL     1      42.588 -14.035   4.795  1.00  0.00     0.169 HD
ENDROOT
BRANCH   2   5
HETATM    5  C   UNL     1      40.763 -13.084   4.926  1.00  0.00     0.035 A 
HETATM    6  C   UNL     1      40.528 -12.202   5.996  1.00  0.00     0.046 A 
HETATM    7  C   UNL     1      39.633 -11.124   5.834  1.00  0.00     0.030 A 
HETATM    8  C   UNL     1      39.002 -10.958   4.609  1.00  0.00     0.063 A 
HETATM    9  C   UNL     1      39.144 -10.060   6.650  1.00  0.00     0.156 A 
HETATM   10  N   UNL     1      38.209  -9.854   4.755  1.00  0.00    -0.277 N 
HETATM   11  C   UNL     1      39.215 -11.810   3.525  1.00  0.00     0.034 A 
HETATM   12  H   UNL     1      37.601  -9.440   4.058  1.00  0.00     0.189 HD
HETATM   13  N   UNL     1      38.267  -9.285   5.972  1.00  0.00    -0.168 NA
HETATM   14  C   UNL     1      40.108 -12.876   3.710  1.00  0.00     0.032 A 
BRANCH   9  15
HETATM   15  C   UNL     1      39.494  -9.777   8.048  1.00  0.00     0.270 C 
HETATM   16  N   UNL     1      38.941 -10.642   8.950  1.00  0.00    -0.365 N 
HETATM   17  H   UNL     1      38.350 -11.390   8.605  1.00  0.00     0.159 HD
HETATM   18  H   UNL     1      39.124 -10.529   9.935  1.00  0.00     0.159 HD
HETATM   19  O   UNL     1      40.219  -8.854   8.406  1.00  0.00    -0.266 OA
ENDBRANCH   9  15
ENDBRANCH   2   5
BRANCH   1  20
HETATM   20  C   UNL     1      42.660 -16.197   6.001  1.00  0.00     0.278 C 
BRANCH  20  21
HETATM   21  O   UNL     1      43.477 -16.122   4.831  1.00  0.00    -0.342 OA
BRANCH  21  22
HETATM   22  C   UNL     1      43.577 -17.328   4.190  1.00  0.00     0.076 A 
HETATM   23  C   UNL     1      43.129 -17.488   2.870  1.00  0.00    -0.021 A 
HETATM   24  C   UNL     1      43.268 -18.770   2.293  1.00  0.00     0.010 A 
HETATM   25  C   UNL     1      43.781 -19.852   3.012  1.00  0.00     0.001 A 
HETATM   26  C   UNL     1      44.158 -19.685   4.336  1.00  0.00     0.003 A 
HETATM   27  C   UNL     1      44.047 -18.429   4.925  1.00  0.00     0.037 A 
BRANCH  23  28
HETATM   28  C   UNL     1      42.469 -16.416   2.003  1.00  0.00     0.017 C 
HETATM   29  C   UNL     1      43.182 -15.068   1.853  1.00  0.00     0.015 C 
BRANCH  28  30
HETATM   30  C   UNL     1      40.981 -16.202   2.383  1.00  0.00     0.004 C 
HETATM   31  C   UNL     1      40.093 -15.707   1.248  1.00  0.00     0.006 C 
ENDBRANCH  28  30
ENDBRANCH  23  28
ENDBRANCH  21  22
ENDBRANCH  20  21
ENDBRANCH   1  20
TORSDOF 7
ENDMDL
MODEL 6
REMARK VINA RESULT:      -8.0      2.037      3.830
REMARK  7 active torsions:
REMARK  status: ('A' for Active; 'I' for Inactive)
REMARK    1  A    between atoms: C_2  and  C_3 
REMARK    2  A    between atoms: C_3  and  C_4 
REMARK    3  A    between atoms: C_5  and  O_6 
REMARK    4  A    between atoms: O_6  and  C_7 
REMARK    5  A    between atoms: C_7  and  C_8 
REMARK       I    between atoms: C_8  and  N_9 
REMARK    6  A    between atoms: N_9  and  C_10 
REMARK    7  A    between atoms: C_17  and  C_18 
REMARK       I    between atoms: C_18  and  N_19 
ROOT
HETATM    1  C   UNL     1      42.077 -14.148   6.668  1.00  0.00     0.246 C 
HETATM    2  N   UNL     1      42.348 -12.844   6.259  1.00  0.00    -0.325 N 
HETATM    3  O   UNL     1      42.733 -14.798   7.476  1.00  0.00    -0.271 OA
HETATM    4  H   UNL     1      41.691 -12.419   5.617  1.00  0.00     0.169 HD
ENDROOT
BRANCH   2   5
HETATM    5  C   UNL     1      43.450 -12.038   6.622  1.00  0.00     0.035 A 
HETATM    6  C   UNL     1      43.156 -10.803   7.228  1.00  0.00     0.046 A 
HETATM    7  C   UNL     1      44.204  -9.934   7.597  1.00  0.00     0.030 A 
HETATM    8  C   UNL     1      45.513 -10.328   7.355  1.00  0.00     0.063 A 
HETATM    9  C   UNL     1      44.310  -8.646   8.203  1.00  0.00     0.156 A 
HETATM   10  N   UNL     1      46.292  -9.299   7.808  1.00  0.00    -0.277 N 
HETATM   11  C   UNL     1      45.841 -11.547   6.761  1.00  0.00     0.034 A 
HETATM   12  H   UNL     1      47.304  -9.242   7.790  1.00  0.00     0.189 HD
HETATM   13  N   UNL     1      45.603  -8.268   8.327  1.00  0.00    -0.168 NA
HETATM   14  C   UNL     1      44.782 -12.392   6.400  1.00  0.00     0.032 A 
BRANCH   9  15
HETATM   15  C   UNL     1      43.212  -7.784   8.656  1.00  0.00     0.270 C 
HETATM   16  N   UNL     1      42.587  -8.221   9.790  1.00  0.00    -0.365 N 
HETATM   17  H   UNL     1      42.913  -9.079  10.223  1.00  0.00     0.159 HD
HETATM   18  H   UNL     1      41.820  -7.696  10.179  1.00  0.00     0.159 HD
HETATM   19  O   UNL     1      42.862  -6.753   8.089  1.00  0.00    -0.266 OA
ENDBRANCH   9  15
ENDBRANCH   2   5
BRANCH   1  20
HETATM   20  C   UNL     1      40.831 -14.714   5.971  1.00  0.00     0.278 C 
BRANCH  20  21
HETATM   21  O   UNL     1      41.038 -16.054   5.521  1.00  0.00    -0.342 OA
BRANCH  21  22
HETATM   22  C   UNL     1      41.565 -16.102   4.258  1.00  0.00     0.076 A 
HETATM   23  C   UNL     1      42.725 -16.842   3.982  1.00  0.00    -0.021 A 
HETATM   24  C   UNL     1      43.198 -16.828   2.651  1.00  0.00     0.010 A 
HETATM   25  C   UNL     1      42.576 -16.072   1.654  1.00  0.00     0.001 A 
HETATM   26  C   UNL     1      41.468 -15.297   1.965  1.00  0.00     0.003 A 
HETATM   27  C   UNL     1      40.971 -15.306   3.265  1.00  0.00     0.037 A 
BRANCH  23  28
HETATM   28  C   UNL     1      43.551 -17.637   4.993  1.00  0.00     0.017 C 
HETATM   29  C   UNL     1      44.623 -16.892   5.796  1.00  0.00     0.015 C 
BRANCH  28  30
HETATM   30  C   UNL     1      44.142 -18.927   4.369  1.00  0.00     0.004 C 
HETATM   31  C   UNL     1      44.056 -20.166   5.251  1.00  0.00     0.006 C 
ENDBRANCH  28  30
ENDBRANCH  23  28
ENDBRANCH  21  22
ENDBRANCH  20  21
ENDBRANCH   1  20
TORSDOF 7
ENDMDL
MODEL 7
REMARK VINA RESULT:      -7.9      5.640      7.625
REMARK  7 active torsions:
REMARK  status: ('A' for Active; 'I' for Inactive)
REMARK    1  A    between atoms: C_2  and  C_3 
REMARK    2  A    between atoms: C_3  and  C_4 
REMARK    3  A    between atoms: C_5  and  O_6 
REMARK    4  A    between atoms: O_6  and  C_7 
REMARK    5  A    between atoms: C_7  and  C_8 
REMARK       I    between atoms: C_8  and  N_9 
REMARK    6  A    between atoms: N_9  and  C_10 
REMARK    7  A    between atoms: C_17  and  C_18 
REMARK       I    between atoms: C_18  and  N_19 
ROOT
HETATM    1  C   UNL     1      40.857 -15.177   0.986  1.00  0.00     0.246 C 
HETATM    2  N   UNL     1      41.051 -14.286  -0.068  1.00  0.00    -0.325 N 
HETATM    3  O   UNL     1      39.792 -15.697   1.299  1.00  0.00    -0.271 OA
HETATM    4  H   UNL     1      41.999 -13.972  -0.234  1.00  0.00     0.169 HD
ENDROOT
BRANCH   2   5
HETATM    5  C   UNL     1      40.072 -13.747  -0.932  1.00  0.00     0.035 A 
HETATM    6  C   UNL     1      39.318 -12.669  -0.437  1.00  0.00     0.046 A 
HETATM    7  C   UNL     1      38.307 -12.093  -1.235  1.00  0.00     0.030 A 
HETATM    8  C   UNL     1      38.083 -12.610  -2.504  1.00  0.00     0.063 A 
HETATM    9  C   UNL     1      37.359 -11.035  -1.093  1.00  0.00     0.156 A 
HETATM   10  N   UNL     1      37.061 -11.866  -3.025  1.00  0.00    -0.277 N 
HETATM   11  C   UNL     1      38.815 -13.675  -3.029  1.00  0.00     0.034 A 
HETATM   12  H   UNL     1      36.634 -11.966  -3.938  1.00  0.00     0.189 HD
HETATM   13  N   UNL     1      36.599 -10.907  -2.204  1.00  0.00    -0.168 NA
HETATM   14  C   UNL     1      39.813 -14.233  -2.216  1.00  0.00     0.032 A 
BRANCH   9  15
HETATM   15  C   UNL     1      37.171 -10.160   0.070  1.00  0.00     0.270 C 
HETATM   16  N   UNL     1      36.469 -10.732   1.094  1.00  0.00    -0.365 N 
HETATM   17  H   UNL     1      36.139 -11.685   0.983  1.00  0.00     0.159 HD
HETATM   18  H   UNL     1      36.288 -10.209   1.937  1.00  0.00     0.159 HD
HETATM   19  O   UNL     1      37.595  -9.011   0.148  1.00  0.00    -0.266 OA
ENDBRANCH   9  15
ENDBRANCH   2   5
BRANCH   1  20
HETATM   20  C   UNL     1      42.163 -15.446   1.749  1.00  0.00     0.278 C 
BRANCH  20  21
HETATM   21  O   UNL     1      41.915 -15.983   3.049  1.00  0.00    -0.342 OA
BRANCH  21  22
HETATM   22  C   UNL     1      42.618 -17.137   3.276  1.00  0.00     0.076 A 
HETATM   23  C   UNL     1      43.296 -17.349   4.486  1.00  0.00    -0.021 A 
HETATM   24  C   UNL     1      43.998 -18.567   4.628  1.00  0.00     0.010 A 
HETATM   25  C   UNL     1      44.065 -19.505   3.595  1.00  0.00     0.001 A 
HETATM   26  C   UNL     1      43.440 -19.245   2.384  1.00  0.00     0.003 A 
HETATM   27  C   UNL     1      42.727 -18.061   2.223  1.00  0.00     0.037 A 
BRANCH  23  28
HETATM   28  C   UNL     1      43.379 -16.372   5.659  1.00  0.00     0.017 C 
HETATM   29  C   UNL     1      44.713 -16.246   6.401  1.00  0.00     0.015 C 
BRANCH  28  30
HETATM   30  C   UNL     1      42.217 -16.576   6.664  1.00  0.00     0.004 C 
HETATM   31  C   UNL     1      41.045 -15.617   6.495  1.00  0.00     0.006 C 
ENDBRANCH  28  30
ENDBRANCH  23  28
ENDBRANCH  21  22
ENDBRANCH  20  21
ENDBRANCH   1  20
TORSDOF 7
ENDMDL
MODEL 8
REMARK VINA RESULT:      -7.9      2.699      4.591
REMARK  7 active torsions:
REMARK  status: ('A' for Active; 'I' for Inactive)
REMARK    1  A    between atoms: C_2  and  C_3 
REMARK    2  A    between atoms: C_3  and  C_4 
REMARK    3  A    between atoms: C_5  and  O_6 
REMARK    4  A    between atoms: O_6  and  C_7 
REMARK    5  A    between atoms: C_7  and  C_8 
REMARK       I    between atoms: C_8  and  N_9 
REMARK    6  A    between atoms: N_9  and  C_10 
REMARK    7  A    between atoms: C_17  and  C_18 
REMARK       I    between atoms: C_18  and  N_19 
ROOT
HETATM    1  C   UNL     1      43.949 -11.687   4.015  1.00  0.00     0.246 C 
HETATM    2  N   UNL     1      43.441 -11.692   5.312  1.00  0.00    -0.325 N 
HETATM    3  O   UNL     1      45.072 -11.319   3.686  1.00  0.00    -0.271 OA
HETATM    4  H   UNL     1      42.508 -12.067   5.438  1.00  0.00     0.169 HD
ENDROOT
BRANCH   2   5
HETATM    5  C   UNL     1      44.068 -11.218   6.486  1.00  0.00     0.035 A 
HETATM    6  C   UNL     1      43.237 -10.610   7.444  1.00  0.00     0.046 A 
HETATM    7  C   UNL     1      43.796 -10.092   8.631  1.00  0.00     0.030 A 
HETATM    8  C   UNL     1      45.166 -10.200   8.827  1.00  0.00     0.063 A 
HETATM    9  C   UNL     1      43.307  -9.424   9.794  1.00  0.00     0.156 A 
HETATM   10  N   UNL     1      45.407  -9.617  10.040  1.00  0.00    -0.277 N 
HETATM   11  C   UNL     1      46.019 -10.800   7.901  1.00  0.00     0.034 A 
HETATM   12  H   UNL     1      46.303  -9.514  10.503  1.00  0.00     0.189 HD
HETATM   13  N   UNL     1      44.311  -9.137  10.653  1.00  0.00    -0.168 NA
HETATM   14  C   UNL     1      45.441 -11.306   6.726  1.00  0.00     0.032 A 
BRANCH   9  15
HETATM   15  C   UNL     1      41.916  -9.059  10.091  1.00  0.00     0.270 C 
HETATM   16  N   UNL     1      41.198 -10.044  10.709  1.00  0.00    -0.365 N 
HETATM   17  H   UNL     1      41.657 -10.925  10.910  1.00  0.00     0.159 HD
HETATM   18  H   UNL     1      40.232  -9.888  10.953  1.00  0.00     0.159 HD
HETATM   19  O   UNL     1      41.413  -7.972   9.823  1.00  0.00    -0.266 OA
ENDBRANCH   9  15
ENDBRANCH   2   5
BRANCH   1  20
HETATM   20  C   UNL     1      42.918 -12.201   3.000  1.00  0.00     0.278 C 
BRANCH  20  21
HETATM   21  O   UNL     1      42.076 -13.209   3.562  1.00  0.00    -0.342 OA
BRANCH  21  22
HETATM   22  C   UNL     1      42.495 -14.473   3.242  1.00  0.00     0.076 A 
HETATM   23  C   UNL     1      42.772 -15.421   4.238  1.00  0.00    -0.021 A 
HETATM   24  C   UNL     1      43.203 -16.697   3.813  1.00  0.00     0.010 A 
HETATM   25  C   UNL     1      43.400 -16.998   2.463  1.00  0.00     0.001 A 
HETATM   26  C   UNL     1      43.181 -16.025   1.499  1.00  0.00     0.003 A 
HETATM   27  C   UNL     1      42.739 -14.764   1.889  1.00  0.00     0.037 A 
BRANCH  23  28
HETATM   28  C   UNL     1      42.686 -15.196   5.748  1.00  0.00     0.017 C 
HETATM   29  C   UNL     1      43.995 -15.080   6.537  1.00  0.00     0.015 C 
BRANCH  28  30
HETATM   30  C   UNL     1      41.732 -16.210   6.429  1.00  0.00     0.004 C 
HETATM   31  C   UNL     1      40.259 -15.823   6.406  1.00  0.00     0.006 C 
ENDBRANCH  28  30
ENDBRANCH  23  28
ENDBRANCH  21  22
ENDBRANCH  20  21
ENDBRANCH   1  20
TORSDOF 7
ENDMDL
MODEL 9
REMARK VINA RESULT:      -7.9      4.891      6.771
REMARK  7 active torsions:
REMARK  status: ('A' for Active; 'I' for Inactive)
REMARK    1  A    between atoms: C_2  and  C_3 
REMARK    2  A    between atoms: C_3  and  C_4 
REMARK    3  A    between atoms: C_5  and  O_6 
REMARK    4  A    between atoms: O_6  and  C_7 
REMARK    5  A    between atoms: C_7  and  C_8 
REMARK       I    between atoms: C_8  and  N_9 
REMARK    6  A    between atoms: N_9  and  C_10 
REMARK    7  A    between atoms: C_17  and  C_18 
REMARK       I    between atoms: C_18  and  N_19 
ROOT
HETATM    1  C   UNL     1      39.948 -13.934   2.844  1.00  0.00     0.246 C 
HETATM    2  N   UNL     1      40.619 -14.334   1.691  1.00  0.00    -0.325 N 
HETATM    3  O   UNL     1      39.093 -13.057   2.909  1.00  0.00    -0.271 OA
HETATM    4  H   UNL     1      41.270 -15.105   1.783  1.00  0.00     0.169 HD
ENDROOT
BRANCH   2   5
HETATM    5  C   UNL     1      40.513 -13.780   0.396  1.00  0.00     0.035 A 
HETATM    6  C   UNL     1      40.984 -12.465   0.232  1.00  0.00     0.046 A 
HETATM    7  C   UNL     1      40.891 -11.837  -1.028  1.00  0.00     0.030 A 
HETATM    8  C   UNL     1      40.334 -12.542  -2.086  1.00  0.00     0.063 A 
HETATM    9  C   UNL     1      41.236 -10.563  -1.572  1.00  0.00     0.156 A 
HETATM   10  N   UNL     1      40.376 -11.689  -3.153  1.00  0.00    -0.277 N 
HETATM   11  C   UNL     1      39.862 -13.848  -1.961  1.00  0.00     0.034 A 
HETATM   12  H   UNL     1      40.050 -11.871  -4.096  1.00  0.00     0.189 HD
HETATM   13  N   UNL     1      40.913 -10.487  -2.883  1.00  0.00    -0.168 NA
HETATM   14  C   UNL     1      39.962 -14.451  -0.698  1.00  0.00     0.032 A 
BRANCH   9  15
HETATM   15  C   UNL     1      41.858  -9.434  -0.869  1.00  0.00     0.270 C 
HETATM   16  N   UNL     1      41.074  -8.878   0.103  1.00  0.00    -0.365 N 
HETATM   17  H   UNL     1      40.152  -9.268   0.264  1.00  0.00     0.159 HD
HETATM   18  H   UNL     1      41.414  -8.097   0.641  1.00  0.00     0.159 HD
HETATM   19  O   UNL     1      42.983  -9.005  -1.108  1.00  0.00    -0.266 OA
ENDBRANCH   9  15
ENDBRANCH   2   5
BRANCH   1  20
HETATM   20  C   UNL     1      40.413 -14.727   4.075  1.00  0.00     0.278 C 
BRANCH  20  21
HETATM   21  O   UNL     1      40.983 -15.985   3.711  1.00  0.00    -0.342 OA
BRANCH  21  22
HETATM   22  C   UNL     1      41.942 -16.396   4.598  1.00  0.00     0.076 A 
HETATM   23  C   UNL     1      43.110 -17.038   4.159  1.00  0.00    -0.021 A 
HETATM   24  C   UNL     1      44.040 -17.431   5.148  1.00  0.00     0.010 A 
HETATM   25  C   UNL     1      43.795 -17.241   6.510  1.00  0.00     0.001 A 
HETATM   26  C   UNL     1      42.604 -16.662   6.923  1.00  0.00     0.003 A 
HETATM   27  C   UNL     1      41.678 -16.250   5.970  1.00  0.00     0.037 A 
BRANCH  23  28
HETATM   28  C   UNL     1      43.461 -17.387   2.713  1.00  0.00     0.017 C 
HETATM   29  C   UNL     1      43.363 -16.279   1.658  1.00  0.00     0.015 C 
BRANCH  28  30
HETATM   30  C   UNL     1      42.721 -18.661   2.231  1.00  0.00     0.004 C 
HETATM   31  C   UNL     1      43.570 -19.926   2.204  1.00  0.00     0.006 C 
ENDBRANCH  28  30
ENDBRANCH  23  28
ENDBRANCH  21  22
ENDBRANCH  20  21
ENDBRANCH   1  20
TORSDOF 7
ENDMDL
MODEL 10
REMARK VINA RESULT:      -7.8      5.077      7.842
REMARK  7 active torsions:
REMARK  status: ('A' for Active; 'I' for Inactive)
REMARK    1  A    between atoms: C_2  and  C_3 
REMARK    2  A    between atoms: C_3  and  C_4 
REMARK    3  A    between atoms: C_5  and  O_6 
REMARK    4  A    between atoms: O_6  and  C_7 
REMARK    5  A    between atoms: C_7  and  C_8 
REMARK       I    between atoms: C_8  and  N_9 
REMARK    6  A    between atoms: N_9  and  C_10 
REMARK    7  A    between atoms: C_17  and  C_18 
REMARK       I    between atoms: C_18  and  N_19 
ROOT
HETATM    1  C   UNL     1      40.240 -14.714   3.240  1.00  0.00     0.246 C 
HETATM    2  N   UNL     1      40.623 -14.982   1.927  1.00  0.00    -0.325 N 
HETATM    3  O   UNL     1      39.747 -13.666   3.644  1.00  0.00    -0.271 OA
HETATM    4  H   UNL     1      40.976 -15.911   1.733  1.00  0.00     0.169 HD
ENDROOT
BRANCH   2   5
HETATM    5  C   UNL     1      40.594 -14.100   0.824  1.00  0.00     0.035 A 
HETATM    6  C   UNL     1      39.910 -14.544  -0.322  1.00  0.00     0.046 A 
HETATM    7  C   UNL     1      39.858 -13.727  -1.470  1.00  0.00     0.030 A 
HETATM    8  C   UNL     1      40.488 -12.491  -1.439  1.00  0.00     0.063 A 
HETATM    9  C   UNL     1      39.293 -13.822  -2.777  1.00  0.00     0.156 A 
HETATM   10  N   UNL     1      40.273 -11.942  -2.672  1.00  0.00    -0.277 N 
HETATM   11  C   UNL     1      41.171 -12.016  -0.319  1.00  0.00     0.034 A 
HETATM   12  H   UNL     1      40.593 -11.039  -3.005  1.00  0.00     0.189 HD
HETATM   13  N   UNL     1      39.556 -12.714  -3.507  1.00  0.00    -0.168 NA
HETATM   14  C   UNL     1      41.211 -12.847   0.811  1.00  0.00     0.032 A 
BRANCH   9  15
HETATM   15  C   UNL     1      38.518 -14.939  -3.333  1.00  0.00     0.270 C 
HETATM   16  N   UNL     1      38.389 -16.006  -2.488  1.00  0.00    -0.365 N 
HETATM   17  H   UNL     1      38.821 -15.954  -1.572  1.00  0.00     0.159 HD
HETATM   18  H   UNL     1      37.874 -16.822  -2.779  1.00  0.00     0.159 HD
HETATM   19  O   UNL     1      38.017 -14.944  -4.453  1.00  0.00    -0.266 OA
ENDBRANCH   9  15
ENDBRANCH   2   5
BRANCH   1  20
HETATM   20  C   UNL     1      40.517 -15.907   4.167  1.00  0.00     0.278 C 
BRANCH  20  21
HETATM   21  O   UNL     1      41.643 -16.668   3.729  1.00  0.00    -0.342 OA
BRANCH  21  22
HETATM   22  C   UNL     1      42.704 -16.567   4.590  1.00  0.00     0.076 A 
HETATM   23  C   UNL     1      43.580 -17.644   4.792  1.00  0.00    -0.021 A 
HETATM   24  C   UNL     1      44.643 -17.449   5.703  1.00  0.00     0.010 A 
HETATM   25  C   UNL     1      44.794 -16.259   6.417  1.00  0.00     0.001 A 
HETATM   26  C   UNL     1      43.877 -15.231   6.249  1.00  0.00     0.003 A 
HETATM   27  C   UNL     1      42.831 -15.390   5.345  1.00  0.00     0.037 A 
BRANCH  23  28
HETATM   28  C   UNL     1      43.478 -19.026   4.146  1.00  0.00     0.017 C 
HETATM   29  C   UNL     1      44.226 -20.189   4.806  1.00  0.00     0.015 C 
BRANCH  28  30
HETATM   30  C   UNL     1      43.784 -18.978   2.627  1.00  0.00     0.004 C 
HETATM   31  C   UNL     1      43.638 -20.308   1.899  1.00  0.00     0.006 C 
ENDBRANCH  28  30
ENDBRANCH  23  28
ENDBRANCH  21  22
ENDBRANCH  20  21
ENDBRANCH   1  20
TORSDOF 7
ENDMDL
