MODEL 1
REMARK VINA RESULT:      -8.2      0.000      0.000
REMARK  5 active torsions:
REMARK  status: ('A' for Active; 'I' for Inactive)
REMARK    1  A    between atoms: C_4  and  N_5 
REMARK    2  A    between atoms: N_5  and  C_6 
REMARK    3  A    between atoms: C_6  and  C_7 
REMARK       I    between atoms: C_7  and  N_8 
REMARK    4  A    between atoms: N_8  and  N_9 
REMARK    5  A    between atoms: C_10  and  C_11 
ROOT
HETATM    1  C   UNL     1      41.996 -12.621   2.197  1.00  0.00     0.250 C 
HETATM    2  N   UNL     1      41.564 -13.942   2.291  1.00  0.00    -0.246 N 
HETATM    3  O   UNL     1      42.844 -12.078   2.902  1.00  0.00    -0.270 OA
HETATM    4  H   UNL     1      41.079 -14.319   1.478  1.00  0.00     0.192 HD
ENDROOT
BRANCH   2   5
HETATM    5  N   UNL     1      42.031 -14.903   3.155  1.00  0.00    -0.184 NA
HETATM    6  C   UNL     1      42.924 -15.746   2.747  1.00  0.00     0.152 C 
BRANCH   6   7
HETATM    7  C   UNL     1      43.389 -16.784   3.649  1.00  0.00     0.011 A 
HETATM    8  C   UNL     1      43.493 -18.185   3.364  1.00  0.00     0.004 A 
HETATM    9  C   UNL     1      43.988 -18.809   4.510  1.00  0.00     0.043 A 
HETATM   10  C   UNL     1      43.201 -18.985   2.238  1.00  0.00     0.014 A 
HETATM   11  C   UNL     1      44.210 -20.190   4.585  1.00  0.00     0.030 A 
HETATM   12  N   UNL     1      44.178 -17.828   5.454  1.00  0.00    -0.364 N 
HETATM   13  C   UNL     1      43.912 -20.958   3.456  1.00  0.00     0.002 A 
HETATM   14  C   UNL     1      43.414 -20.367   2.298  1.00  0.00     0.001 A 
HETATM   15  H   UNL     1      44.530 -17.992   6.387  1.00  0.00     0.165 HD
HETATM   16  C   UNL     1      43.816 -16.608   4.951  1.00  0.00     0.102 A 
ENDBRANCH   6   7
ENDBRANCH   2   5
BRANCH   1  17
HETATM   17  C   UNL     1      41.291 -11.865   1.069  1.00  0.00     0.197 C 
BRANCH  17  18
HETATM   18  N   UNL     1      41.265 -12.691  -0.149  1.00  0.00    -0.284 NA
HETATM   19  H   UNL     1      41.957 -12.362  -0.824  1.00  0.00     0.128 HD
BRANCH  18  20
HETATM   20  C   UNL     1      40.017 -12.839  -0.785  1.00  0.00     0.009 A 
HETATM   21  C   UNL     1      39.775 -13.782  -1.794  1.00  0.00     0.030 A 
HETATM   22  C   UNL     1      38.533 -13.856  -2.446  1.00  0.00    -0.060 A 
HETATM   23  C   UNL     1      38.277 -14.908  -3.485  1.00  0.00     0.048 C 
HETATM   24  C   UNL     1      37.519 -12.964  -2.087  1.00  0.00     0.007 A 
HETATM   25  C   UNL     1      37.758 -11.988  -1.125  1.00  0.00     0.002 A 
HETATM   26  C   UNL     1      39.004 -11.916  -0.496  1.00  0.00     0.023 A 
ENDBRANCH  18  20
ENDBRANCH  17  18
ENDBRANCH   1  17
TORSDOF 5
ENDMDL
MODEL 2
REMARK VINA RESULT:      -8.1      1.678      8.360
REMARK  5 active torsions:
REMARK  status: ('A' for Active; 'I' for Inactive)
REMARK    1  A    between atoms: C_4  and  N_5 
REMARK    2  A    between atoms: N_5  and  C_6 
REMARK    3  A    between atoms: C_6  and  C_7 
REMARK       I    between atoms: C_7  and  N_8 
REMARK    4  A    between atoms: N_8  and  N_9 
REMARK    5  A    between atoms: C_10  and  C_11 
ROOT
HETATM    1  C   UNL     1      41.234 -15.572   3.803  1.00  0.00     0.250 C 
HETATM    2  N   UNL     1      41.330 -14.565   2.845  1.00  0.00    -0.246 N 
HETATM    3  O   UNL     1      40.250 -16.270   4.033  1.00  0.00    -0.270 OA
HETATM    4  H   UNL     1      42.272 -14.276   2.583  1.00  0.00     0.192 HD
ENDROOT
BRANCH   2   5
HETATM    5  N   UNL     1      40.362 -14.189   1.945  1.00  0.00    -0.184 NA
HETATM    6  C   UNL     1      40.534 -13.119   1.237  1.00  0.00     0.152 C 
BRANCH   6   7
HETATM    7  C   UNL     1      39.495 -12.701   0.314  1.00  0.00     0.011 A 
HETATM    8  C   UNL     1      39.080 -13.384  -0.876  1.00  0.00     0.004 A 
HETATM    9  C   UNL     1      38.054 -12.634  -1.453  1.00  0.00     0.043 A 
HETATM   10  C   UNL     1      39.489 -14.569  -1.524  1.00  0.00     0.014 A 
HETATM   11  C   UNL     1      37.416 -13.010  -2.641  1.00  0.00     0.030 A 
HETATM   12  N   UNL     1      37.853 -11.538  -0.647  1.00  0.00    -0.364 N 
HETATM   13  C   UNL     1      37.841 -14.187  -3.263  1.00  0.00     0.002 A 
HETATM   14  C   UNL     1      38.863 -14.958  -2.715  1.00  0.00     0.001 A 
HETATM   15  H   UNL     1      37.167 -10.817  -0.822  1.00  0.00     0.165 HD
HETATM   16  C   UNL     1      38.717 -11.564   0.414  1.00  0.00     0.102 A 
ENDBRANCH   6   7
ENDBRANCH   2   5
BRANCH   1  17
HETATM   17  C   UNL     1      42.540 -15.749   4.582  1.00  0.00     0.197 C 
BRANCH  17  18
HETATM   18  N   UNL     1      43.574 -16.318   3.704  1.00  0.00    -0.284 NA
HETATM   19  H   UNL     1      43.564 -15.863   2.789  1.00  0.00     0.128 HD
BRANCH  18  20
HETATM   20  C   UNL     1      43.560 -17.716   3.535  1.00  0.00     0.009 A 
HETATM   21  C   UNL     1      43.989 -18.615   4.523  1.00  0.00     0.030 A 
HETATM   22  C   UNL     1      44.016 -20.001   4.292  1.00  0.00    -0.060 A 
HETATM   23  C   UNL     1      44.426 -20.948   5.380  1.00  0.00     0.048 C 
HETATM   24  C   UNL     1      43.615 -20.493   3.047  1.00  0.00     0.007 A 
HETATM   25  C   UNL     1      43.236 -19.613   2.038  1.00  0.00     0.002 A 
HETATM   26  C   UNL     1      43.229 -18.237   2.277  1.00  0.00     0.023 A 
ENDBRANCH  18  20
ENDBRANCH  17  18
ENDBRANCH   1  17
TORSDOF 5
ENDMDL
MODEL 3
REMARK VINA RESULT:      -8.1      0.938      1.564
REMARK  5 active torsions:
REMARK  status: ('A' for Active; 'I' for Inactive)
REMARK    1  A    between atoms: C_4  and  N_5 
REMARK    2  A    between atoms: N_5  and  C_6 
REMARK    3  A    between atoms: C_6  and  C_7 
REMARK       I    between atoms: C_7  and  N_8 
REMARK    4  A    between atoms: N_8  and  N_9 
REMARK    5  A    between atoms: C_10  and  C_11 
ROOT
HETATM    1  C   UNL     1      40.722 -13.384   2.075  1.00  0.00     0.250 C 
HETATM    2  N   UNL     1      41.474 -14.518   1.781  1.00  0.00    -0.246 N 
HETATM    3  O   UNL     1      40.213 -13.105   3.158  1.00  0.00    -0.270 OA
HETATM    4  H   UNL     1      42.054 -14.474   0.944  1.00  0.00     0.192 HD
ENDROOT
BRANCH   2   5
HETATM    5  N   UNL     1      41.830 -15.520   2.652  1.00  0.00    -0.184 NA
HETATM    6  C   UNL     1      43.080 -15.701   2.936  1.00  0.00     0.152 C 
BRANCH   6   7
HETATM    7  C   UNL     1      43.459 -16.782   3.827  1.00  0.00     0.011 A 
HETATM    8  C   UNL     1      43.547 -18.175   3.498  1.00  0.00     0.004 A 
HETATM    9  C   UNL     1      43.950 -18.852   4.649  1.00  0.00     0.043 A 
HETATM   10  C   UNL     1      43.311 -18.926   2.327  1.00  0.00     0.014 A 
HETATM   11  C   UNL     1      44.133 -20.240   4.688  1.00  0.00     0.030 A 
HETATM   12  N   UNL     1      44.101 -17.911   5.640  1.00  0.00    -0.364 N 
HETATM   13  C   UNL     1      43.891 -20.959   3.515  1.00  0.00     0.002 A 
HETATM   14  C   UNL     1      43.486 -20.315   2.349  1.00  0.00     0.001 A 
HETATM   15  H   UNL     1      44.387 -18.116   6.588  1.00  0.00     0.165 HD
HETATM   16  C   UNL     1      43.803 -16.664   5.160  1.00  0.00     0.102 A 
ENDBRANCH   6   7
ENDBRANCH   2   5
BRANCH   1  17
HETATM   17  C   UNL     1      40.585 -12.457   0.864  1.00  0.00     0.197 C 
BRANCH  17  18
HETATM   18  N   UNL     1      40.907 -13.192  -0.369  1.00  0.00    -0.284 NA
HETATM   19  H   UNL     1      41.716 -12.778  -0.836  1.00  0.00     0.128 HD
BRANCH  18  20
HETATM   20  C   UNL     1      39.861 -13.360  -1.296  1.00  0.00     0.009 A 
HETATM   21  C   UNL     1      38.856 -12.404  -1.504  1.00  0.00     0.030 A 
HETATM   22  C   UNL     1      37.795 -12.637  -2.395  1.00  0.00    -0.060 A 
HETATM   23  C   UNL     1      36.760 -11.580  -2.643  1.00  0.00     0.048 C 
HETATM   24  C   UNL     1      37.735 -13.852  -3.083  1.00  0.00     0.007 A 
HETATM   25  C   UNL     1      38.695 -14.833  -2.851  1.00  0.00     0.002 A 
HETATM   26  C   UNL     1      39.735 -14.593  -1.950  1.00  0.00     0.023 A 
ENDBRANCH  18  20
ENDBRANCH  17  18
ENDBRANCH   1  17
TORSDOF 5
ENDMDL
MODEL 4
REMARK VINA RESULT:      -8.0      5.279      8.923
REMARK  5 active torsions:
REMARK  status: ('A' for Active; 'I' for Inactive)
REMARK    1  A    between atoms: C_4  and  N_5 
REMARK    2  A    between atoms: N_5  and  C_6 
REMARK    3  A    between atoms: C_6  and  C_7 
REMARK       I    between atoms: C_7  and  N_8 
REMARK    4  A    between atoms: N_8  and  N_9 
REMARK    5  A    between atoms: C_10  and  C_11 
ROOT
HETATM    1  C   UNL     1      43.110 -15.453   7.632  1.00  0.00     0.250 C 
HETATM    2  N   UNL     1      43.440 -14.307   6.912  1.00  0.00    -0.246 N 
HETATM    3  O   UNL     1      43.218 -15.610   8.846  1.00  0.00    -0.270 OA
HETATM    4  H   UNL     1      43.039 -14.226   5.979  1.00  0.00     0.192 HD
ENDROOT
BRANCH   2   5
HETATM    5  N   UNL     1      43.907 -13.119   7.423  1.00  0.00    -0.184 NA
HETATM    6  C   UNL     1      44.570 -12.314   6.655  1.00  0.00     0.152 C 
BRANCH   6   7
HETATM    7  C   UNL     1      45.094 -11.078   7.204  1.00  0.00     0.011 A 
HETATM    8  C   UNL     1      44.345 -10.035   7.841  1.00  0.00     0.004 A 
HETATM    9  C   UNL     1      45.248  -9.040   8.217  1.00  0.00     0.043 A 
HETATM   10  C   UNL     1      42.976  -9.839   8.124  1.00  0.00     0.014 A 
HETATM   11  C   UNL     1      44.853  -7.863   8.864  1.00  0.00     0.030 A 
HETATM   12  N   UNL     1      46.498  -9.459   7.825  1.00  0.00    -0.364 N 
HETATM   13  C   UNL     1      43.492  -7.694   9.132  1.00  0.00     0.002 A 
HETATM   14  C   UNL     1      42.563  -8.666   8.768  1.00  0.00     0.001 A 
HETATM   15  H   UNL     1      47.349  -8.935   7.969  1.00  0.00     0.165 HD
HETATM   16  C   UNL     1      46.418 -10.679   7.210  1.00  0.00     0.102 A 
ENDBRANCH   6   7
ENDBRANCH   2   5
BRANCH   1  17
HETATM   17  C   UNL     1      42.559 -16.558   6.728  1.00  0.00     0.197 C 
BRANCH  17  18
HETATM   18  N   UNL     1      43.661 -17.206   5.999  1.00  0.00    -0.284 NA
HETATM   19  H   UNL     1      44.521 -16.663   6.086  1.00  0.00     0.128 HD
BRANCH  18  20
HETATM   20  C   UNL     1      43.429 -17.510   4.643  1.00  0.00     0.009 A 
HETATM   21  C   UNL     1      43.747 -18.747   4.067  1.00  0.00     0.030 A 
HETATM   22  C   UNL     1      43.556 -18.989   2.696  1.00  0.00    -0.060 A 
HETATM   23  C   UNL     1      43.852 -20.338   2.109  1.00  0.00     0.048 C 
HETATM   24  C   UNL     1      43.045 -17.970   1.888  1.00  0.00     0.007 A 
HETATM   25  C   UNL     1      42.772 -16.719   2.432  1.00  0.00     0.002 A 
HETATM   26  C   UNL     1      42.982 -16.488   3.794  1.00  0.00     0.023 A 
ENDBRANCH  18  20
ENDBRANCH  17  18
ENDBRANCH   1  17
TORSDOF 5
ENDMDL
MODEL 5
REMARK VINA RESULT:      -8.0      6.255      9.024
REMARK  5 active torsions:
REMARK  status: ('A' for Active; 'I' for Inactive)
REMARK    1  A    between atoms: C_4  and  N_5 
REMARK    2  A    between atoms: N_5  and  C_6 
REMARK    3  A    between atoms: C_6  and  C_7 
REMARK       I    between atoms: C_7  and  N_8 
REMARK    4  A    between atoms: N_8  and  N_9 
REMARK    5  A    between atoms: C_10  and  C_11 
ROOT
HETATM    1  C   UNL     1      44.704 -11.571   7.169  1.00  0.00     0.250 C 
HETATM    2  N   UNL     1      43.628 -12.453   7.227  1.00  0.00    -0.246 N 
HETATM    3  O   UNL     1      45.360 -11.285   6.171  1.00  0.00    -0.270 OA
HETATM    4  H   UNL     1      43.019 -12.374   8.041  1.00  0.00     0.192 HD
ENDROOT
BRANCH   2   5
HETATM    5  N   UNL     1      43.065 -13.138   6.177  1.00  0.00    -0.184 NA
HETATM    6  C   UNL     1      43.453 -14.346   5.924  1.00  0.00     0.152 C 
BRANCH   6   7
HETATM    7  C   UNL     1      42.885 -15.055   4.793  1.00  0.00     0.011 A 
HETATM    8  C   UNL     1      43.259 -16.356   4.319  1.00  0.00     0.004 A 
HETATM    9  C   UNL     1      42.455 -16.647   3.216  1.00  0.00     0.043 A 
HETATM   10  C   UNL     1      44.217 -17.311   4.721  1.00  0.00     0.014 A 
HETATM   11  C   UNL     1      42.558 -17.844   2.498  1.00  0.00     0.030 A 
HETATM   12  N   UNL     1      41.624 -15.568   3.025  1.00  0.00    -0.364 N 
HETATM   13  C   UNL     1      43.515 -18.772   2.916  1.00  0.00     0.002 A 
HETATM   14  C   UNL     1      44.335 -18.513   4.012  1.00  0.00     0.001 A 
HETATM   15  H   UNL     1      40.932 -15.500   2.292  1.00  0.00     0.165 HD
HETATM   16  C   UNL     1      41.877 -14.603   3.962  1.00  0.00     0.102 A 
ENDBRANCH   6   7
ENDBRANCH   2   5
BRANCH   1  17
HETATM   17  C   UNL     1      45.007 -10.946   8.533  1.00  0.00     0.197 C 
BRANCH  17  18
HETATM   18  N   UNL     1      43.855 -11.117   9.431  1.00  0.00    -0.284 NA
HETATM   19  H   UNL     1      43.027 -11.406   8.907  1.00  0.00     0.128 HD
BRANCH  18  20
HETATM   20  C   UNL     1      43.532 -10.024  10.259  1.00  0.00     0.009 A 
HETATM   21  C   UNL     1      43.079 -10.166  11.578  1.00  0.00     0.030 A 
HETATM   22  C   UNL     1      42.710  -9.051  12.351  1.00  0.00    -0.060 A 
HETATM   23  C   UNL     1      42.280  -9.220  13.778  1.00  0.00     0.048 C 
HETATM   24  C   UNL     1      42.787  -7.775  11.788  1.00  0.00     0.007 A 
HETATM   25  C   UNL     1      43.185  -7.619  10.463  1.00  0.00     0.002 A 
HETATM   26  C   UNL     1      43.534  -8.738   9.703  1.00  0.00     0.023 A 
ENDBRANCH  18  20
ENDBRANCH  17  18
ENDBRANCH   1  17
TORSDOF 5
ENDMDL
MODEL 6
REMARK VINA RESULT:      -7.9      6.288      8.990
REMARK  5 active torsions:
REMARK  status: ('A' for Active; 'I' for Inactive)
REMARK    1  A    between atoms: C_4  and  N_5 
REMARK    2  A    between atoms: N_5  and  C_6 
REMARK    3  A    between atoms: C_6  and  C_7 
REMARK       I    between atoms: C_7  and  N_8 
REMARK    4  A    between atoms: N_8  and  N_9 
REMARK    5  A    between atoms: C_10  and  C_11 
ROOT
HETATM    1  C   UNL     1      44.192 -11.746   7.146  1.00  0.00     0.250 C 
HETATM    2  N   UNL     1      43.557 -12.966   7.362  1.00  0.00    -0.246 N 
HETATM    3  O   UNL     1      45.144 -11.539   6.396  1.00  0.00    -0.270 OA
HETATM    4  H   UNL     1      42.629 -12.928   7.780  1.00  0.00     0.192 HD
ENDROOT
BRANCH   2   5
HETATM    5  N   UNL     1      43.842 -14.163   6.749  1.00  0.00    -0.184 NA
HETATM    6  C   UNL     1      42.909 -15.052   6.624  1.00  0.00     0.152 C 
BRANCH   6   7
HETATM    7  C   UNL     1      43.218 -16.329   6.010  1.00  0.00     0.011 A 
HETATM    8  C   UNL     1      43.235 -16.626   4.608  1.00  0.00     0.004 A 
HETATM    9  C   UNL     1      43.587 -17.969   4.468  1.00  0.00     0.043 A 
HETATM   10  C   UNL     1      42.972 -15.878   3.441  1.00  0.00     0.014 A 
HETATM   11  C   UNL     1      43.694 -18.600   3.223  1.00  0.00     0.030 A 
HETATM   12  N   UNL     1      43.778 -18.471   5.735  1.00  0.00    -0.364 N 
HETATM   13  C   UNL     1      43.427 -17.836   2.084  1.00  0.00     0.002 A 
HETATM   14  C   UNL     1      43.070 -16.494   2.187  1.00  0.00     0.001 A 
HETATM   15  H   UNL     1      44.041 -19.425   5.940  1.00  0.00     0.165 HD
HETATM   16  C   UNL     1      43.553 -17.497   6.669  1.00  0.00     0.102 A 
ENDBRANCH   6   7
ENDBRANCH   2   5
BRANCH   1  17
HETATM   17  C   UNL     1      43.557 -10.617   7.962  1.00  0.00     0.197 C 
BRANCH  17  18
HETATM   18  N   UNL     1      43.656 -10.920   9.398  1.00  0.00    -0.284 NA
HETATM   19  H   UNL     1      43.074 -11.724   9.640  1.00  0.00     0.128 HD
BRANCH  18  20
HETATM   20  C   UNL     1      43.390  -9.860  10.287  1.00  0.00     0.009 A 
HETATM   21  C   UNL     1      42.987 -10.052  11.616  1.00  0.00     0.030 A 
HETATM   22  C   UNL     1      42.673  -8.967  12.451  1.00  0.00    -0.060 A 
HETATM   23  C   UNL     1      42.295  -9.192  13.886  1.00  0.00     0.048 C 
HETATM   24  C   UNL     1      42.756  -7.668  11.944  1.00  0.00     0.007 A 
HETATM   25  C   UNL     1      43.105  -7.460  10.613  1.00  0.00     0.002 A 
HETATM   26  C   UNL     1      43.399  -8.550   9.789  1.00  0.00     0.023 A 
ENDBRANCH  18  20
ENDBRANCH  17  18
ENDBRANCH   1  17
TORSDOF 5
ENDMDL
MODEL 7
REMARK VINA RESULT:      -7.9      4.496      8.210
REMARK  5 active torsions:
REMARK  status: ('A' for Active; 'I' for Inactive)
REMARK    1  A    between atoms: C_4  and  N_5 
REMARK    2  A    between atoms: N_5  and  C_6 
REMARK    3  A    between atoms: C_6  and  C_7 
REMARK       I    between atoms: C_7  and  N_8 
REMARK    4  A    between atoms: N_8  and  N_9 
REMARK    5  A    between atoms: C_10  and  C_11 
ROOT
HETATM    1  C   UNL     1      40.587 -14.151   3.601  1.00  0.00     0.250 C 
HETATM    2  N   UNL     1      41.541 -13.821   4.561  1.00  0.00    -0.246 N 
HETATM    3  O   UNL     1      39.627 -13.465   3.259  1.00  0.00    -0.270 OA
HETATM    4  H   UNL     1      42.414 -14.347   4.533  1.00  0.00     0.192 HD
ENDROOT
BRANCH   2   5
HETATM    5  N   UNL     1      41.620 -12.650   5.276  1.00  0.00    -0.184 NA
HETATM    6  C   UNL     1      42.746 -12.308   5.814  1.00  0.00     0.152 C 
BRANCH   6   7
HETATM    7  C   UNL     1      42.820 -11.091   6.600  1.00  0.00     0.011 A 
HETATM    8  C   UNL     1      43.995 -10.520   7.191  1.00  0.00     0.004 A 
HETATM    9  C   UNL     1      43.608  -9.353   7.851  1.00  0.00     0.043 A 
HETATM   10  C   UNL     1      45.355 -10.895   7.235  1.00  0.00     0.014 A 
HETATM   11  C   UNL     1      44.511  -8.541   8.548  1.00  0.00     0.030 A 
HETATM   12  N   UNL     1      42.252  -9.217   7.669  1.00  0.00    -0.364 N 
HETATM   13  C   UNL     1      45.851  -8.936   8.576  1.00  0.00     0.002 A 
HETATM   14  C   UNL     1      46.271 -10.096   7.931  1.00  0.00     0.001 A 
HETATM   15  H   UNL     1      41.697  -8.459   8.039  1.00  0.00     0.165 HD
HETATM   16  C   UNL     1      41.766 -10.258   6.925  1.00  0.00     0.102 A 
ENDBRANCH   6   7
ENDBRANCH   2   5
BRANCH   1  17
HETATM   17  C   UNL     1      40.861 -15.517   2.966  1.00  0.00     0.197 C 
BRANCH  17  18
HETATM   18  N   UNL     1      42.282 -15.625   2.602  1.00  0.00    -0.284 NA
HETATM   19  H   UNL     1      42.411 -15.479   1.599  1.00  0.00     0.128 HD
BRANCH  18  20
HETATM   20  C   UNL     1      42.948 -16.801   2.998  1.00  0.00     0.009 A 
HETATM   21  C   UNL     1      42.930 -17.985   2.247  1.00  0.00     0.030 A 
HETATM   22  C   UNL     1      43.557 -19.155   2.708  1.00  0.00    -0.060 A 
HETATM   23  C   UNL     1      43.573 -20.396   1.865  1.00  0.00     0.048 C 
HETATM   24  C   UNL     1      44.205 -19.141   3.946  1.00  0.00     0.007 A 
HETATM   25  C   UNL     1      44.189 -17.989   4.728  1.00  0.00     0.002 A 
HETATM   26  C   UNL     1      43.548 -16.838   4.264  1.00  0.00     0.023 A 
ENDBRANCH  18  20
ENDBRANCH  17  18
ENDBRANCH   1  17
TORSDOF 5
ENDMDL
MODEL 8
REMARK VINA RESULT:      -7.6      5.125      9.116
REMARK  5 active torsions:
REMARK  status: ('A' for Active; 'I' for Inactive)
REMARK    1  A    between atoms: C_4  and  N_5 
REMARK    2  A    between atoms: N_5  and  C_6 
REMARK    3  A    between atoms: C_6  and  C_7 
REMARK       I    between atoms: C_7  and  N_8 
REMARK    4  A    between atoms: N_8  and  N_9 
REMARK    5  A    between atoms: C_10  and  C_11 
ROOT
HETATM    1  C   UNL     1      42.738 -13.789   4.380  1.00  0.00     0.250 C 
HETATM    2  N   UNL     1      43.182 -13.459   5.658  1.00  0.00    -0.246 N 
HETATM    3  O   UNL     1      42.624 -13.023   3.426  1.00  0.00    -0.270 OA
HETATM    4  H   UNL     1      43.487 -14.233   6.247  1.00  0.00     0.192 HD
ENDROOT
BRANCH   2   5
HETATM    5  N   UNL     1      43.621 -12.229   6.086  1.00  0.00    -0.184 NA
HETATM    6  C   UNL     1      44.413 -12.156   7.108  1.00  0.00     0.152 C 
BRANCH   6   7
HETATM    7  C   UNL     1      44.846 -10.856   7.583  1.00  0.00     0.011 A 
HETATM    8  C   UNL     1      44.010  -9.794   8.062  1.00  0.00     0.004 A 
HETATM    9  C   UNL     1      44.843  -8.733   8.417  1.00  0.00     0.043 A 
HETATM   10  C   UNL     1      42.617  -9.633   8.216  1.00  0.00     0.014 A 
HETATM   11  C   UNL     1      44.355  -7.522   8.922  1.00  0.00     0.030 A 
HETATM   12  N   UNL     1      46.135  -9.131   8.166  1.00  0.00    -0.364 N 
HETATM   13  C   UNL     1      42.971  -7.388   9.064  1.00  0.00     0.002 A 
HETATM   14  C   UNL     1      42.111  -8.427   8.716  1.00  0.00     0.001 A 
HETATM   15  H   UNL     1      46.953  -8.561   8.329  1.00  0.00     0.165 HD
HETATM   16  C   UNL     1      46.150 -10.402   7.659  1.00  0.00     0.102 A 
ENDBRANCH   6   7
ENDBRANCH   2   5
BRANCH   1  17
HETATM   17  C   UNL     1      42.393 -15.275   4.259  1.00  0.00     0.197 C 
BRANCH  17  18
HETATM   18  N   UNL     1      43.575 -16.092   4.576  1.00  0.00    -0.284 NA
HETATM   19  H   UNL     1      44.430 -15.622   4.275  1.00  0.00     0.128 HD
BRANCH  18  20
HETATM   20  C   UNL     1      43.571 -17.418   4.101  1.00  0.00     0.009 A 
HETATM   21  C   UNL     1      43.987 -18.512   4.872  1.00  0.00     0.030 A 
HETATM   22  C   UNL     1      44.026 -19.812   4.340  1.00  0.00    -0.060 A 
HETATM   23  C   UNL     1      44.422 -20.977   5.199  1.00  0.00     0.048 C 
HETATM   24  C   UNL     1      43.651 -20.018   3.010  1.00  0.00     0.007 A 
HETATM   25  C   UNL     1      43.285 -18.936   2.214  1.00  0.00     0.002 A 
HETATM   26  C   UNL     1      43.266 -17.647   2.753  1.00  0.00     0.023 A 
ENDBRANCH  18  20
ENDBRANCH  17  18
ENDBRANCH   1  17
TORSDOF 5
ENDMDL
MODEL 9
REMARK VINA RESULT:      -7.6      1.786      2.267
REMARK  5 active torsions:
REMARK  status: ('A' for Active; 'I' for Inactive)
REMARK    1  A    between atoms: C_4  and  N_5 
REMARK    2  A    between atoms: N_5  and  C_6 
REMARK    3  A    between atoms: C_6  and  C_7 
REMARK       I    between atoms: C_7  and  N_8 
REMARK    4  A    between atoms: N_8  and  N_9 
REMARK    5  A    between atoms: C_10  and  C_11 
ROOT
HETATM    1  C   UNL     1      40.606 -14.657   0.364  1.00  0.00     0.250 C 
HETATM    2  N   UNL     1      41.918 -14.604   0.827  1.00  0.00    -0.246 N 
HETATM    3  O   UNL     1      39.820 -15.590   0.502  1.00  0.00    -0.270 OA
HETATM    4  H   UNL     1      42.343 -13.680   0.885  1.00  0.00     0.192 HD
ENDROOT
BRANCH   2   5
HETATM    5  N   UNL     1      42.572 -15.563   1.563  1.00  0.00    -0.184 NA
HETATM    6  C   UNL     1      42.319 -15.676   2.828  1.00  0.00     0.152 C 
BRANCH   6   7
HETATM    7  C   UNL     1      43.036 -16.664   3.612  1.00  0.00     0.011 A 
HETATM    8  C   UNL     1      43.235 -18.044   3.280  1.00  0.00     0.004 A 
HETATM    9  C   UNL     1      43.980 -18.619   4.311  1.00  0.00     0.043 A 
HETATM   10  C   UNL     1      42.842 -18.863   2.200  1.00  0.00     0.014 A 
HETATM   11  C   UNL     1      44.354 -19.969   4.314  1.00  0.00     0.030 A 
HETATM   12  N   UNL     1      44.225 -17.630   5.234  1.00  0.00    -0.364 N 
HETATM   13  C   UNL     1      43.950 -20.757   3.234  1.00  0.00     0.002 A 
HETATM   14  C   UNL     1      43.204 -20.216   2.190  1.00  0.00     0.001 A 
HETATM   15  H   UNL     1      44.745 -17.760   6.090  1.00  0.00     0.165 HD
HETATM   16  C   UNL     1      43.657 -16.452   4.829  1.00  0.00     0.102 A 
ENDBRANCH   6   7
ENDBRANCH   2   5
BRANCH   1  17
HETATM   17  C   UNL     1      40.203 -13.372  -0.365  1.00  0.00     0.197 C 
BRANCH  17  18
HETATM   18  N   UNL     1      38.892 -13.550  -1.008  1.00  0.00    -0.284 NA
HETATM   19  H   UNL     1      38.974 -14.138  -1.840  1.00  0.00     0.128 HD
BRANCH  18  20
HETATM   20  C   UNL     1      38.180 -12.377  -1.326  1.00  0.00     0.009 A 
HETATM   21  C   UNL     1      37.171 -12.330  -2.297  1.00  0.00     0.030 A 
HETATM   22  C   UNL     1      36.526 -11.125  -2.627  1.00  0.00    -0.060 A 
HETATM   23  C   UNL     1      35.411 -11.105  -3.631  1.00  0.00     0.048 C 
HETATM   24  C   UNL     1      36.906  -9.947  -1.978  1.00  0.00     0.007 A 
HETATM   25  C   UNL     1      37.942  -9.967  -1.048  1.00  0.00     0.002 A 
HETATM   26  C   UNL     1      38.584 -11.169  -0.742  1.00  0.00     0.023 A 
ENDBRANCH  18  20
ENDBRANCH  17  18
ENDBRANCH   1  17
TORSDOF 5
ENDMDL
MODEL 10
REMARK VINA RESULT:      -7.5      2.231      2.730
REMARK  5 active torsions:
REMARK  status: ('A' for Active; 'I' for Inactive)
REMARK    1  A    between atoms: C_4  and  N_5 
REMARK    2  A    between atoms: N_5  and  C_6 
REMARK    3  A    between atoms: C_6  and  C_7 
REMARK       I    between atoms: C_7  and  N_8 
REMARK    4  A    between atoms: N_8  and  N_9 
REMARK    5  A    between atoms: C_10  and  C_11 
ROOT
HETATM    1  C   UNL     1      40.308 -14.579   0.336  1.00  0.00     0.250 C 
HETATM    2  N   UNL     1      41.385 -14.253   1.157  1.00  0.00    -0.246 N 
HETATM    3  O   UNL     1      39.636 -15.607   0.387  1.00  0.00    -0.270 OA
HETATM    4  H   UNL     1      41.655 -13.271   1.183  1.00  0.00     0.192 HD
ENDROOT
BRANCH   2   5
HETATM    5  N   UNL     1      41.876 -14.993   2.206  1.00  0.00    -0.184 NA
HETATM    6  C   UNL     1      42.737 -15.931   1.976  1.00  0.00     0.152 C 
BRANCH   6   7
HETATM    7  C   UNL     1      43.227 -16.736   3.080  1.00  0.00     0.011 A 
HETATM    8  C   UNL     1      43.420 -18.156   3.086  1.00  0.00     0.004 A 
HETATM    9  C   UNL     1      43.907 -18.506   4.347  1.00  0.00     0.043 A 
HETATM   10  C   UNL     1      43.216 -19.182   2.139  1.00  0.00     0.014 A 
HETATM   11  C   UNL     1      44.204 -19.827   4.705  1.00  0.00     0.030 A 
HETATM   12  N   UNL     1      44.007 -17.346   5.078  1.00  0.00    -0.364 N 
HETATM   13  C   UNL     1      43.992 -20.823   3.748  1.00  0.00     0.002 A 
HETATM   14  C   UNL     1      43.504 -20.508   2.481  1.00  0.00     0.001 A 
HETATM   15  H   UNL     1      44.333 -17.297   6.033  1.00  0.00     0.165 HD
HETATM   16  C   UNL     1      43.595 -16.277   4.330  1.00  0.00     0.102 A 
ENDBRANCH   6   7
ENDBRANCH   2   5
BRANCH   1  17
HETATM   17  C   UNL     1      40.012 -13.479  -0.685  1.00  0.00     0.197 C 
BRANCH  17  18
HETATM   18  N   UNL     1      41.168 -12.575  -0.799  1.00  0.00    -0.284 NA
HETATM   19  H   UNL     1      41.602 -12.426   0.114  1.00  0.00     0.128 HD
BRANCH  18  20
HETATM   20  C   UNL     1      40.939 -11.333  -1.422  1.00  0.00     0.009 A 
HETATM   21  C   UNL     1      39.928 -11.122  -2.370  1.00  0.00     0.030 A 
HETATM   22  C   UNL     1      39.773  -9.883  -3.014  1.00  0.00    -0.060 A 
HETATM   23  C   UNL     1      38.651  -9.662  -3.985  1.00  0.00     0.048 C 
HETATM   24  C   UNL     1      40.651  -8.840  -2.708  1.00  0.00     0.007 A 
HETATM   25  C   UNL     1      41.692  -9.046  -1.808  1.00  0.00     0.002 A 
HETATM   26  C   UNL     1      41.844 -10.289  -1.188  1.00  0.00     0.023 A 
ENDBRANCH  18  20
ENDBRANCH  17  18
ENDBRANCH   1  17
TORSDOF 5
ENDMDL
