MODEL 1
REMARK VINA RESULT:     -10.2      0.000      0.000
REMARK  7 active torsions:
REMARK  status: ('A' for Active; 'I' for Inactive)
REMARK    1  A    between atoms: C_6  and  N_7 
REMARK    2  A    between atoms: C_10  and  C_11 
REMARK       I    between atoms: C_11  and  N_12 
REMARK    3  A    between atoms: N_12  and  C_13 
REMARK    4  A    between atoms: C_16  and  C_17 
REMARK    5  A    between atoms: C_17  and  N_18 
REMARK    6  A    between atoms: C_21  and  C_22 
REMARK       I    between atoms: C_22  and  N_23 
REMARK    7  A    between atoms: C_31  and  C_32 
ROOT
HETATM    1  C   UNL     1      42.658 -13.692   5.681  1.00  0.00     0.278 C 
HETATM    2  N   UNL     1      43.723 -12.829   5.869  1.00  0.00    -0.322 N 
HETATM    3  O   UNL     1      41.521 -13.543   6.107  1.00  0.00    -0.265 OA
HETATM    4  H   UNL     1      44.583 -13.097   5.397  1.00  0.00     0.169 HD
ENDROOT
BRANCH   2   5
HETATM    5  C   UNL     1      43.731 -11.624   6.597  1.00  0.00     0.035 A 
HETATM    6  C   UNL     1      42.655 -10.739   6.645  1.00  0.00     0.030 A 
HETATM    7  C   UNL     1      42.737  -9.553   7.382  1.00  0.00     0.011 A 
HETATM    8  C   UNL     1      43.899  -9.230   8.094  1.00  0.00    -0.032 A 
HETATM    9  C   UNL     1      44.979 -10.119   8.051  1.00  0.00     0.011 A 
HETATM   10  C   UNL     1      44.892 -11.306   7.311  1.00  0.00     0.030 A 
BRANCH   8  11
HETATM   11  C   UNL     1      43.970  -7.948   8.881  1.00  0.00     0.273 C 
BRANCH  11  12
HETATM   12  N   UNL     1      43.137  -7.969  10.142  1.00  0.00    -0.066 N 
HETATM   13  H   UNL     1      42.249  -8.449   9.888  1.00  0.00     0.280 HD
HETATM   14  C   UNL     1      43.735  -8.827  11.236  1.00  0.00     0.249 C 
HETATM   15  C   UNL     1      42.777  -8.936  12.423  1.00  0.00     0.103 C 
HETATM   16  C   UNL     1      42.358  -7.551  12.924  1.00  0.00     0.017 C 
HETATM   17  C   UNL     1      41.830  -6.662  11.795  1.00  0.00     0.029 C 
HETATM   18  C   UNL     1      42.790  -6.586  10.615  1.00  0.00     0.235 C 
BRANCH  15  19
HETATM   19  C   UNL     1      41.558  -9.737  12.005  1.00  0.00     0.221 C 
HETATM   20  N   UNL     1      40.868 -10.349  13.001  1.00  0.00    -0.370 N 
HETATM   21  H   UNL     1      41.179 -10.401  13.964  1.00  0.00     0.159 HD
HETATM   22  H   UNL     1      40.050 -10.897  12.754  1.00  0.00     0.159 HD
HETATM   23  O   UNL     1      41.171  -9.752  10.839  1.00  0.00    -0.273 OA
ENDBRANCH  15  19
ENDBRANCH  11  12
ENDBRANCH   8  11
ENDBRANCH   2   5
BRANCH   1  24
HETATM   24  C   UNL     1      43.007 -14.845   4.858  1.00  0.00     0.175 C 
HETATM   25  N   UNL     1      42.856 -14.859   3.499  1.00  0.00    -0.152 NA
HETATM   26  N   UNL     1      43.244 -16.045   3.061  1.00  0.00     0.011 NA
HETATM   27  N   UNL     1      43.527 -16.839   4.134  1.00  0.00    -0.231 N 
HETATM   28  C   UNL     1      43.550 -16.051   5.263  1.00  0.00     0.174 C 
BRANCH  27  29
HETATM   29  C   UNL     1      43.683 -18.241   3.943  1.00  0.00     0.058 A 
HETATM   30  C   UNL     1      43.474 -18.777   2.661  1.00  0.00     0.073 A 
HETATM   31  C   UNL     1      43.610 -20.146   2.453  1.00  0.00     0.118 A 
HETATM   32  C   UNL     1      43.931 -21.004   3.497  1.00  0.00     0.042 A 
HETATM   33  F   UNL     1      43.429 -20.644   1.223  1.00  0.00    -0.206 F 
HETATM   34  C   UNL     1      44.111 -20.485   4.775  1.00  0.00     0.005 A 
HETATM   35  C   UNL     1      43.982 -19.109   5.003  1.00  0.00     0.031 A 
ENDBRANCH  27  29
BRANCH  28  36
HETATM   36  C   UNL     1      44.103 -16.439   6.556  1.00  0.00     0.436 C 
HETATM   37  F   UNL     1      43.897 -15.498   7.512  1.00  0.00    -0.165 F 
HETATM   38  F   UNL     1      43.534 -17.569   7.043  1.00  0.00    -0.165 F 
HETATM   39  F   UNL     1      45.439 -16.649   6.489  1.00  0.00    -0.165 F 
ENDBRANCH  28  36
ENDBRANCH   1  24
TORSDOF 7
ENDMDL
MODEL 2
REMARK VINA RESULT:      -9.7      4.718     10.879
REMARK  7 active torsions:
REMARK  status: ('A' for Active; 'I' for Inactive)
REMARK    1  A    between atoms: C_6  and  N_7 
REMARK    2  A    between atoms: C_10  and  C_11 
REMARK       I    between atoms: C_11  and  N_12 
REMARK    3  A    between atoms: N_12  and  C_13 
REMARK    4  A    between atoms: C_16  and  C_17 
REMARK    5  A    between atoms: C_17  and  N_18 
REMARK    6  A    between atoms: C_21  and  C_22 
REMARK       I    between atoms: C_22  and  N_23 
REMARK    7  A    between atoms: C_31  and  C_32 
ROOT
HETATM    1  C   UNL     1      44.383 -11.096   8.298  1.00  0.00     0.278 C 
HETATM    2  N   UNL     1      43.273 -11.399   7.531  1.00  0.00    -0.322 N 
HETATM    3  O   UNL     1      45.553 -11.241   7.967  1.00  0.00    -0.265 OA
HETATM    4  H   UNL     1      42.380 -11.165   7.956  1.00  0.00     0.169 HD
ENDROOT
BRANCH   2   5
HETATM    5  C   UNL     1      43.250 -11.951   6.236  1.00  0.00     0.035 A 
HETATM    6  C   UNL     1      43.657 -11.266   5.093  1.00  0.00     0.030 A 
HETATM    7  C   UNL     1      43.598 -11.874   3.834  1.00  0.00     0.011 A 
HETATM    8  C   UNL     1      43.133 -13.187   3.694  1.00  0.00    -0.032 A 
HETATM    9  C   UNL     1      42.727 -13.879   4.842  1.00  0.00     0.011 A 
HETATM   10  C   UNL     1      42.789 -13.266   6.099  1.00  0.00     0.030 A 
BRANCH   8  11
HETATM   11  C   UNL     1      43.074 -13.826   2.332  1.00  0.00     0.273 C 
BRANCH  11  12
HETATM   12  N   UNL     1      41.696 -13.796   1.712  1.00  0.00    -0.066 N 
HETATM   13  H   UNL     1      41.027 -13.756   2.509  1.00  0.00     0.280 HD
HETATM   14  C   UNL     1      41.426 -12.532   0.924  1.00  0.00     0.249 C 
HETATM   15  C   UNL     1      39.970 -12.488   0.454  1.00  0.00     0.103 C 
HETATM   16  C   UNL     1      39.601 -13.756  -0.321  1.00  0.00     0.017 C 
HETATM   17  C   UNL     1      39.953 -15.029   0.452  1.00  0.00     0.029 C 
HETATM   18  C   UNL     1      41.400 -15.042   0.927  1.00  0.00     0.235 C 
BRANCH  15  19
HETATM   19  C   UNL     1      39.065 -12.324   1.661  1.00  0.00     0.221 C 
HETATM   20  N   UNL     1      37.746 -12.132   1.404  1.00  0.00    -0.370 N 
HETATM   21  H   UNL     1      37.361 -11.975   0.480  1.00  0.00     0.159 HD
HETATM   22  H   UNL     1      37.115 -12.014   2.189  1.00  0.00     0.159 HD
HETATM   23  O   UNL     1      39.494 -12.449   2.806  1.00  0.00    -0.273 OA
ENDBRANCH  15  19
ENDBRANCH  11  12
ENDBRANCH   8  11
ENDBRANCH   2   5
BRANCH   1  24
HETATM   24  C   UNL     1      44.034 -10.523   9.593  1.00  0.00     0.175 C 
HETATM   25  N   UNL     1      43.940 -11.271  10.734  1.00  0.00    -0.152 NA
HETATM   26  N   UNL     1      43.594 -10.461  11.721  1.00  0.00     0.011 NA
HETATM   27  N   UNL     1      43.345  -9.223  11.207  1.00  0.00    -0.231 N 
HETATM   28  C   UNL     1      43.782  -9.199   9.901  1.00  0.00     0.174 C 
BRANCH  27  29
HETATM   29  C   UNL     1      42.678  -8.255  12.010  1.00  0.00     0.058 A 
HETATM   30  C   UNL     1      43.220  -7.928  13.265  1.00  0.00     0.073 A 
HETATM   31  C   UNL     1      42.580  -6.993  14.072  1.00  0.00     0.118 A 
HETATM   32  C   UNL     1      41.397  -6.385  13.671  1.00  0.00     0.042 A 
HETATM   33  F   UNL     1      43.114  -6.673  15.257  1.00  0.00    -0.206 F 
HETATM   34  C   UNL     1      40.839  -6.724  12.442  1.00  0.00     0.005 A 
HETATM   35  C   UNL     1      41.471  -7.661  11.614  1.00  0.00     0.031 A 
ENDBRANCH  27  29
BRANCH  28  36
HETATM   36  C   UNL     1      43.980  -7.998   9.096  1.00  0.00     0.436 C 
HETATM   37  F   UNL     1      43.131  -7.935   8.040  1.00  0.00    -0.165 F 
HETATM   38  F   UNL     1      43.755  -6.862   9.800  1.00  0.00    -0.165 F 
HETATM   39  F   UNL     1      45.237  -7.928   8.598  1.00  0.00    -0.165 F 
ENDBRANCH  28  36
ENDBRANCH   1  24
TORSDOF 7
ENDMDL
MODEL 3
REMARK VINA RESULT:      -9.6      3.653     10.862
REMARK  7 active torsions:
REMARK  status: ('A' for Active; 'I' for Inactive)
REMARK    1  A    between atoms: C_6  and  N_7 
REMARK    2  A    between atoms: C_10  and  C_11 
REMARK       I    between atoms: C_11  and  N_12 
REMARK    3  A    between atoms: N_12  and  C_13 
REMARK    4  A    between atoms: C_16  and  C_17 
REMARK    5  A    between atoms: C_17  and  N_18 
REMARK    6  A    between atoms: C_21  and  C_22 
REMARK       I    between atoms: C_22  and  N_23 
REMARK    7  A    between atoms: C_31  and  C_32 
ROOT
HETATM    1  C   UNL     1      42.299  -9.109   8.253  1.00  0.00     0.278 C 
HETATM    2  N   UNL     1      41.811 -10.328   7.816  1.00  0.00    -0.322 N 
HETATM    3  O   UNL     1      43.015  -8.347   7.618  1.00  0.00    -0.265 OA
HETATM    4  H   UNL     1      41.190 -10.801   8.467  1.00  0.00     0.169 HD
ENDROOT
BRANCH   2   5
HETATM    5  C   UNL     1      42.050 -10.952   6.577  1.00  0.00     0.035 A 
HETATM    6  C   UNL     1      41.167 -10.900   5.499  1.00  0.00     0.030 A 
HETATM    7  C   UNL     1      41.464 -11.553   4.298  1.00  0.00     0.011 A 
HETATM    8  C   UNL     1      42.657 -12.270   4.149  1.00  0.00    -0.032 A 
HETATM    9  C   UNL     1      43.547 -12.321   5.229  1.00  0.00     0.011 A 
HETATM   10  C   UNL     1      43.245 -11.665   6.428  1.00  0.00     0.030 A 
BRANCH   8  11
HETATM   11  C   UNL     1      42.961 -12.969   2.850  1.00  0.00     0.273 C 
BRANCH  11  12
HETATM   12  N   UNL     1      43.004 -14.475   2.972  1.00  0.00    -0.066 N 
HETATM   13  H   UNL     1      43.819 -14.687   3.583  1.00  0.00     0.280 HD
HETATM   14  C   UNL     1      41.813 -15.046   3.713  1.00  0.00     0.249 C 
HETATM   15  C   UNL     1      41.989 -16.549   3.941  1.00  0.00     0.103 C 
HETATM   16  C   UNL     1      42.269 -17.279   2.625  1.00  0.00     0.017 C 
HETATM   17  C   UNL     1      43.423 -16.644   1.845  1.00  0.00     0.029 C 
HETATM   18  C   UNL     1      43.238 -15.145   1.648  1.00  0.00     0.235 C 
BRANCH  15  19
HETATM   19  C   UNL     1      43.125 -16.772   4.922  1.00  0.00     0.221 C 
HETATM   20  N   UNL     1      43.487 -18.061   5.142  1.00  0.00    -0.370 N 
HETATM   21  H   UNL     1      42.978 -18.865   4.793  1.00  0.00     0.159 HD
HETATM   22  H   UNL     1      44.241 -18.244   5.797  1.00  0.00     0.159 HD
HETATM   23  O   UNL     1      43.738 -15.829   5.417  1.00  0.00    -0.273 OA
ENDBRANCH  15  19
ENDBRANCH  11  12
ENDBRANCH   8  11
ENDBRANCH   2   5
BRANCH   1  24
HETATM   24  C   UNL     1      41.837  -8.766   9.593  1.00  0.00     0.175 C 
HETATM   25  N   UNL     1      40.644  -8.141   9.829  1.00  0.00    -0.152 NA
HETATM   26  N   UNL     1      40.534  -7.961  11.135  1.00  0.00     0.011 NA
HETATM   27  N   UNL     1      41.696  -8.351  11.733  1.00  0.00    -0.231 N 
HETATM   28  C   UNL     1      42.461  -9.019  10.801  1.00  0.00     0.174 C 
BRANCH  27  29
HETATM   29  C   UNL     1      41.940  -7.988  13.087  1.00  0.00     0.058 A 
HETATM   30  C   UNL     1      41.048  -8.430  14.078  1.00  0.00     0.073 A 
HETATM   31  C   UNL     1      41.260  -8.078  15.407  1.00  0.00     0.118 A 
HETATM   32  C   UNL     1      42.333  -7.277  15.777  1.00  0.00     0.042 A 
HETATM   33  F   UNL     1      40.416  -8.521  16.347  1.00  0.00    -0.206 F 
HETATM   34  C   UNL     1      43.206  -6.811  14.798  1.00  0.00     0.005 A 
HETATM   35  C   UNL     1      43.009  -7.158  13.456  1.00  0.00     0.031 A 
ENDBRANCH  27  29
BRANCH  28  36
HETATM   36  C   UNL     1      43.621  -9.851  11.098  1.00  0.00     0.436 C 
HETATM   37  F   UNL     1      43.767 -10.870  10.215  1.00  0.00    -0.165 F 
HETATM   38  F   UNL     1      44.784  -9.158  11.034  1.00  0.00    -0.165 F 
HETATM   39  F   UNL     1      43.542 -10.404  12.332  1.00  0.00    -0.165 F 
ENDBRANCH  28  36
ENDBRANCH   1  24
TORSDOF 7
ENDMDL
MODEL 4
REMARK VINA RESULT:      -9.5      3.722      4.720
REMARK  7 active torsions:
REMARK  status: ('A' for Active; 'I' for Inactive)
REMARK    1  A    between atoms: C_6  and  N_7 
REMARK    2  A    between atoms: C_10  and  C_11 
REMARK       I    between atoms: C_11  and  N_12 
REMARK    3  A    between atoms: N_12  and  C_13 
REMARK    4  A    between atoms: C_16  and  C_17 
REMARK    5  A    between atoms: C_17  and  N_18 
REMARK    6  A    between atoms: C_21  and  C_22 
REMARK       I    between atoms: C_22  and  N_23 
REMARK    7  A    between atoms: C_31  and  C_32 
ROOT
HETATM    1  C   UNL     1      42.409 -13.175   5.503  1.00  0.00     0.278 C 
HETATM    2  N   UNL     1      42.927 -11.894   5.560  1.00  0.00    -0.322 N 
HETATM    3  O   UNL     1      42.139 -13.890   6.459  1.00  0.00    -0.265 OA
HETATM    4  H   UNL     1      43.041 -11.435   4.660  1.00  0.00     0.169 HD
ENDROOT
BRANCH   2   5
HETATM    5  C   UNL     1      43.269 -11.158   6.711  1.00  0.00     0.035 A 
HETATM    6  C   UNL     1      44.434 -11.367   7.448  1.00  0.00     0.030 A 
HETATM    7  C   UNL     1      44.706 -10.604   8.588  1.00  0.00     0.011 A 
HETATM    8  C   UNL     1      43.818  -9.610   9.013  1.00  0.00    -0.032 A 
HETATM    9  C   UNL     1      42.649  -9.394   8.273  1.00  0.00     0.011 A 
HETATM   10  C   UNL     1      42.382 -10.160   7.131  1.00  0.00     0.030 A 
BRANCH   8  11
HETATM   11  C   UNL     1      44.126  -8.799  10.245  1.00  0.00     0.273 C 
BRANCH  11  12
HETATM   12  N   UNL     1      43.013  -8.813  11.268  1.00  0.00    -0.066 N 
HETATM   13  H   UNL     1      42.137  -8.630  10.737  1.00  0.00     0.280 HD
HETATM   14  C   UNL     1      42.801 -10.172  11.898  1.00  0.00     0.249 C 
HETATM   15  C   UNL     1      41.568 -10.163  12.804  1.00  0.00     0.103 C 
HETATM   16  C   UNL     1      41.654  -9.040  13.841  1.00  0.00     0.017 C 
HETATM   17  C   UNL     1      41.949  -7.682  13.201  1.00  0.00     0.029 C 
HETATM   18  C   UNL     1      43.167  -7.720  12.287  1.00  0.00     0.235 C 
BRANCH  15  19
HETATM   19  C   UNL     1      40.325  -9.998  11.948  1.00  0.00     0.221 C 
HETATM   20  N   UNL     1      39.134 -10.108  12.589  1.00  0.00    -0.370 N 
HETATM   21  H   UNL     1      39.028 -10.404  13.552  1.00  0.00     0.159 HD
HETATM   22  H   UNL     1      38.284 -10.007  12.044  1.00  0.00     0.159 HD
HETATM   23  O   UNL     1      40.402  -9.694  10.760  1.00  0.00    -0.273 OA
ENDBRANCH  15  19
ENDBRANCH  11  12
ENDBRANCH   8  11
ENDBRANCH   2   5
BRANCH   1  24
HETATM   24  C   UNL     1      42.162 -13.622   4.137  1.00  0.00     0.175 C 
HETATM   25  N   UNL     1      43.035 -14.415   3.446  1.00  0.00    -0.152 NA
HETATM   26  N   UNL     1      42.527 -14.624   2.243  1.00  0.00     0.011 NA
HETATM   27  N   UNL     1      41.395 -13.875   2.107  1.00  0.00    -0.231 N 
HETATM   28  C   UNL     1      41.056 -13.373   3.344  1.00  0.00     0.174 C 
BRANCH  27  29
HETATM   29  C   UNL     1      40.827 -13.698   0.814  1.00  0.00     0.058 A 
HETATM   30  C   UNL     1      40.128 -14.767   0.229  1.00  0.00     0.073 A 
HETATM   31  C   UNL     1      39.573 -14.619  -1.038  1.00  0.00     0.118 A 
HETATM   32  C   UNL     1      39.713 -13.436  -1.752  1.00  0.00     0.042 A 
HETATM   33  F   UNL     1      38.891 -15.637  -1.579  1.00  0.00    -0.206 F 
HETATM   34  C   UNL     1      40.429 -12.383  -1.192  1.00  0.00     0.005 A 
HETATM   35  C   UNL     1      40.991 -12.511   0.084  1.00  0.00     0.031 A 
ENDBRANCH  27  29
BRANCH  28  36
HETATM   36  C   UNL     1      39.768 -12.784   3.695  1.00  0.00     0.436 C 
HETATM   37  F   UNL     1      39.430 -13.011   4.989  1.00  0.00    -0.165 F 
HETATM   38  F   UNL     1      39.763 -11.436   3.559  1.00  0.00    -0.165 F 
HETATM   39  F   UNL     1      38.765 -13.276   2.931  1.00  0.00    -0.165 F 
ENDBRANCH  28  36
ENDBRANCH   1  24
TORSDOF 7
ENDMDL
MODEL 5
REMARK VINA RESULT:      -9.2      4.654     10.710
REMARK  7 active torsions:
REMARK  status: ('A' for Active; 'I' for Inactive)
REMARK    1  A    between atoms: C_6  and  N_7 
REMARK    2  A    between atoms: C_10  and  C_11 
REMARK       I    between atoms: C_11  and  N_12 
REMARK    3  A    between atoms: N_12  and  C_13 
REMARK    4  A    between atoms: C_16  and  C_17 
REMARK    5  A    between atoms: C_17  and  N_18 
REMARK    6  A    between atoms: C_21  and  C_22 
REMARK       I    between atoms: C_22  and  N_23 
REMARK    7  A    between atoms: C_31  and  C_32 
ROOT
HETATM    1  C   UNL     1      43.124 -11.200   6.705  1.00  0.00     0.278 C 
HETATM    2  N   UNL     1      42.246 -12.268   6.648  1.00  0.00    -0.322 N 
HETATM    3  O   UNL     1      43.620 -10.620   5.748  1.00  0.00    -0.265 OA
HETATM    4  H   UNL     1      41.901 -12.590   7.548  1.00  0.00     0.169 HD
ENDROOT
BRANCH   2   5
HETATM    5  C   UNL     1      41.761 -12.919   5.498  1.00  0.00     0.035 A 
HETATM    6  C   UNL     1      40.459 -12.781   5.019  1.00  0.00     0.030 A 
HETATM    7  C   UNL     1      40.041 -13.467   3.873  1.00  0.00     0.011 A 
HETATM    8  C   UNL     1      40.923 -14.304   3.178  1.00  0.00    -0.032 A 
HETATM    9  C   UNL     1      42.232 -14.441   3.654  1.00  0.00     0.011 A 
HETATM   10  C   UNL     1      42.645 -13.751   4.801  1.00  0.00     0.030 A 
BRANCH   8  11
HETATM   11  C   UNL     1      40.456 -15.036   1.947  1.00  0.00     0.273 C 
BRANCH  11  12
HETATM   12  N   UNL     1      40.123 -14.120   0.792  1.00  0.00    -0.066 N 
HETATM   13  H   UNL     1      39.276 -13.590   1.085  1.00  0.00     0.280 HD
HETATM   14  C   UNL     1      41.174 -13.057   0.553  1.00  0.00     0.249 C 
HETATM   15  C   UNL     1      40.710 -12.070  -0.520  1.00  0.00     0.103 C 
HETATM   16  C   UNL     1      40.306 -12.798  -1.805  1.00  0.00     0.017 C 
HETATM   17  C   UNL     1      39.304 -13.925  -1.540  1.00  0.00     0.029 C 
HETATM   18  C   UNL     1      39.776 -14.883  -0.455  1.00  0.00     0.235 C 
BRANCH  15  19
HETATM   19  C   UNL     1      39.543 -11.263   0.019  1.00  0.00     0.221 C 
HETATM   20  N   UNL     1      38.954 -10.401  -0.848  1.00  0.00    -0.370 N 
HETATM   21  H   UNL     1      39.314 -10.182  -1.769  1.00  0.00     0.159 HD
HETATM   22  H   UNL     1      38.174  -9.843  -0.516  1.00  0.00     0.159 HD
HETATM   23  O   UNL     1      39.103 -11.451   1.152  1.00  0.00    -0.273 OA
ENDBRANCH  15  19
ENDBRANCH  11  12
ENDBRANCH   8  11
ENDBRANCH   2   5
BRANCH   1  24
HETATM   24  C   UNL     1      43.401 -10.771   8.071  1.00  0.00     0.175 C 
HETATM   25  N   UNL     1      44.474 -11.225   8.787  1.00  0.00    -0.152 NA
HETATM   26  N   UNL     1      44.430 -10.661   9.982  1.00  0.00     0.011 NA
HETATM   27  N   UNL     1      43.274  -9.944  10.088  1.00  0.00    -0.231 N 
HETATM   28  C   UNL     1      42.699  -9.861   8.839  1.00  0.00     0.174 C 
BRANCH  27  29
HETATM   29  C   UNL     1      42.852  -9.485  11.367  1.00  0.00     0.058 A 
HETATM   30  C   UNL     1      43.624  -8.515  12.028  1.00  0.00     0.073 A 
HETATM   31  C   UNL     1      43.237  -8.059  13.284  1.00  0.00     0.118 A 
HETATM   32  C   UNL     1      42.105  -8.561  13.913  1.00  0.00     0.042 A 
HETATM   33  F   UNL     1      43.968  -7.120  13.896  1.00  0.00    -0.206 F 
HETATM   34  C   UNL     1      41.350  -9.543  13.279  1.00  0.00     0.005 A 
HETATM   35  C   UNL     1      41.723 -10.011  12.012  1.00  0.00     0.031 A 
ENDBRANCH  27  29
BRANCH  28  36
HETATM   36  C   UNL     1      41.633  -8.942   8.457  1.00  0.00     0.436 C 
HETATM   37  F   UNL     1      40.421  -9.549   8.397  1.00  0.00    -0.165 F 
HETATM   38  F   UNL     1      41.479  -7.931   9.347  1.00  0.00    -0.165 F 
HETATM   39  F   UNL     1      41.858  -8.386   7.242  1.00  0.00    -0.165 F 
ENDBRANCH  28  36
ENDBRANCH   1  24
TORSDOF 7
ENDMDL
MODEL 6
REMARK VINA RESULT:      -9.2      2.605      3.402
REMARK  7 active torsions:
REMARK  status: ('A' for Active; 'I' for Inactive)
REMARK    1  A    between atoms: C_6  and  N_7 
REMARK    2  A    between atoms: C_10  and  C_11 
REMARK       I    between atoms: C_11  and  N_12 
REMARK    3  A    between atoms: N_12  and  C_13 
REMARK    4  A    between atoms: C_16  and  C_17 
REMARK    5  A    between atoms: C_17  and  N_18 
REMARK    6  A    between atoms: C_21  and  C_22 
REMARK       I    between atoms: C_22  and  N_23 
REMARK    7  A    between atoms: C_31  and  C_32 
ROOT
HETATM    1  C   UNL     1      41.765 -11.942   5.329  1.00  0.00     0.278 C 
HETATM    2  N   UNL     1      42.264 -11.743   6.604  1.00  0.00    -0.322 N 
HETATM    3  O   UNL     1      41.468 -11.069   4.524  1.00  0.00    -0.265 OA
HETATM    4  H   UNL     1      42.499 -12.592   7.111  1.00  0.00     0.169 HD
ENDROOT
BRANCH   2   5
HETATM    5  C   UNL     1      42.513 -10.515   7.246  1.00  0.00     0.035 A 
HETATM    6  C   UNL     1      43.788 -10.053   7.569  1.00  0.00     0.030 A 
HETATM    7  C   UNL     1      43.961  -8.825   8.217  1.00  0.00     0.011 A 
HETATM    8  C   UNL     1      42.859  -8.029   8.550  1.00  0.00    -0.032 A 
HETATM    9  C   UNL     1      41.578  -8.489   8.222  1.00  0.00     0.011 A 
HETATM   10  C   UNL     1      41.410  -9.718   7.573  1.00  0.00     0.030 A 
BRANCH   8  11
HETATM   11  C   UNL     1      43.063  -6.710   9.248  1.00  0.00     0.273 C 
BRANCH  11  12
HETATM   12  N   UNL     1      42.798  -6.769  10.735  1.00  0.00    -0.066 N 
HETATM   13  H   UNL     1      43.354  -5.995  11.153  1.00  0.00     0.280 HD
HETATM   14  C   UNL     1      41.364  -6.450  11.097  1.00  0.00     0.249 C 
HETATM   15  C   UNL     1      41.194  -6.372  12.616  1.00  0.00     0.103 C 
HETATM   16  C   UNL     1      41.703  -7.646  13.295  1.00  0.00     0.017 C 
HETATM   17  C   UNL     1      43.126  -8.005  12.859  1.00  0.00     0.029 C 
HETATM   18  C   UNL     1      43.277  -8.056  11.345  1.00  0.00     0.235 C 
BRANCH  15  19
HETATM   19  C   UNL     1      41.944  -5.160  13.137  1.00  0.00     0.221 C 
HETATM   20  N   UNL     1      42.025  -5.035  14.486  1.00  0.00    -0.370 N 
HETATM   21  H   UNL     1      41.526  -5.621  15.145  1.00  0.00     0.159 HD
HETATM   22  H   UNL     1      42.516  -4.233  14.867  1.00  0.00     0.159 HD
HETATM   23  O   UNL     1      42.520  -4.386  12.375  1.00  0.00    -0.273 OA
ENDBRANCH  15  19
ENDBRANCH  11  12
ENDBRANCH   8  11
ENDBRANCH   2   5
BRANCH   1  24
HETATM   24  C   UNL     1      41.645 -13.354   4.985  1.00  0.00     0.175 C 
HETATM   25  N   UNL     1      40.809 -14.210   5.646  1.00  0.00    -0.152 NA
HETATM   26  N   UNL     1      40.947 -15.409   5.105  1.00  0.00     0.011 NA
HETATM   27  N   UNL     1      41.953 -15.362   4.184  1.00  0.00    -0.231 N 
HETATM   28  C   UNL     1      42.286 -14.043   3.972  1.00  0.00     0.174 C 
BRANCH  27  29
HETATM   29  C   UNL     1      42.491 -16.578   3.677  1.00  0.00     0.058 A 
HETATM   30  C   UNL     1      43.548 -17.192   4.370  1.00  0.00     0.073 A 
HETATM   31  C   UNL     1      44.098 -18.376   3.887  1.00  0.00     0.118 A 
HETATM   32  C   UNL     1      43.634 -18.958   2.715  1.00  0.00     0.042 A 
HETATM   33  F   UNL     1      45.090 -18.964   4.566  1.00  0.00    -0.206 F 
HETATM   34  C   UNL     1      42.607 -18.341   2.006  1.00  0.00     0.005 A 
HETATM   35  C   UNL     1      42.039 -17.152   2.479  1.00  0.00     0.031 A 
ENDBRANCH  27  29
BRANCH  28  36
HETATM   36  C   UNL     1      43.087 -13.540   2.861  1.00  0.00     0.436 C 
HETATM   37  F   UNL     1      42.332 -12.934   1.911  1.00  0.00    -0.165 F 
HETATM   38  F   UNL     1      43.982 -12.601   3.254  1.00  0.00    -0.165 F 
HETATM   39  F   UNL     1      43.776 -14.531   2.247  1.00  0.00    -0.165 F 
ENDBRANCH  28  36
ENDBRANCH   1  24
TORSDOF 7
ENDMDL
MODEL 7
REMARK VINA RESULT:      -9.2      7.810     10.262
REMARK  7 active torsions:
REMARK  status: ('A' for Active; 'I' for Inactive)
REMARK    1  A    between atoms: C_6  and  N_7 
REMARK    2  A    between atoms: C_10  and  C_11 
REMARK       I    between atoms: C_11  and  N_12 
REMARK    3  A    between atoms: N_12  and  C_13 
REMARK    4  A    between atoms: C_16  and  C_17 
REMARK    5  A    between atoms: C_17  and  N_18 
REMARK    6  A    between atoms: C_21  and  C_22 
REMARK       I    between atoms: C_22  and  N_23 
REMARK    7  A    between atoms: C_31  and  C_32 
ROOT
HETATM    1  C   UNL     1      41.040 -12.630   1.355  1.00  0.00     0.278 C 
HETATM    2  N   UNL     1      41.218 -12.732  -0.013  1.00  0.00    -0.322 N 
HETATM    3  O   UNL     1      40.275 -11.868   1.931  1.00  0.00    -0.265 OA
HETATM    4  H   UNL     1      41.864 -13.459  -0.310  1.00  0.00     0.169 HD
ENDROOT
BRANCH   2   5
HETATM    5  C   UNL     1      40.584 -11.978  -1.019  1.00  0.00     0.035 A 
HETATM    6  C   UNL     1      39.284 -12.215  -1.463  1.00  0.00     0.030 A 
HETATM    7  C   UNL     1      38.720 -11.431  -2.475  1.00  0.00     0.011 A 
HETATM    8  C   UNL     1      39.445 -10.387  -3.061  1.00  0.00    -0.032 A 
HETATM    9  C   UNL     1      40.750 -10.144  -2.613  1.00  0.00     0.011 A 
HETATM   10  C   UNL     1      41.310 -10.931  -1.600  1.00  0.00     0.030 A 
BRANCH   8  11
HETATM   11  C   UNL     1      38.823  -9.553  -4.150  1.00  0.00     0.273 C 
BRANCH  11  12
HETATM   12  N   UNL     1      39.447  -8.184  -4.291  1.00  0.00    -0.066 N 
HETATM   13  H   UNL     1      40.284  -8.188  -3.673  1.00  0.00     0.280 HD
HETATM   14  C   UNL     1      39.998  -7.920  -5.676  1.00  0.00     0.249 C 
HETATM   15  C   UNL     1      40.751  -6.589  -5.714  1.00  0.00     0.103 C 
HETATM   16  C   UNL     1      39.875  -5.443  -5.201  1.00  0.00     0.017 C 
HETATM   17  C   UNL     1      39.258  -5.754  -3.835  1.00  0.00     0.029 C 
HETATM   18  C   UNL     1      38.531  -7.092  -3.814  1.00  0.00     0.235 C 
BRANCH  15  19
HETATM   19  C   UNL     1      42.011  -6.708  -4.876  1.00  0.00     0.221 C 
HETATM   20  N   UNL     1      42.742  -5.575  -4.724  1.00  0.00    -0.370 N 
HETATM   21  H   UNL     1      42.567  -4.710  -5.221  1.00  0.00     0.159 HD
HETATM   22  H   UNL     1      43.593  -5.623  -4.172  1.00  0.00     0.159 HD
HETATM   23  O   UNL     1      42.298  -7.753  -4.297  1.00  0.00    -0.273 OA
ENDBRANCH  15  19
ENDBRANCH  11  12
ENDBRANCH   8  11
ENDBRANCH   2   5
BRANCH   1  24
HETATM   24  C   UNL     1      41.856 -13.581   2.102  1.00  0.00     0.175 C 
HETATM   25  N   UNL     1      43.100 -13.276   2.581  1.00  0.00    -0.152 NA
HETATM   26  N   UNL     1      43.573 -14.349   3.191  1.00  0.00     0.011 NA
HETATM   27  N   UNL     1      42.701 -15.381   3.005  1.00  0.00    -0.231 N 
HETATM   28  C   UNL     1      41.536 -14.875   2.471  1.00  0.00     0.174 C 
BRANCH  27  29
HETATM   29  C   UNL     1      43.115 -16.709   3.310  1.00  0.00     0.058 A 
HETATM   30  C   UNL     1      43.091 -17.676   2.291  1.00  0.00     0.073 A 
HETATM   31  C   UNL     1      43.481 -18.982   2.568  1.00  0.00     0.118 A 
HETATM   32  C   UNL     1      43.878 -19.359   3.844  1.00  0.00     0.042 A 
HETATM   33  F   UNL     1      43.474 -19.892   1.585  1.00  0.00    -0.206 F 
HETATM   34  C   UNL     1      43.878 -18.414   4.866  1.00  0.00     0.005 A 
HETATM   35  C   UNL     1      43.492 -17.094   4.605  1.00  0.00     0.031 A 
ENDBRANCH  27  29
BRANCH  28  36
HETATM   36  C   UNL     1      40.259 -15.577   2.404  1.00  0.00     0.436 C 
HETATM   37  F   UNL     1      40.045 -16.368   3.486  1.00  0.00    -0.165 F 
HETATM   38  F   UNL     1      39.204 -14.728   2.372  1.00  0.00    -0.165 F 
HETATM   39  F   UNL     1      40.179 -16.371   1.310  1.00  0.00    -0.165 F 
ENDBRANCH  28  36
ENDBRANCH   1  24
TORSDOF 7
ENDMDL
MODEL 8
REMARK VINA RESULT:      -9.1      2.576      3.555
REMARK  7 active torsions:
REMARK  status: ('A' for Active; 'I' for Inactive)
REMARK    1  A    between atoms: C_6  and  N_7 
REMARK    2  A    between atoms: C_10  and  C_11 
REMARK       I    between atoms: C_11  and  N_12 
REMARK    3  A    between atoms: N_12  and  C_13 
REMARK    4  A    between atoms: C_16  and  C_17 
REMARK    5  A    between atoms: C_17  and  N_18 
REMARK    6  A    between atoms: C_21  and  C_22 
REMARK       I    between atoms: C_22  and  N_23 
REMARK    7  A    between atoms: C_31  and  C_32 
ROOT
HETATM    1  C   UNL     1      40.941 -10.894   5.371  1.00  0.00     0.278 C 
HETATM    2  N   UNL     1      41.422 -10.875   6.668  1.00  0.00    -0.322 N 
HETATM    3  O   UNL     1      40.550  -9.928   4.729  1.00  0.00    -0.265 OA
HETATM    4  H   UNL     1      41.748 -11.771   7.019  1.00  0.00     0.169 HD
ENDROOT
BRANCH   2   5
HETATM    5  C   UNL     1      41.541  -9.762   7.522  1.00  0.00     0.035 A 
HETATM    6  C   UNL     1      40.504  -9.281   8.319  1.00  0.00     0.030 A 
HETATM    7  C   UNL     1      40.690  -8.162   9.138  1.00  0.00     0.011 A 
HETATM    8  C   UNL     1      41.923  -7.502   9.180  1.00  0.00    -0.032 A 
HETATM    9  C   UNL     1      42.969  -7.985   8.383  1.00  0.00     0.011 A 
HETATM   10  C   UNL     1      42.777  -9.106   7.565  1.00  0.00     0.030 A 
BRANCH   8  11
HETATM   11  C   UNL     1      42.106  -6.298  10.065  1.00  0.00     0.273 C 
BRANCH  11  12
HETATM   12  N   UNL     1      42.105  -6.630  11.540  1.00  0.00    -0.066 N 
HETATM   13  H   UNL     1      41.169  -7.040  11.738  1.00  0.00     0.280 HD
HETATM   14  C   UNL     1      43.085  -7.724  11.904  1.00  0.00     0.249 C 
HETATM   15  C   UNL     1      42.929  -8.124  13.373  1.00  0.00     0.103 C 
HETATM   16  C   UNL     1      43.039  -6.904  14.292  1.00  0.00     0.017 C 
HETATM   17  C   UNL     1      42.102  -5.772  13.866  1.00  0.00     0.029 C 
HETATM   18  C   UNL     1      42.259  -5.405  12.397  1.00  0.00     0.235 C 
BRANCH  15  19
HETATM   19  C   UNL     1      41.587  -8.807  13.560  1.00  0.00     0.221 C 
HETATM   20  N   UNL     1      41.183  -9.000  14.842  1.00  0.00    -0.370 N 
HETATM   21  H   UNL     1      41.761  -8.830  15.656  1.00  0.00     0.159 HD
HETATM   22  H   UNL     1      40.291  -9.459  15.001  1.00  0.00     0.159 HD
HETATM   23  O   UNL     1      40.871  -9.087  12.602  1.00  0.00    -0.273 OA
ENDBRANCH  15  19
ENDBRANCH  11  12
ENDBRANCH   8  11
ENDBRANCH   2   5
BRANCH   1  24
HETATM   24  C   UNL     1      40.972 -12.227   4.778  1.00  0.00     0.175 C 
HETATM   25  N   UNL     1      39.897 -13.071   4.796  1.00  0.00    -0.152 NA
HETATM   26  N   UNL     1      40.254 -14.194   4.196  1.00  0.00     0.011 NA
HETATM   27  N   UNL     1      41.584 -14.130   3.901  1.00  0.00    -0.231 N 
HETATM   28  C   UNL     1      42.013 -12.837   4.103  1.00  0.00     0.174 C 
BRANCH  27  29
HETATM   29  C   UNL     1      42.272 -15.317   3.521  1.00  0.00     0.058 A 
HETATM   30  C   UNL     1      43.040 -15.992   4.484  1.00  0.00     0.073 A 
HETATM   31  C   UNL     1      43.730 -17.149   4.133  1.00  0.00     0.118 A 
HETATM   32  C   UNL     1      43.692 -17.643   2.836  1.00  0.00     0.042 A 
HETATM   33  F   UNL     1      44.443 -17.796   5.063  1.00  0.00    -0.206 F 
HETATM   34  C   UNL     1      42.957 -16.965   1.868  1.00  0.00     0.005 A 
HETATM   35  C   UNL     1      42.253 -15.801   2.205  1.00  0.00     0.031 A 
ENDBRANCH  27  29
BRANCH  28  36
HETATM   36  C   UNL     1      43.271 -12.277   3.623  1.00  0.00     0.436 C 
HETATM   37  F   UNL     1      44.163 -12.071   4.625  1.00  0.00    -0.165 F 
HETATM   38  F   UNL     1      43.903 -13.099   2.750  1.00  0.00    -0.165 F 
HETATM   39  F   UNL     1      43.089 -11.086   3.004  1.00  0.00    -0.165 F 
ENDBRANCH  28  36
ENDBRANCH   1  24
TORSDOF 7
ENDMDL
MODEL 9
REMARK VINA RESULT:      -9.0      4.626     11.274
REMARK  7 active torsions:
REMARK  status: ('A' for Active; 'I' for Inactive)
REMARK    1  A    between atoms: C_6  and  N_7 
REMARK    2  A    between atoms: C_10  and  C_11 
REMARK       I    between atoms: C_11  and  N_12 
REMARK    3  A    between atoms: N_12  and  C_13 
REMARK    4  A    between atoms: C_16  and  C_17 
REMARK    5  A    between atoms: C_17  and  N_18 
REMARK    6  A    between atoms: C_21  and  C_22 
REMARK       I    between atoms: C_22  and  N_23 
REMARK    7  A    between atoms: C_31  and  C_32 
ROOT
HETATM    1  C   UNL     1      43.766  -9.513   8.865  1.00  0.00     0.278 C 
HETATM    2  N   UNL     1      42.923 -10.473   8.335  1.00  0.00    -0.322 N 
HETATM    3  O   UNL     1      44.664  -8.930   8.272  1.00  0.00    -0.265 OA
HETATM    4  H   UNL     1      42.204 -10.812   8.968  1.00  0.00     0.169 HD
ENDROOT
BRANCH   2   5
HETATM    5  C   UNL     1      42.930 -10.991   7.026  1.00  0.00     0.035 A 
HETATM    6  C   UNL     1      42.001 -10.641   6.047  1.00  0.00     0.030 A 
HETATM    7  C   UNL     1      42.063 -11.204   4.768  1.00  0.00     0.011 A 
HETATM    8  C   UNL     1      43.061 -12.129   4.439  1.00  0.00    -0.032 A 
HETATM    9  C   UNL     1      43.998 -12.479   5.419  1.00  0.00     0.011 A 
HETATM   10  C   UNL     1      43.932 -11.912   6.698  1.00  0.00     0.030 A 
BRANCH   8  11
HETATM   11  C   UNL     1      43.111 -12.726   3.058  1.00  0.00     0.273 C 
BRANCH  11  12
HETATM   12  N   UNL     1      43.073 -14.237   3.054  1.00  0.00    -0.066 N 
HETATM   13  H   UNL     1      43.886 -14.543   3.628  1.00  0.00     0.280 HD
HETATM   14  C   UNL     1      41.866 -14.804   3.770  1.00  0.00     0.249 C 
HETATM   15  C   UNL     1      41.962 -16.328   3.870  1.00  0.00     0.103 C 
HETATM   16  C   UNL     1      42.179 -16.959   2.492  1.00  0.00     0.017 C 
HETATM   17  C   UNL     1      43.353 -16.323   1.743  1.00  0.00     0.029 C 
HETATM   18  C   UNL     1      43.248 -14.806   1.674  1.00  0.00     0.235 C 
BRANCH  15  19
HETATM   19  C   UNL     1      43.101 -16.693   4.804  1.00  0.00     0.221 C 
HETATM   20  N   UNL     1      43.499 -17.990   4.791  1.00  0.00    -0.370 N 
HETATM   21  H   UNL     1      43.015 -18.732   4.299  1.00  0.00     0.159 HD
HETATM   22  H   UNL     1      44.256 -18.267   5.409  1.00  0.00     0.159 HD
HETATM   23  O   UNL     1      43.685 -15.838   5.467  1.00  0.00    -0.273 OA
ENDBRANCH  15  19
ENDBRANCH  11  12
ENDBRANCH   8  11
ENDBRANCH   2   5
BRANCH   1  24
HETATM   24  C   UNL     1      43.464  -9.206  10.259  1.00  0.00     0.175 C 
HETATM   25  N   UNL     1      43.676 -10.094  11.277  1.00  0.00    -0.152 NA
HETATM   26  N   UNL     1      43.287  -9.518  12.402  1.00  0.00     0.011 NA
HETATM   27  N   UNL     1      42.714  -8.317  12.107  1.00  0.00    -0.231 N 
HETATM   28  C   UNL     1      42.970  -8.027  10.785  1.00  0.00     0.174 C 
BRANCH  27  29
HETATM   29  C   UNL     1      41.958  -7.640  13.105  1.00  0.00     0.058 A 
HETATM   30  C   UNL     1      42.586  -7.297  14.314  1.00  0.00     0.073 A 
HETATM   31  C   UNL     1      41.864  -6.644  15.308  1.00  0.00     0.118 A 
HETATM   32  C   UNL     1      40.520  -6.340  15.140  1.00  0.00     0.042 A 
HETATM   33  F   UNL     1      42.478  -6.303  16.448  1.00  0.00    -0.206 F 
HETATM   34  C   UNL     1      39.882  -6.703  13.957  1.00  0.00     0.005 A 
HETATM   35  C   UNL     1      40.594  -7.357  12.943  1.00  0.00     0.031 A 
ENDBRANCH  27  29
BRANCH  28  36
HETATM   36  C   UNL     1      42.802  -6.721  10.157  1.00  0.00     0.436 C 
HETATM   37  F   UNL     1      42.707  -5.717  11.064  1.00  0.00    -0.165 F 
HETATM   38  F   UNL     1      43.854  -6.388   9.370  1.00  0.00    -0.165 F 
HETATM   39  F   UNL     1      41.687  -6.670   9.391  1.00  0.00    -0.165 F 
ENDBRANCH  28  36
ENDBRANCH   1  24
TORSDOF 7
ENDMDL
MODEL 10
REMARK VINA RESULT:      -9.0      4.287     11.186
REMARK  7 active torsions:
REMARK  status: ('A' for Active; 'I' for Inactive)
REMARK    1  A    between atoms: C_6  and  N_7 
REMARK    2  A    between atoms: C_10  and  C_11 
REMARK       I    between atoms: C_11  and  N_12 
REMARK    3  A    between atoms: N_12  and  C_13 
REMARK    4  A    between atoms: C_16  and  C_17 
REMARK    5  A    between atoms: C_17  and  N_18 
REMARK    6  A    between atoms: C_21  and  C_22 
REMARK       I    between atoms: C_22  and  N_23 
REMARK    7  A    between atoms: C_31  and  C_32 
ROOT
HETATM    1  C   UNL     1      41.664  -8.570   7.002  1.00  0.00     0.278 C 
HETATM    2  N   UNL     1      41.906  -9.928   7.107  1.00  0.00    -0.322 N 
HETATM    3  O   UNL     1      41.148  -7.998   6.051  1.00  0.00    -0.265 OA
HETATM    4  H   UNL     1      42.299 -10.227   7.996  1.00  0.00     0.169 HD
ENDROOT
BRANCH   2   5
HETATM    5  C   UNL     1      41.637 -10.923   6.149  1.00  0.00     0.035 A 
HETATM    6  C   UNL     1      42.597 -11.450   5.286  1.00  0.00     0.030 A 
HETATM    7  C   UNL     1      42.256 -12.433   4.351  1.00  0.00     0.011 A 
HETATM    8  C   UNL     1      40.944 -12.914   4.262  1.00  0.00    -0.032 A 
HETATM    9  C   UNL     1      39.979 -12.389   5.131  1.00  0.00     0.011 A 
HETATM   10  C   UNL     1      40.326 -11.406   6.066  1.00  0.00     0.030 A 
BRANCH   8  11
HETATM   11  C   UNL     1      40.594 -13.970   3.248  1.00  0.00     0.273 C 
BRANCH  11  12
HETATM   12  N   UNL     1      41.679 -15.006   3.059  1.00  0.00    -0.066 N 
HETATM   13  H   UNL     1      42.459 -14.718   3.685  1.00  0.00     0.280 HD
HETATM   14  C   UNL     1      41.282 -16.381   3.551  1.00  0.00     0.249 C 
HETATM   15  C   UNL     1      42.468 -17.345   3.479  1.00  0.00     0.103 C 
HETATM   16  C   UNL     1      43.069 -17.375   2.071  1.00  0.00     0.017 C 
HETATM   17  C   UNL     1      43.393 -15.972   1.550  1.00  0.00     0.029 C 
HETATM   18  C   UNL     1      42.205 -15.024   1.652  1.00  0.00     0.235 C 
BRANCH  15  19
HETATM   19  C   UNL     1      43.514 -16.921   4.492  1.00  0.00     0.221 C 
HETATM   20  N   UNL     1      44.468 -17.838   4.793  1.00  0.00    -0.370 N 
HETATM   21  H   UNL     1      44.453 -18.802   4.481  1.00  0.00     0.159 HD
HETATM   22  H   UNL     1      45.181 -17.587   5.471  1.00  0.00     0.159 HD
HETATM   23  O   UNL     1      43.543 -15.778   4.944  1.00  0.00    -0.273 OA
ENDBRANCH  15  19
ENDBRANCH  11  12
ENDBRANCH   8  11
ENDBRANCH   2   5
BRANCH   1  24
HETATM   24  C   UNL     1      42.060  -7.832   8.196  1.00  0.00     0.175 C 
HETATM   25  N   UNL     1      43.108  -6.954   8.212  1.00  0.00    -0.152 NA
HETATM   26  N   UNL     1      43.212  -6.471   9.439  1.00  0.00     0.011 NA
HETATM   27  N   UNL     1      42.322  -7.119  10.244  1.00  0.00    -0.231 N 
HETATM   28  C   UNL     1      41.472  -7.854   9.448  1.00  0.00     0.174 C 
BRANCH  27  29
HETATM   29  C   UNL     1      42.437  -6.991  11.657  1.00  0.00     0.058 A 
HETATM   30  C   UNL     1      41.961  -5.822  12.273  1.00  0.00     0.073 A 
HETATM   31  C   UNL     1      42.073  -5.671  13.651  1.00  0.00     0.118 A 
HETATM   32  C   UNL     1      42.668  -6.649  14.436  1.00  0.00     0.042 A 
HETATM   33  F   UNL     1      41.598  -4.561  14.231  1.00  0.00    -0.206 F 
HETATM   34  C   UNL     1      43.169  -7.798  13.831  1.00  0.00     0.005 A 
HETATM   35  C   UNL     1      43.061  -7.970  12.445  1.00  0.00     0.031 A 
ENDBRANCH  27  29
BRANCH  28  36
HETATM   36  C   UNL     1      40.207  -8.442   9.875  1.00  0.00     0.436 C 
HETATM   37  F   UNL     1      39.445  -7.572  10.585  1.00  0.00    -0.165 F 
HETATM   38  F   UNL     1      39.432  -8.818   8.828  1.00  0.00    -0.165 F 
HETATM   39  F   UNL     1      40.396  -9.532  10.656  1.00  0.00    -0.165 F 
ENDBRANCH  28  36
ENDBRANCH   1  24
TORSDOF 7
ENDMDL
