MODEL 1
REMARK VINA RESULT:      -8.1      0.000      0.000
REMARK  3 active torsions:
REMARK  status: ('A' for Active; 'I' for Inactive)
REMARK    1  A    between atoms: C_6  and  C_7 
REMARK       I    between atoms: C_7  and  N_8 
REMARK    2  A    between atoms: N_8  and  C_9 
REMARK    3  A    between atoms: C_11  and  C_12 
REMARK       I    between atoms: C_12  and  N_13 
ROOT
HETATM    1  C   UNL     1      42.254 -15.367   4.832  1.00  0.00     0.258 C 
HETATM    2  N   UNL     1      43.087 -14.304   4.543  1.00  0.00    -0.307 N 
HETATM    3  O   UNL     1      41.271 -15.387   5.561  1.00  0.00    -0.267 OA
HETATM    4  H   UNL     1      43.840 -14.463   3.892  1.00  0.00     0.170 HD
ENDROOT
BRANCH   2   5
HETATM    5  C   UNL     1      42.969 -13.022   5.092  1.00  0.00     0.131 A 
HETATM    6  N   UNL     1      43.599 -12.718   6.235  1.00  0.00    -0.226 NA
HETATM    7  C   UNL     1      43.457 -11.458   6.722  1.00  0.00     0.126 A 
HETATM    8  C   UNL     1      42.709 -10.471   6.104  1.00  0.00     0.037 A 
HETATM    9  C   UNL     1      42.063 -10.800   4.918  1.00  0.00     0.006 A 
HETATM   10  C   UNL     1      42.191 -12.093   4.407  1.00  0.00     0.050 A 
BRANCH   7  11
HETATM   11  C   UNL     1      44.170 -11.180   8.007  1.00  0.00     0.268 C 
HETATM   12  N   UNL     1      43.356 -10.836   9.052  1.00  0.00    -0.365 N 
HETATM   13  H   UNL     1      42.348 -10.802   8.902  1.00  0.00     0.159 HD
HETATM   14  H   UNL     1      43.744 -10.633   9.960  1.00  0.00     0.159 HD
HETATM   15  O   UNL     1      45.388 -11.249   8.118  1.00  0.00    -0.266 OA
ENDBRANCH   7  11
ENDBRANCH   2   5
BRANCH   1  16
HETATM   16  C   UNL     1      42.642 -16.615   4.121  1.00  0.00     0.044 A 
HETATM   17  C   UNL     1      43.579 -17.496   4.701  1.00  0.00    -0.045 A 
HETATM   18  C   UNL     1      43.971 -18.633   3.980  1.00  0.00     0.014 A 
HETATM   19  C   UNL     1      44.178 -17.255   6.060  1.00  0.00     0.049 C 
HETATM   20  C   UNL     1      43.427 -18.914   2.720  1.00  0.00    -0.061 A 
HETATM   21  C   UNL     1      43.820 -20.165   1.989  1.00  0.00     0.048 C 
HETATM   22  C   UNL     1      42.460 -18.055   2.184  1.00  0.00     0.014 A 
HETATM   23  C   UNL     1      42.065 -16.895   2.865  1.00  0.00    -0.045 A 
HETATM   24  C   UNL     1      41.017 -16.003   2.258  1.00  0.00     0.049 C 
ENDBRANCH   1  16
TORSDOF 3
ENDMDL
MODEL 2
REMARK VINA RESULT:      -8.1      0.115      1.902
REMARK  3 active torsions:
REMARK  status: ('A' for Active; 'I' for Inactive)
REMARK    1  A    between atoms: C_6  and  C_7 
REMARK       I    between atoms: C_7  and  N_8 
REMARK    2  A    between atoms: N_8  and  C_9 
REMARK    3  A    between atoms: C_11  and  C_12 
REMARK       I    between atoms: C_12  and  N_13 
ROOT
HETATM    1  C   UNL     1      42.297 -15.339   4.853  1.00  0.00     0.258 C 
HETATM    2  N   UNL     1      43.098 -14.249   4.580  1.00  0.00    -0.307 N 
HETATM    3  O   UNL     1      41.326 -15.403   5.594  1.00  0.00    -0.267 OA
HETATM    4  H   UNL     1      43.846 -14.372   3.914  1.00  0.00     0.170 HD
ENDROOT
BRANCH   2   5
HETATM    5  C   UNL     1      42.956 -12.985   5.163  1.00  0.00     0.131 A 
HETATM    6  N   UNL     1      43.623 -12.682   6.285  1.00  0.00    -0.226 NA
HETATM    7  C   UNL     1      43.454 -11.439   6.807  1.00  0.00     0.126 A 
HETATM    8  C   UNL     1      42.643 -10.469   6.244  1.00  0.00     0.037 A 
HETATM    9  C   UNL     1      41.960 -10.796   5.080  1.00  0.00     0.006 A 
HETATM   10  C   UNL     1      42.114 -12.071   4.533  1.00  0.00     0.050 A 
BRANCH   7  11
HETATM   11  C   UNL     1      44.211 -11.162   8.067  1.00  0.00     0.268 C 
HETATM   12  N   UNL     1      43.433 -10.832   9.143  1.00  0.00    -0.365 N 
HETATM   13  H   UNL     1      42.420 -10.807   9.030  1.00  0.00     0.159 HD
HETATM   14  H   UNL     1      43.852 -10.630  10.037  1.00  0.00     0.159 HD
HETATM   15  O   UNL     1      45.433 -11.219   8.133  1.00  0.00    -0.266 OA
ENDBRANCH   7  11
ENDBRANCH   2   5
BRANCH   1  16
HETATM   16  C   UNL     1      42.707 -16.559   4.104  1.00  0.00     0.044 A 
HETATM   17  C   UNL     1      42.114 -16.854   2.858  1.00  0.00    -0.045 A 
HETATM   18  C   UNL     1      42.476 -18.041   2.204  1.00  0.00     0.014 A 
HETATM   19  C   UNL     1      41.103 -15.947   2.211  1.00  0.00     0.049 C 
HETATM   20  C   UNL     1      43.427 -18.909   2.754  1.00  0.00    -0.061 A 
HETATM   21  C   UNL     1      43.840 -20.147   2.012  1.00  0.00     0.048 C 
HETATM   22  C   UNL     1      44.043 -18.572   3.966  1.00  0.00     0.014 A 
HETATM   23  C   UNL     1      43.686 -17.407   4.660  1.00  0.00    -0.045 A 
HETATM   24  C   UNL     1      44.377 -17.078   5.955  1.00  0.00     0.049 C 
ENDBRANCH   1  16
TORSDOF 3
ENDMDL
MODEL 3
REMARK VINA RESULT:      -7.8      1.998      3.256
REMARK  3 active torsions:
REMARK  status: ('A' for Active; 'I' for Inactive)
REMARK    1  A    between atoms: C_6  and  C_7 
REMARK       I    between atoms: C_7  and  N_8 
REMARK    2  A    between atoms: N_8  and  C_9 
REMARK    3  A    between atoms: C_11  and  C_12 
REMARK       I    between atoms: C_12  and  N_13 
ROOT
HETATM    1  C   UNL     1      43.065 -12.940   5.997  1.00  0.00     0.258 C 
HETATM    2  N   UNL     1      44.346 -12.738   6.471  1.00  0.00    -0.307 N 
HETATM    3  O   UNL     1      42.061 -12.273   6.208  1.00  0.00    -0.267 OA
HETATM    4  H   UNL     1      45.065 -13.378   6.168  1.00  0.00     0.170 HD
ENDROOT
BRANCH   2   5
HETATM    5  C   UNL     1      44.723 -11.714   7.347  1.00  0.00     0.131 A 
HETATM    6  N   UNL     1      44.121 -11.590   8.538  1.00  0.00    -0.226 NA
HETATM    7  C   UNL     1      44.529 -10.583   9.353  1.00  0.00     0.126 A 
HETATM    8  C   UNL     1      45.532  -9.685   9.029  1.00  0.00     0.037 A 
HETATM    9  C   UNL     1      46.148  -9.827   7.793  1.00  0.00     0.006 A 
HETATM   10  C   UNL     1      45.737 -10.851   6.938  1.00  0.00     0.050 A 
BRANCH   7  11
HETATM   11  C   UNL     1      43.814 -10.485  10.663  1.00  0.00     0.268 C 
HETATM   12  N   UNL     1      42.998  -9.393  10.791  1.00  0.00    -0.365 N 
HETATM   13  H   UNL     1      42.920  -8.742  10.010  1.00  0.00     0.159 HD
HETATM   14  H   UNL     1      42.471  -9.242  11.637  1.00  0.00     0.159 HD
HETATM   15  O   UNL     1      43.948 -11.313  11.555  1.00  0.00    -0.266 OA
ENDBRANCH   7  11
ENDBRANCH   2   5
BRANCH   1  16
HETATM   16  C   UNL     1      42.960 -14.126   5.105  1.00  0.00     0.044 A 
HETATM   17  C   UNL     1      42.703 -15.401   5.652  1.00  0.00    -0.045 A 
HETATM   18  C   UNL     1      42.670 -16.510   4.793  1.00  0.00     0.014 A 
HETATM   19  C   UNL     1      42.471 -15.614   7.124  1.00  0.00     0.049 C 
HETATM   20  C   UNL     1      42.858 -16.361   3.414  1.00  0.00    -0.061 A 
HETATM   21  C   UNL     1      42.766 -17.553   2.506  1.00  0.00     0.048 C 
HETATM   22  C   UNL     1      43.061 -15.082   2.883  1.00  0.00     0.014 A 
HETATM   23  C   UNL     1      43.126 -13.955   3.715  1.00  0.00    -0.045 A 
HETATM   24  C   UNL     1      43.337 -12.597   3.103  1.00  0.00     0.049 C 
ENDBRANCH   1  16
TORSDOF 3
ENDMDL
MODEL 4
REMARK VINA RESULT:      -7.8      4.315      7.024
REMARK  3 active torsions:
REMARK  status: ('A' for Active; 'I' for Inactive)
REMARK    1  A    between atoms: C_6  and  C_7 
REMARK       I    between atoms: C_7  and  N_8 
REMARK    2  A    between atoms: N_8  and  C_9 
REMARK    3  A    between atoms: C_11  and  C_12 
REMARK       I    between atoms: C_12  and  N_13 
ROOT
HETATM    1  C   UNL     1      40.443 -15.164   2.430  1.00  0.00     0.258 C 
HETATM    2  N   UNL     1      40.852 -14.248   1.482  1.00  0.00    -0.307 N 
HETATM    3  O   UNL     1      39.366 -15.738   2.520  1.00  0.00    -0.267 OA
HETATM    4  H   UNL     1      41.795 -13.895   1.547  1.00  0.00     0.170 HD
ENDROOT
BRANCH   2   5
HETATM    5  C   UNL     1      40.054 -13.764   0.439  1.00  0.00     0.131 A 
HETATM    6  N   UNL     1      39.769 -14.547  -0.610  1.00  0.00    -0.226 NA
HETATM    7  C   UNL     1      38.985 -14.032  -1.592  1.00  0.00     0.126 A 
HETATM    8  C   UNL     1      38.458 -12.752  -1.568  1.00  0.00     0.037 A 
HETATM    9  C   UNL     1      38.760 -11.952  -0.473  1.00  0.00     0.006 A 
HETATM   10  C   UNL     1      39.572 -12.462   0.542  1.00  0.00     0.050 A 
BRANCH   7  11
HETATM   11  C   UNL     1      38.711 -14.946  -2.744  1.00  0.00     0.268 C 
HETATM   12  N   UNL     1      38.469 -16.248  -2.398  1.00  0.00    -0.365 N 
HETATM   13  H   UNL     1      38.478 -16.506  -1.412  1.00  0.00     0.159 HD
HETATM   14  H   UNL     1      38.271 -16.938  -3.105  1.00  0.00     0.159 HD
HETATM   15  O   UNL     1      38.707 -14.563  -3.907  1.00  0.00    -0.266 OA
ENDBRANCH   7  11
ENDBRANCH   2   5
BRANCH   1  16
HETATM   16  C   UNL     1      41.500 -15.466   3.434  1.00  0.00     0.044 A 
HETATM   17  C   UNL     1      41.626 -14.666   4.589  1.00  0.00    -0.045 A 
HETATM   18  C   UNL     1      42.669 -14.937   5.487  1.00  0.00     0.014 A 
HETATM   19  C   UNL     1      40.688 -13.528   4.887  1.00  0.00     0.049 C 
HETATM   20  C   UNL     1      43.555 -15.998   5.266  1.00  0.00    -0.061 A 
HETATM   21  C   UNL     1      44.632 -16.306   6.266  1.00  0.00     0.048 C 
HETATM   22  C   UNL     1      43.382 -16.814   4.141  1.00  0.00     0.014 A 
HETATM   23  C   UNL     1      42.367 -16.555   3.209  1.00  0.00    -0.045 A 
HETATM   24  C   UNL     1      42.210 -17.460   2.018  1.00  0.00     0.049 C 
ENDBRANCH   1  16
TORSDOF 3
ENDMDL
MODEL 5
REMARK VINA RESULT:      -7.7      1.756      2.364
REMARK  3 active torsions:
REMARK  status: ('A' for Active; 'I' for Inactive)
REMARK    1  A    between atoms: C_6  and  C_7 
REMARK       I    between atoms: C_7  and  N_8 
REMARK    2  A    between atoms: N_8  and  C_9 
REMARK    3  A    between atoms: C_11  and  C_12 
REMARK       I    between atoms: C_12  and  N_13 
ROOT
HETATM    1  C   UNL     1      42.340 -15.414   4.808  1.00  0.00     0.258 C 
HETATM    2  N   UNL     1      43.255 -14.400   4.599  1.00  0.00    -0.307 N 
HETATM    3  O   UNL     1      41.312 -15.386   5.470  1.00  0.00    -0.267 OA
HETATM    4  H   UNL     1      44.039 -14.594   3.994  1.00  0.00     0.170 HD
ENDROOT
BRANCH   2   5
HETATM    5  C   UNL     1      43.180 -13.124   5.169  1.00  0.00     0.131 A 
HETATM    6  N   UNL     1      42.582 -12.125   4.506  1.00  0.00    -0.226 NA
HETATM    7  C   UNL     1      42.531 -10.907   5.106  1.00  0.00     0.126 A 
HETATM    8  C   UNL     1      43.052 -10.643   6.361  1.00  0.00     0.037 A 
HETATM    9  C   UNL     1      43.667 -11.689   7.037  1.00  0.00     0.006 A 
HETATM   10  C   UNL     1      43.736 -12.945   6.432  1.00  0.00     0.050 A 
BRANCH   7  11
HETATM   11  C   UNL     1      41.865  -9.827   4.316  1.00  0.00     0.268 C 
HETATM   12  N   UNL     1      41.933  -9.984   2.958  1.00  0.00    -0.365 N 
HETATM   13  H   UNL     1      42.406 -10.805   2.580  1.00  0.00     0.159 HD
HETATM   14  H   UNL     1      41.510  -9.309   2.340  1.00  0.00     0.159 HD
HETATM   15  O   UNL     1      41.306  -8.871   4.839  1.00  0.00    -0.266 OA
ENDBRANCH   7  11
ENDBRANCH   2   5
BRANCH   1  16
HETATM   16  C   UNL     1      42.698 -16.670   4.094  1.00  0.00     0.044 A 
HETATM   17  C   UNL     1      43.583 -17.593   4.690  1.00  0.00    -0.045 A 
HETATM   18  C   UNL     1      43.949 -18.739   3.968  1.00  0.00     0.014 A 
HETATM   19  C   UNL     1      44.155 -17.388   6.066  1.00  0.00     0.049 C 
HETATM   20  C   UNL     1      43.428 -18.986   2.692  1.00  0.00    -0.061 A 
HETATM   21  C   UNL     1      43.790 -20.245   1.958  1.00  0.00     0.048 C 
HETATM   22  C   UNL     1      42.510 -18.084   2.139  1.00  0.00     0.014 A 
HETATM   23  C   UNL     1      42.143 -16.915   2.821  1.00  0.00    -0.045 A 
HETATM   24  C   UNL     1      41.148 -15.977   2.196  1.00  0.00     0.049 C 
ENDBRANCH   1  16
TORSDOF 3
ENDMDL
MODEL 6
REMARK VINA RESULT:      -7.7      2.879      3.428
REMARK  3 active torsions:
REMARK  status: ('A' for Active; 'I' for Inactive)
REMARK    1  A    between atoms: C_6  and  C_7 
REMARK       I    between atoms: C_7  and  N_8 
REMARK    2  A    between atoms: N_8  and  C_9 
REMARK    3  A    between atoms: C_11  and  C_12 
REMARK       I    between atoms: C_12  and  N_13 
ROOT
HETATM    1  C   UNL     1      42.432 -15.123   4.425  1.00  0.00     0.258 C 
HETATM    2  N   UNL     1      41.065 -15.050   4.245  1.00  0.00    -0.307 N 
HETATM    3  O   UNL     1      43.242 -14.209   4.476  1.00  0.00    -0.267 OA
HETATM    4  H   UNL     1      40.543 -15.913   4.258  1.00  0.00     0.170 HD
ENDROOT
BRANCH   2   5
HETATM    5  C   UNL     1      40.347 -13.866   4.037  1.00  0.00     0.131 A 
HETATM    6  N   UNL     1      40.027 -13.082   5.075  1.00  0.00    -0.226 NA
HETATM    7  C   UNL     1      39.335 -11.942   4.820  1.00  0.00     0.126 A 
HETATM    8  C   UNL     1      38.949 -11.540   3.551  1.00  0.00     0.037 A 
HETATM    9  C   UNL     1      39.290 -12.362   2.485  1.00  0.00     0.006 A 
HETATM   10  C   UNL     1      39.994 -13.543   2.730  1.00  0.00     0.050 A 
BRANCH   7  11
HETATM   11  C   UNL     1      38.993 -11.112   6.016  1.00  0.00     0.268 C 
HETATM   12  N   UNL     1      39.747 -11.373   7.129  1.00  0.00    -0.365 N 
HETATM   13  H   UNL     1      40.477 -12.083   7.074  1.00  0.00     0.159 HD
HETATM   14  H   UNL     1      39.594 -10.863   7.984  1.00  0.00     0.159 HD
HETATM   15  O   UNL     1      38.107 -10.268   6.007  1.00  0.00    -0.266 OA
ENDBRANCH   7  11
ENDBRANCH   2   5
BRANCH   1  16
HETATM   16  C   UNL     1      42.917 -16.520   4.592  1.00  0.00     0.044 A 
HETATM   17  C   UNL     1      42.971 -17.099   5.877  1.00  0.00    -0.045 A 
HETATM   18  C   UNL     1      43.490 -18.396   6.011  1.00  0.00     0.014 A 
HETATM   19  C   UNL     1      42.500 -16.375   7.108  1.00  0.00     0.049 C 
HETATM   20  C   UNL     1      43.923 -19.120   4.893  1.00  0.00    -0.061 A 
HETATM   21  C   UNL     1      44.425 -20.526   5.051  1.00  0.00     0.048 C 
HETATM   22  C   UNL     1      43.813 -18.548   3.620  1.00  0.00     0.014 A 
HETATM   23  C   UNL     1      43.324 -17.244   3.453  1.00  0.00    -0.045 A 
HETATM   24  C   UNL     1      43.215 -16.669   2.067  1.00  0.00     0.049 C 
ENDBRANCH   1  16
TORSDOF 3
ENDMDL
MODEL 7
REMARK VINA RESULT:      -7.6      1.809      3.015
REMARK  3 active torsions:
REMARK  status: ('A' for Active; 'I' for Inactive)
REMARK    1  A    between atoms: C_6  and  C_7 
REMARK       I    between atoms: C_7  and  N_8 
REMARK    2  A    between atoms: N_8  and  C_9 
REMARK    3  A    between atoms: C_11  and  C_12 
REMARK       I    between atoms: C_12  and  N_13 
ROOT
HETATM    1  C   UNL     1      42.313 -15.449   4.848  1.00  0.00     0.258 C 
HETATM    2  N   UNL     1      43.184 -14.393   4.664  1.00  0.00    -0.307 N 
HETATM    3  O   UNL     1      41.296 -15.487   5.527  1.00  0.00    -0.267 OA
HETATM    4  H   UNL     1      43.964 -14.532   4.040  1.00  0.00     0.170 HD
ENDROOT
BRANCH   2   5
HETATM    5  C   UNL     1      43.069 -13.144   5.285  1.00  0.00     0.131 A 
HETATM    6  N   UNL     1      42.253 -12.211   4.777  1.00  0.00    -0.226 NA
HETATM    7  C   UNL     1      42.174 -11.018   5.421  1.00  0.00     0.126 A 
HETATM    8  C   UNL     1      42.880 -10.714   6.572  1.00  0.00     0.037 A 
HETATM    9  C   UNL     1      43.721 -11.691   7.089  1.00  0.00     0.006 A 
HETATM   10  C   UNL     1      43.822 -12.921   6.435  1.00  0.00     0.050 A 
BRANCH   7  11
HETATM   11  C   UNL     1      41.258 -10.011   4.802  1.00  0.00     0.268 C 
HETATM   12  N   UNL     1      41.808  -9.286   3.780  1.00  0.00    -0.365 N 
HETATM   13  H   UNL     1      42.771  -9.476   3.504  1.00  0.00     0.159 HD
HETATM   14  H   UNL     1      41.267  -8.585   3.298  1.00  0.00     0.159 HD
HETATM   15  O   UNL     1      40.106  -9.842   5.181  1.00  0.00    -0.266 OA
ENDBRANCH   7  11
ENDBRANCH   2   5
BRANCH   1  16
HETATM   16  C   UNL     1      42.706 -16.661   4.080  1.00  0.00     0.044 A 
HETATM   17  C   UNL     1      42.142 -16.906   2.810  1.00  0.00    -0.045 A 
HETATM   18  C   UNL     1      42.485 -18.088   2.136  1.00  0.00     0.014 A 
HETATM   19  C   UNL     1      41.179 -15.951   2.158  1.00  0.00     0.049 C 
HETATM   20  C   UNL     1      43.393 -18.999   2.690  1.00  0.00    -0.061 A 
HETATM   21  C   UNL     1      43.788 -20.230   1.929  1.00  0.00     0.048 C 
HETATM   22  C   UNL     1      43.982 -18.713   3.928  1.00  0.00     0.014 A 
HETATM   23  C   UNL     1      43.641 -17.554   4.641  1.00  0.00    -0.045 A 
HETATM   24  C   UNL     1      44.304 -17.281   5.964  1.00  0.00     0.049 C 
ENDBRANCH   1  16
TORSDOF 3
ENDMDL
MODEL 8
REMARK VINA RESULT:      -7.5      1.714      2.094
REMARK  3 active torsions:
REMARK  status: ('A' for Active; 'I' for Inactive)
REMARK    1  A    between atoms: C_6  and  C_7 
REMARK       I    between atoms: C_7  and  N_8 
REMARK    2  A    between atoms: N_8  and  C_9 
REMARK    3  A    between atoms: C_11  and  C_12 
REMARK       I    between atoms: C_12  and  N_13 
ROOT
HETATM    1  C   UNL     1      42.148 -15.304   4.268  1.00  0.00     0.258 C 
HETATM    2  N   UNL     1      43.080 -14.289   4.340  1.00  0.00    -0.307 N 
HETATM    3  O   UNL     1      40.948 -15.221   4.045  1.00  0.00    -0.267 OA
HETATM    4  H   UNL     1      44.042 -14.546   4.507  1.00  0.00     0.170 HD
ENDROOT
BRANCH   2   5
HETATM    5  C   UNL     1      42.792 -12.926   4.205  1.00  0.00     0.131 A 
HETATM    6  N   UNL     1      42.635 -12.160   5.293  1.00  0.00    -0.226 NA
HETATM    7  C   UNL     1      42.362 -10.842   5.108  1.00  0.00     0.126 A 
HETATM    8  C   UNL     1      42.246 -10.246   3.863  1.00  0.00     0.037 A 
HETATM    9  C   UNL     1      42.414 -11.051   2.745  1.00  0.00     0.006 A 
HETATM   10  C   UNL     1      42.687 -12.410   2.916  1.00  0.00     0.050 A 
BRANCH   7  11
HETATM   11  C   UNL     1      42.183 -10.039   6.356  1.00  0.00     0.268 C 
HETATM   12  N   UNL     1      42.310 -10.750   7.519  1.00  0.00    -0.365 N 
HETATM   13  H   UNL     1      42.522 -11.746   7.467  1.00  0.00     0.159 HD
HETATM   14  H   UNL     1      42.209 -10.295   8.413  1.00  0.00     0.159 HD
HETATM   15  O   UNL     1      41.938  -8.839   6.343  1.00  0.00    -0.266 OA
ENDBRANCH   7  11
ENDBRANCH   2   5
BRANCH   1  16
HETATM   16  C   UNL     1      42.743 -16.651   4.480  1.00  0.00     0.044 A 
HETATM   17  C   UNL     1      42.840 -17.184   5.783  1.00  0.00    -0.045 A 
HETATM   18  C   UNL     1      43.461 -18.429   5.958  1.00  0.00     0.014 A 
HETATM   19  C   UNL     1      42.309 -16.460   6.991  1.00  0.00     0.049 C 
HETATM   20  C   UNL     1      43.953 -19.152   4.864  1.00  0.00    -0.061 A 
HETATM   21  C   UNL     1      44.566 -20.507   5.067  1.00  0.00     0.048 C 
HETATM   22  C   UNL     1      43.801 -18.631   3.573  1.00  0.00     0.014 A 
HETATM   23  C   UNL     1      43.210 -17.376   3.365  1.00  0.00    -0.045 A 
HETATM   24  C   UNL     1      43.059 -16.857   1.961  1.00  0.00     0.049 C 
ENDBRANCH   1  16
TORSDOF 3
ENDMDL
MODEL 9
REMARK VINA RESULT:      -7.5      2.509      3.572
REMARK  3 active torsions:
REMARK  status: ('A' for Active; 'I' for Inactive)
REMARK    1  A    between atoms: C_6  and  C_7 
REMARK       I    between atoms: C_7  and  N_8 
REMARK    2  A    between atoms: N_8  and  C_9 
REMARK    3  A    between atoms: C_11  and  C_12 
REMARK       I    between atoms: C_12  and  N_13 
ROOT
HETATM    1  C   UNL     1      42.132 -15.343   4.239  1.00  0.00     0.258 C 
HETATM    2  N   UNL     1      43.070 -14.330   4.219  1.00  0.00    -0.307 N 
HETATM    3  O   UNL     1      40.920 -15.262   4.088  1.00  0.00    -0.267 OA
HETATM    4  H   UNL     1      44.039 -14.586   4.334  1.00  0.00     0.170 HD
ENDROOT
BRANCH   2   5
HETATM    5  C   UNL     1      42.777 -12.971   4.059  1.00  0.00     0.131 A 
HETATM    6  N   UNL     1      42.364 -12.506   2.871  1.00  0.00    -0.226 NA
HETATM    7  C   UNL     1      42.088 -11.181   2.770  1.00  0.00     0.126 A 
HETATM    8  C   UNL     1      42.199 -10.286   3.821  1.00  0.00     0.037 A 
HETATM    9  C   UNL     1      42.626 -10.782   5.046  1.00  0.00     0.006 A 
HETATM   10  C   UNL     1      42.923 -12.141   5.167  1.00  0.00     0.050 A 
BRANCH   7  11
HETATM   11  C   UNL     1      41.645 -10.716   1.419  1.00  0.00     0.268 C 
HETATM   12  N   UNL     1      41.638  -9.357   1.254  1.00  0.00    -0.365 N 
HETATM   13  H   UNL     1      41.936  -8.765   2.028  1.00  0.00     0.159 HD
HETATM   14  H   UNL     1      41.358  -8.948   0.376  1.00  0.00     0.159 HD
HETATM   15  O   UNL     1      41.309 -11.488   0.530  1.00  0.00    -0.266 OA
ENDBRANCH   7  11
ENDBRANCH   2   5
BRANCH   1  16
HETATM   16  C   UNL     1      42.736 -16.685   4.457  1.00  0.00     0.044 A 
HETATM   17  C   UNL     1      42.862 -17.199   5.765  1.00  0.00    -0.045 A 
HETATM   18  C   UNL     1      43.491 -18.440   5.945  1.00  0.00     0.014 A 
HETATM   19  C   UNL     1      42.354 -16.460   6.973  1.00  0.00     0.049 C 
HETATM   20  C   UNL     1      43.962 -19.176   4.851  1.00  0.00    -0.061 A 
HETATM   21  C   UNL     1      44.584 -20.527   5.060  1.00  0.00     0.048 C 
HETATM   22  C   UNL     1      43.782 -18.674   3.556  1.00  0.00     0.014 A 
HETATM   23  C   UNL     1      43.181 -17.425   3.342  1.00  0.00    -0.045 A 
HETATM   24  C   UNL     1      42.999 -16.925   1.935  1.00  0.00     0.049 C 
ENDBRANCH   1  16
TORSDOF 3
ENDMDL
MODEL 10
REMARK VINA RESULT:      -7.4      4.165      6.560
REMARK  3 active torsions:
REMARK  status: ('A' for Active; 'I' for Inactive)
REMARK    1  A    between atoms: C_6  and  C_7 
REMARK       I    between atoms: C_7  and  N_8 
REMARK    2  A    between atoms: N_8  and  C_9 
REMARK    3  A    between atoms: C_11  and  C_12 
REMARK       I    between atoms: C_12  and  N_13 
ROOT
HETATM    1  C   UNL     1      40.736 -15.011   2.601  1.00  0.00     0.258 C 
HETATM    2  N   UNL     1      41.107 -13.868   1.923  1.00  0.00    -0.307 N 
HETATM    3  O   UNL     1      39.752 -15.716   2.423  1.00  0.00    -0.267 OA
HETATM    4  H   UNL     1      41.975 -13.427   2.187  1.00  0.00     0.170 HD
ENDROOT
BRANCH   2   5
HETATM    5  C   UNL     1      40.365 -13.268   0.899  1.00  0.00     0.131 A 
HETATM    6  N   UNL     1      40.649 -13.534  -0.383  1.00  0.00    -0.226 NA
HETATM    7  C   UNL     1      39.895 -12.930  -1.339  1.00  0.00     0.126 A 
HETATM    8  C   UNL     1      38.849 -12.066  -1.065  1.00  0.00     0.037 A 
HETATM    9  C   UNL     1      38.564 -11.801   0.269  1.00  0.00     0.006 A 
HETATM   10  C   UNL     1      39.334 -12.406   1.264  1.00  0.00     0.050 A 
BRANCH   7  11
HETATM   11  C   UNL     1      40.265 -13.253  -2.751  1.00  0.00     0.268 C 
HETATM   12  N   UNL     1      41.496 -12.796  -3.140  1.00  0.00    -0.365 N 
HETATM   13  H   UNL     1      42.070 -12.291  -2.466  1.00  0.00     0.159 HD
HETATM   14  H   UNL     1      41.835 -12.967  -4.074  1.00  0.00     0.159 HD
HETATM   15  O   UNL     1      39.527 -13.873  -3.505  1.00  0.00    -0.266 OA
ENDBRANCH   7  11
ENDBRANCH   2   5
BRANCH   1  16
HETATM   16  C   UNL     1      41.709 -15.396   3.659  1.00  0.00     0.044 A 
HETATM   17  C   UNL     1      42.782 -16.259   3.352  1.00  0.00    -0.045 A 
HETATM   18  C   UNL     1      43.648 -16.653   4.383  1.00  0.00     0.014 A 
HETATM   19  C   UNL     1      43.025 -16.778   1.961  1.00  0.00     0.049 C 
HETATM   20  C   UNL     1      43.476 -16.180   5.690  1.00  0.00    -0.061 A 
HETATM   21  C   UNL     1      44.446 -16.571   6.768  1.00  0.00     0.048 C 
HETATM   22  C   UNL     1      42.437 -15.284   5.965  1.00  0.00     0.014 A 
HETATM   23  C   UNL     1      41.537 -14.891   4.964  1.00  0.00    -0.045 A 
HETATM   24  C   UNL     1      40.438 -13.919   5.300  1.00  0.00     0.049 C 
ENDBRANCH   1  16
TORSDOF 3
ENDMDL
