MODEL 1
REMARK VINA RESULT:      -8.6      0.000      0.000
REMARK  7 active torsions:
REMARK  status: ('A' for Active; 'I' for Inactive)
REMARK    1  A    between atoms: C_2  and  C_3 
REMARK    2  A    between atoms: C_3  and  C_4 
REMARK    3  A    between atoms: C_5  and  O_6 
REMARK    4  A    between atoms: O_6  and  C_7 
REMARK    5  A    between atoms: C_7  and  C_8 
REMARK       I    between atoms: C_8  and  N_9 
REMARK    6  A    between atoms: N_9  and  C_10 
REMARK    7  A    between atoms: C_17  and  C_18 
REMARK       I    between atoms: C_18  and  N_19 
ROOT
HETATM    1  C   UNL     1      43.416 -17.484   6.926  1.00  0.00     0.246 C 
HETATM    2  N   UNL     1      42.660 -16.464   7.435  1.00  0.00    -0.325 N 
HETATM    3  O   UNL     1      43.170 -18.625   7.330  1.00  0.00    -0.271 OA
HETATM    4  H   UNL     1      42.143 -16.761   8.255  1.00  0.00     0.169 HD
ENDROOT
BRANCH   2   5
HETATM    5  C   UNL     1      42.444 -15.149   6.997  1.00  0.00     0.035 A 
HETATM    6  C   UNL     1      43.391 -14.129   7.145  1.00  0.00     0.046 A 
HETATM    7  C   UNL     1      43.111 -12.843   6.634  1.00  0.00     0.030 A 
HETATM    8  C   UNL     1      41.900 -12.626   5.988  1.00  0.00     0.063 A 
HETATM    9  C   UNL     1      43.796 -11.594   6.567  1.00  0.00     0.156 A 
HETATM   10  N   UNL     1      41.917 -11.309   5.622  1.00  0.00    -0.277 N 
HETATM   11  C   UNL     1      40.946 -13.627   5.801  1.00  0.00     0.034 A 
HETATM   12  H   UNL     1      41.191 -10.797   5.134  1.00  0.00     0.189 HD
HETATM   13  N   UNL     1      43.048 -10.657   5.943  1.00  0.00    -0.168 NA
HETATM   14  C   UNL     1      41.255 -14.899   6.302  1.00  0.00     0.032 A 
BRANCH   9  15
HETATM   15  C   UNL     1      45.141 -11.292   7.076  1.00  0.00     0.270 C 
HETATM   16  N   UNL     1      46.091 -11.160   6.102  1.00  0.00    -0.365 N 
HETATM   17  H   UNL     1      45.815 -11.279   5.134  1.00  0.00     0.159 HD
HETATM   18  H   UNL     1      47.047 -10.967   6.355  1.00  0.00     0.159 HD
HETATM   19  O   UNL     1      45.419 -11.171   8.264  1.00  0.00    -0.266 OA
ENDBRANCH   9  15
ENDBRANCH   2   5
BRANCH   1  20
HETATM   20  C   UNL     1      44.609 -17.192   6.003  1.00  0.00     0.278 C 
BRANCH  20  21
HETATM   21  O   UNL     1      44.235 -16.915   4.654  1.00  0.00    -0.342 OA
BRANCH  21  22
HETATM   22  C   UNL     1      43.910 -17.968   3.840  1.00  0.00     0.076 A 
HETATM   23  C   UNL     1      42.972 -17.712   2.811  1.00  0.00    -0.021 A 
HETATM   24  C   UNL     1      42.578 -18.789   1.999  1.00  0.00     0.010 A 
HETATM   25  C   UNL     1      43.087 -20.074   2.200  1.00  0.00     0.001 A 
HETATM   26  C   UNL     1      43.996 -20.310   3.223  1.00  0.00     0.003 A 
HETATM   27  C   UNL     1      44.402 -19.262   4.047  1.00  0.00     0.037 A 
BRANCH  23  28
HETATM   28  C   UNL     1      42.431 -16.295   2.599  1.00  0.00     0.017 C 
HETATM   29  C   UNL     1      42.968 -15.693   1.293  1.00  0.00     0.015 C 
BRANCH  28  30
HETATM   30  C   UNL     1      40.896 -16.116   2.720  1.00  0.00     0.004 C 
HETATM   31  C   UNL     1      40.154 -15.755   1.437  1.00  0.00     0.006 C 
ENDBRANCH  28  30
ENDBRANCH  23  28
ENDBRANCH  21  22
ENDBRANCH  20  21
ENDBRANCH   1  20
TORSDOF 7
ENDMDL
MODEL 2
REMARK VINA RESULT:      -8.4      4.038      6.124
REMARK  7 active torsions:
REMARK  status: ('A' for Active; 'I' for Inactive)
REMARK    1  A    between atoms: C_2  and  C_3 
REMARK    2  A    between atoms: C_3  and  C_4 
REMARK    3  A    between atoms: C_5  and  O_6 
REMARK    4  A    between atoms: O_6  and  C_7 
REMARK    5  A    between atoms: C_7  and  C_8 
REMARK       I    between atoms: C_8  and  N_9 
REMARK    6  A    between atoms: N_9  and  C_10 
REMARK    7  A    between atoms: C_17  and  C_18 
REMARK       I    between atoms: C_18  and  N_19 
ROOT
HETATM    1  C   UNL     1      40.154 -12.890   5.130  1.00  0.00     0.246 C 
HETATM    2  N   UNL     1      39.364 -13.071   4.027  1.00  0.00    -0.325 N 
HETATM    3  O   UNL     1      39.637 -13.092   6.233  1.00  0.00    -0.271 OA
HETATM    4  H   UNL     1      38.383 -13.129   4.281  1.00  0.00     0.169 HD
ENDROOT
BRANCH   2   5
HETATM    5  C   UNL     1      39.675 -13.241   2.670  1.00  0.00     0.035 A 
HETATM    6  C   UNL     1      40.072 -12.187   1.839  1.00  0.00     0.046 A 
HETATM    7  C   UNL     1      40.411 -12.454   0.495  1.00  0.00     0.030 A 
HETATM    8  C   UNL     1      40.348 -13.763   0.032  1.00  0.00     0.063 A 
HETATM    9  C   UNL     1      40.866 -11.690  -0.620  1.00  0.00     0.156 A 
HETATM   10  N   UNL     1      40.718 -13.700  -1.282  1.00  0.00    -0.277 N 
HETATM   11  C   UNL     1      39.981 -14.839   0.842  1.00  0.00     0.034 A 
HETATM   12  H   UNL     1      40.779 -14.469  -1.941  1.00  0.00     0.189 HD
HETATM   13  N   UNL     1      41.048 -12.469  -1.709  1.00  0.00    -0.168 NA
HETATM   14  C   UNL     1      39.666 -14.551   2.176  1.00  0.00     0.032 A 
BRANCH   9  15
HETATM   15  C   UNL     1      41.135 -10.245  -0.654  1.00  0.00     0.270 C 
HETATM   16  N   UNL     1      40.261  -9.532  -1.427  1.00  0.00    -0.365 N 
HETATM   17  H   UNL     1      39.520 -10.029  -1.908  1.00  0.00     0.159 HD
HETATM   18  H   UNL     1      40.374  -8.535  -1.524  1.00  0.00     0.159 HD
HETATM   19  O   UNL     1      42.057  -9.700  -0.058  1.00  0.00    -0.266 OA
ENDBRANCH   9  15
ENDBRANCH   2   5
BRANCH   1  20
HETATM   20  C   UNL     1      41.575 -12.324   4.992  1.00  0.00     0.278 C 
BRANCH  20  21
HETATM   21  O   UNL     1      42.599 -13.310   5.113  1.00  0.00    -0.342 OA
BRANCH  21  22
HETATM   22  C   UNL     1      42.797 -14.173   4.067  1.00  0.00     0.076 A 
HETATM   23  C   UNL     1      42.548 -15.544   4.318  1.00  0.00    -0.021 A 
HETATM   24  C   UNL     1      42.799 -16.458   3.279  1.00  0.00     0.010 A 
HETATM   25  C   UNL     1      43.282 -16.032   2.040  1.00  0.00     0.001 A 
HETATM   26  C   UNL     1      43.532 -14.685   1.815  1.00  0.00     0.003 A 
HETATM   27  C   UNL     1      43.298 -13.757   2.828  1.00  0.00     0.037 A 
BRANCH  23  28
HETATM   28  C   UNL     1      42.010 -15.992   5.680  1.00  0.00     0.017 C 
HETATM   29  C   UNL     1      40.565 -16.495   5.560  1.00  0.00     0.015 C 
BRANCH  28  30
HETATM   30  C   UNL     1      42.894 -16.982   6.482  1.00  0.00     0.004 C 
HETATM   31  C   UNL     1      44.370 -16.615   6.614  1.00  0.00     0.006 C 
ENDBRANCH  28  30
ENDBRANCH  23  28
ENDBRANCH  21  22
ENDBRANCH  20  21
ENDBRANCH   1  20
TORSDOF 7
ENDMDL
MODEL 3
REMARK VINA RESULT:      -8.2      2.508      3.387
REMARK  7 active torsions:
REMARK  status: ('A' for Active; 'I' for Inactive)
REMARK    1  A    between atoms: C_2  and  C_3 
REMARK    2  A    between atoms: C_3  and  C_4 
REMARK    3  A    between atoms: C_5  and  O_6 
REMARK    4  A    between atoms: O_6  and  C_7 
REMARK    5  A    between atoms: C_7  and  C_8 
REMARK       I    between atoms: C_8  and  N_9 
REMARK    6  A    between atoms: N_9  and  C_10 
REMARK    7  A    between atoms: C_17  and  C_18 
REMARK       I    between atoms: C_18  and  N_19 
ROOT
HETATM    1  C   UNL     1      42.723 -15.416   7.139  1.00  0.00     0.246 C 
HETATM    2  N   UNL     1      42.749 -14.079   6.847  1.00  0.00    -0.325 N 
HETATM    3  O   UNL     1      43.019 -15.747   8.292  1.00  0.00    -0.271 OA
HETATM    4  H   UNL     1      43.233 -13.553   7.567  1.00  0.00     0.169 HD
ENDROOT
BRANCH   2   5
HETATM    5  C   UNL     1      42.192 -13.340   5.794  1.00  0.00     0.035 A 
HETATM    6  C   UNL     1      41.032 -12.568   5.931  1.00  0.00     0.046 A 
HETATM    7  C   UNL     1      40.566 -11.817   4.830  1.00  0.00     0.030 A 
HETATM    8  C   UNL     1      41.277 -11.858   3.637  1.00  0.00     0.063 A 
HETATM    9  C   UNL     1      39.481 -10.925   4.583  1.00  0.00     0.156 A 
HETATM   10  N   UNL     1      40.585 -11.053   2.776  1.00  0.00    -0.277 N 
HETATM   11  C   UNL     1      42.450 -12.596   3.476  1.00  0.00     0.034 A 
HETATM   12  H   UNL     1      40.810 -10.852   1.808  1.00  0.00     0.189 HD
HETATM   13  N   UNL     1      39.503 -10.464   3.313  1.00  0.00    -0.168 NA
HETATM   14  C   UNL     1      42.903 -13.320   4.587  1.00  0.00     0.032 A 
BRANCH   9  15
HETATM   15  C   UNL     1      38.442 -10.507   5.536  1.00  0.00     0.270 C 
HETATM   16  N   UNL     1      37.714  -9.423   5.129  1.00  0.00    -0.365 N 
HETATM   17  H   UNL     1      37.934  -8.997   4.236  1.00  0.00     0.159 HD
HETATM   18  H   UNL     1      36.988  -9.053   5.723  1.00  0.00     0.159 HD
HETATM   19  O   UNL     1      38.229 -11.056   6.611  1.00  0.00    -0.266 OA
ENDBRANCH   9  15
ENDBRANCH   2   5
BRANCH   1  20
HETATM   20  C   UNL     1      42.476 -16.456   6.036  1.00  0.00     0.278 C 
BRANCH  20  21
HETATM   21  O   UNL     1      43.583 -16.625   5.151  1.00  0.00    -0.342 OA
BRANCH  21  22
HETATM   22  C   UNL     1      43.632 -17.757   4.379  1.00  0.00     0.076 A 
HETATM   23  C   UNL     1      43.118 -17.652   3.065  1.00  0.00    -0.021 A 
HETATM   24  C   UNL     1      43.103 -18.813   2.272  1.00  0.00     0.010 A 
HETATM   25  C   UNL     1      43.573 -20.033   2.763  1.00  0.00     0.001 A 
HETATM   26  C   UNL     1      44.063 -20.120   4.060  1.00  0.00     0.003 A 
HETATM   27  C   UNL     1      44.085 -18.987   4.870  1.00  0.00     0.037 A 
BRANCH  23  28
HETATM   28  C   UNL     1      42.614 -16.305   2.539  1.00  0.00     0.017 C 
HETATM   29  C   UNL     1      43.562 -15.745   1.470  1.00  0.00     0.015 C 
BRANCH  28  30
HETATM   30  C   UNL     1      41.136 -16.252   2.076  1.00  0.00     0.004 C 
HETATM   31  C   UNL     1      40.159 -15.550   3.015  1.00  0.00     0.006 C 
ENDBRANCH  28  30
ENDBRANCH  23  28
ENDBRANCH  21  22
ENDBRANCH  20  21
ENDBRANCH   1  20
TORSDOF 7
ENDMDL
MODEL 4
REMARK VINA RESULT:      -8.1      2.898      5.002
REMARK  7 active torsions:
REMARK  status: ('A' for Active; 'I' for Inactive)
REMARK    1  A    between atoms: C_2  and  C_3 
REMARK    2  A    between atoms: C_3  and  C_4 
REMARK    3  A    between atoms: C_5  and  O_6 
REMARK    4  A    between atoms: O_6  and  C_7 
REMARK    5  A    between atoms: C_7  and  C_8 
REMARK       I    between atoms: C_8  and  N_9 
REMARK    6  A    between atoms: N_9  and  C_10 
REMARK    7  A    between atoms: C_17  and  C_18 
REMARK       I    between atoms: C_18  and  N_19 
ROOT
HETATM    1  C   UNL     1      40.333 -14.521   1.248  1.00  0.00     0.246 C 
HETATM    2  N   UNL     1      40.916 -13.306   1.488  1.00  0.00    -0.325 N 
HETATM    3  O   UNL     1      40.376 -14.948   0.089  1.00  0.00    -0.271 OA
HETATM    4  H   UNL     1      41.109 -12.812   0.623  1.00  0.00     0.169 HD
ENDROOT
BRANCH   2   5
HETATM    5  C   UNL     1      41.327 -12.683   2.675  1.00  0.00     0.035 A 
HETATM    6  C   UNL     1      40.439 -12.053   3.555  1.00  0.00     0.046 A 
HETATM    7  C   UNL     1      40.932 -11.490   4.752  1.00  0.00     0.030 A 
HETATM    8  C   UNL     1      42.290 -11.583   5.030  1.00  0.00     0.063 A 
HETATM    9  C   UNL     1      40.370 -10.810   5.873  1.00  0.00     0.156 A 
HETATM   10  N   UNL     1      42.458 -10.950   6.230  1.00  0.00    -0.277 N 
HETATM   11  C   UNL     1      43.197 -12.227   4.187  1.00  0.00     0.034 A 
HETATM   12  H   UNL     1      43.324 -10.817   6.739  1.00  0.00     0.189 HD
HETATM   13  N   UNL     1      41.322 -10.481   6.774  1.00  0.00    -0.168 NA
HETATM   14  C   UNL     1      42.681 -12.793   3.013  1.00  0.00     0.032 A 
BRANCH   9  15
HETATM   15  C   UNL     1      38.954 -10.485   6.095  1.00  0.00     0.270 C 
HETATM   16  N   UNL     1      38.524  -9.372   5.426  1.00  0.00    -0.365 N 
HETATM   17  H   UNL     1      39.186  -8.866   4.849  1.00  0.00     0.159 HD
HETATM   18  H   UNL     1      37.571  -9.061   5.528  1.00  0.00     0.159 HD
HETATM   19  O   UNL     1      38.202 -11.131   6.816  1.00  0.00    -0.266 OA
ENDBRANCH   9  15
ENDBRANCH   2   5
BRANCH   1  20
HETATM   20  C   UNL     1      39.541 -15.242   2.348  1.00  0.00     0.278 C 
BRANCH  20  21
HETATM   21  O   UNL     1      40.261 -16.308   2.968  1.00  0.00    -0.342 OA
BRANCH  21  22
HETATM   22  C   UNL     1      41.132 -16.002   3.980  1.00  0.00     0.076 A 
HETATM   23  C   UNL     1      42.469 -16.438   3.823  1.00  0.00    -0.021 A 
HETATM   24  C   UNL     1      43.369 -16.187   4.873  1.00  0.00     0.010 A 
HETATM   25  C   UNL     1      42.961 -15.535   6.038  1.00  0.00     0.001 A 
HETATM   26  C   UNL     1      41.642 -15.125   6.181  1.00  0.00     0.003 A 
HETATM   27  C   UNL     1      40.726 -15.364   5.158  1.00  0.00     0.037 A 
BRANCH  23  28
HETATM   28  C   UNL     1      42.902 -17.145   2.534  1.00  0.00     0.017 C 
HETATM   29  C   UNL     1      43.495 -16.143   1.533  1.00  0.00     0.015 C 
BRANCH  28  30
HETATM   30  C   UNL     1      43.808 -18.391   2.700  1.00  0.00     0.004 C 
HETATM   31  C   UNL     1      43.260 -19.703   2.145  1.00  0.00     0.006 C 
ENDBRANCH  28  30
ENDBRANCH  23  28
ENDBRANCH  21  22
ENDBRANCH  20  21
ENDBRANCH   1  20
TORSDOF 7
ENDMDL
MODEL 5
REMARK VINA RESULT:      -7.9      2.883      4.011
REMARK  7 active torsions:
REMARK  status: ('A' for Active; 'I' for Inactive)
REMARK    1  A    between atoms: C_2  and  C_3 
REMARK    2  A    between atoms: C_3  and  C_4 
REMARK    3  A    between atoms: C_5  and  O_6 
REMARK    4  A    between atoms: O_6  and  C_7 
REMARK    5  A    between atoms: C_7  and  C_8 
REMARK       I    between atoms: C_8  and  N_9 
REMARK    6  A    between atoms: N_9  and  C_10 
REMARK    7  A    between atoms: C_17  and  C_18 
REMARK       I    between atoms: C_18  and  N_19 
ROOT
HETATM    1  C   UNL     1      40.608 -15.438   6.463  1.00  0.00     0.246 C 
HETATM    2  N   UNL     1      40.166 -14.224   6.009  1.00  0.00    -0.325 N 
HETATM    3  O   UNL     1      39.755 -16.227   6.882  1.00  0.00    -0.271 OA
HETATM    4  H   UNL     1      39.208 -14.050   6.293  1.00  0.00     0.169 HD
ENDROOT
BRANCH   2   5
HETATM    5  C   UNL     1      40.772 -13.249   5.205  1.00  0.00     0.035 A 
HETATM    6  C   UNL     1      40.540 -13.142   3.828  1.00  0.00     0.046 A 
HETATM    7  C   UNL     1      41.156 -12.101   3.100  1.00  0.00     0.030 A 
HETATM    8  C   UNL     1      41.973 -11.201   3.774  1.00  0.00     0.063 A 
HETATM    9  C   UNL     1      41.155 -11.657   1.745  1.00  0.00     0.156 A 
HETATM   10  N   UNL     1      42.420 -10.333   2.817  1.00  0.00    -0.277 N 
HETATM   11  C   UNL     1      42.203 -11.264   5.149  1.00  0.00     0.034 A 
HETATM   12  H   UNL     1      43.047  -9.546   2.946  1.00  0.00     0.189 HD
HETATM   13  N   UNL     1      41.940 -10.569   1.584  1.00  0.00    -0.168 NA
HETATM   14  C   UNL     1      41.567 -12.296   5.852  1.00  0.00     0.032 A 
BRANCH   9  15
HETATM   15  C   UNL     1      40.416 -12.246   0.619  1.00  0.00     0.270 C 
HETATM   16  N   UNL     1      41.213 -12.771  -0.360  1.00  0.00    -0.365 N 
HETATM   17  H   UNL     1      42.219 -12.716  -0.250  1.00  0.00     0.159 HD
HETATM   18  H   UNL     1      40.796 -13.183  -1.180  1.00  0.00     0.159 HD
HETATM   19  O   UNL     1      39.192 -12.272   0.534  1.00  0.00    -0.266 OA
ENDBRANCH   9  15
ENDBRANCH   2   5
BRANCH   1  20
HETATM   20  C   UNL     1      42.111 -15.735   6.575  1.00  0.00     0.278 C 
BRANCH  20  21
HETATM   21  O   UNL     1      42.802 -15.662   5.328  1.00  0.00    -0.342 OA
BRANCH  21  22
HETATM   22  C   UNL     1      43.246 -16.828   4.762  1.00  0.00     0.076 A 
HETATM   23  C   UNL     1      42.867 -17.069   3.420  1.00  0.00    -0.021 A 
HETATM   24  C   UNL     1      43.261 -18.285   2.834  1.00  0.00     0.010 A 
HETATM   25  C   UNL     1      43.997 -19.230   3.551  1.00  0.00     0.001 A 
HETATM   26  C   UNL     1      44.350 -18.983   4.871  1.00  0.00     0.003 A 
HETATM   27  C   UNL     1      43.969 -17.789   5.480  1.00  0.00     0.037 A 
BRANCH  23  28
HETATM   28  C   UNL     1      42.066 -16.017   2.646  1.00  0.00     0.017 C 
HETATM   29  C   UNL     1      42.787 -15.627   1.348  1.00  0.00     0.015 C 
BRANCH  28  30
HETATM   30  C   UNL     1      40.570 -16.333   2.395  1.00  0.00     0.004 C 
HETATM   31  C   UNL     1      39.970 -15.783   1.104  1.00  0.00     0.006 C 
ENDBRANCH  28  30
ENDBRANCH  23  28
ENDBRANCH  21  22
ENDBRANCH  20  21
ENDBRANCH   1  20
TORSDOF 7
ENDMDL
MODEL 6
REMARK VINA RESULT:      -7.8      4.010      6.895
REMARK  7 active torsions:
REMARK  status: ('A' for Active; 'I' for Inactive)
REMARK    1  A    between atoms: C_2  and  C_3 
REMARK    2  A    between atoms: C_3  and  C_4 
REMARK    3  A    between atoms: C_5  and  O_6 
REMARK    4  A    between atoms: O_6  and  C_7 
REMARK    5  A    between atoms: C_7  and  C_8 
REMARK       I    between atoms: C_8  and  N_9 
REMARK    6  A    between atoms: N_9  and  C_10 
REMARK    7  A    between atoms: C_17  and  C_18 
REMARK       I    between atoms: C_18  and  N_19 
ROOT
HETATM    1  C   UNL     1      42.112 -16.838   2.157  1.00  0.00     0.246 C 
HETATM    2  N   UNL     1      40.860 -16.302   2.024  1.00  0.00    -0.325 N 
HETATM    3  O   UNL     1      42.190 -18.063   2.294  1.00  0.00    -0.271 OA
HETATM    4  H   UNL     1      40.142 -16.971   2.286  1.00  0.00     0.169 HD
ENDROOT
BRANCH   2   5
HETATM    5  C   UNL     1      40.418 -15.058   1.552  1.00  0.00     0.035 A 
HETATM    6  C   UNL     1      40.504 -14.676   0.208  1.00  0.00     0.046 A 
HETATM    7  C   UNL     1      39.993 -13.422  -0.190  1.00  0.00     0.030 A 
HETATM    8  C   UNL     1      39.410 -12.599   0.766  1.00  0.00     0.063 A 
HETATM    9  C   UNL     1      39.874 -12.705  -1.417  1.00  0.00     0.156 A 
HETATM   10  N   UNL     1      39.027 -11.474   0.089  1.00  0.00    -0.277 N 
HETATM   11  C   UNL     1      39.285 -12.961   2.108  1.00  0.00     0.034 A 
HETATM   12  H   UNL     1      38.572 -10.652   0.471  1.00  0.00     0.189 HD
HETATM   13  N   UNL     1      39.280 -11.506  -1.230  1.00  0.00    -0.168 NA
HETATM   14  C   UNL     1      39.784 -14.217   2.475  1.00  0.00     0.032 A 
BRANCH   9  15
HETATM   15  C   UNL     1      40.307 -13.150  -2.750  1.00  0.00     0.270 C 
HETATM   16  N   UNL     1      41.555 -12.718  -3.106  1.00  0.00    -0.365 N 
HETATM   17  H   UNL     1      42.073 -12.139  -2.455  1.00  0.00     0.159 HD
HETATM   18  H   UNL     1      41.932 -12.959  -4.008  1.00  0.00     0.159 HD
HETATM   19  O   UNL     1      39.629 -13.842  -3.501  1.00  0.00    -0.266 OA
ENDBRANCH   9  15
ENDBRANCH   2   5
BRANCH   1  20
HETATM   20  C   UNL     1      43.345 -15.929   2.274  1.00  0.00     0.278 C 
BRANCH  20  21
HETATM   21  O   UNL     1      43.508 -15.348   3.567  1.00  0.00    -0.342 OA
BRANCH  21  22
HETATM   22  C   UNL     1      43.133 -14.042   3.745  1.00  0.00     0.076 A 
HETATM   23  C   UNL     1      42.527 -13.717   4.982  1.00  0.00    -0.021 A 
HETATM   24  C   UNL     1      42.081 -12.397   5.167  1.00  0.00     0.010 A 
HETATM   25  C   UNL     1      42.223 -11.436   4.164  1.00  0.00     0.001 A 
HETATM   26  C   UNL     1      42.808 -11.775   2.952  1.00  0.00     0.003 A 
HETATM   27  C   UNL     1      43.256 -13.078   2.738  1.00  0.00     0.037 A 
BRANCH  23  28
HETATM   28  C   UNL     1      42.387 -14.782   6.074  1.00  0.00     0.017 C 
HETATM   29  C   UNL     1      43.201 -14.400   7.318  1.00  0.00     0.015 C 
BRANCH  28  30
HETATM   30  C   UNL     1      40.943 -15.207   6.444  1.00  0.00     0.004 C 
HETATM   31  C   UNL     1      40.319 -16.301   5.582  1.00  0.00     0.006 C 
ENDBRANCH  28  30
ENDBRANCH  23  28
ENDBRANCH  21  22
ENDBRANCH  20  21
ENDBRANCH   1  20
TORSDOF 7
ENDMDL
MODEL 7
REMARK VINA RESULT:      -7.8      2.508      4.545
REMARK  7 active torsions:
REMARK  status: ('A' for Active; 'I' for Inactive)
REMARK    1  A    between atoms: C_2  and  C_3 
REMARK    2  A    between atoms: C_3  and  C_4 
REMARK    3  A    between atoms: C_5  and  O_6 
REMARK    4  A    between atoms: O_6  and  C_7 
REMARK    5  A    between atoms: C_7  and  C_8 
REMARK       I    between atoms: C_8  and  N_9 
REMARK    6  A    between atoms: N_9  and  C_10 
REMARK    7  A    between atoms: C_17  and  C_18 
REMARK       I    between atoms: C_18  and  N_19 
ROOT
HETATM    1  C   UNL     1      40.537 -11.967   4.189  1.00  0.00     0.246 C 
HETATM    2  N   UNL     1      41.318 -10.952   4.672  1.00  0.00    -0.325 N 
HETATM    3  O   UNL     1      39.741 -11.686   3.287  1.00  0.00    -0.271 OA
HETATM    4  H   UNL     1      40.971 -10.046   4.375  1.00  0.00     0.169 HD
ENDROOT
BRANCH   2   5
HETATM    5  C   UNL     1      42.498 -10.957   5.429  1.00  0.00     0.035 A 
HETATM    6  C   UNL     1      42.534 -10.637   6.792  1.00  0.00     0.046 A 
HETATM    7  C   UNL     1      43.759 -10.712   7.489  1.00  0.00     0.030 A 
HETATM    8  C   UNL     1      44.900 -11.111   6.803  1.00  0.00     0.063 A 
HETATM    9  C   UNL     1      44.190 -10.497   8.831  1.00  0.00     0.156 A 
HETATM   10  N   UNL     1      45.907 -11.077   7.727  1.00  0.00    -0.277 N 
HETATM   11  C   UNL     1      44.893 -11.461   5.453  1.00  0.00     0.034 A 
HETATM   12  H   UNL     1      46.885 -11.300   7.579  1.00  0.00     0.189 HD
HETATM   13  N   UNL     1      45.516 -10.723   8.963  1.00  0.00    -0.168 NA
HETATM   14  C   UNL     1      43.662 -11.396   4.786  1.00  0.00     0.032 A 
BRANCH   9  15
HETATM   15  C   UNL     1      43.360 -10.094   9.975  1.00  0.00     0.270 C 
HETATM   16  N   UNL     1      43.347 -10.996  11.003  1.00  0.00    -0.365 N 
HETATM   17  H   UNL     1      43.885 -11.849  10.908  1.00  0.00     0.159 HD
HETATM   18  H   UNL     1      42.794 -10.813  11.825  1.00  0.00     0.159 HD
HETATM   19  O   UNL     1      42.718  -9.050  10.029  1.00  0.00    -0.266 OA
ENDBRANCH   9  15
ENDBRANCH   2   5
BRANCH   1  20
HETATM   20  C   UNL     1      40.560 -13.356   4.846  1.00  0.00     0.278 C 
BRANCH  20  21
HETATM   21  O   UNL     1      41.347 -14.312   4.137  1.00  0.00    -0.342 OA
BRANCH  21  22
HETATM   22  C   UNL     1      42.359 -14.946   4.807  1.00  0.00     0.076 A 
HETATM   23  C   UNL     1      42.977 -16.034   4.144  1.00  0.00    -0.021 A 
HETATM   24  C   UNL     1      43.979 -16.738   4.834  1.00  0.00     0.010 A 
HETATM   25  C   UNL     1      44.353 -16.385   6.132  1.00  0.00     0.001 A 
HETATM   26  C   UNL     1      43.727 -15.322   6.772  1.00  0.00     0.003 A 
HETATM   27  C   UNL     1      42.727 -14.609   6.115  1.00  0.00     0.037 A 
BRANCH  23  28
HETATM   28  C   UNL     1      42.561 -16.403   2.717  1.00  0.00     0.017 C 
HETATM   29  C   UNL     1      43.572 -15.864   1.696  1.00  0.00     0.015 C 
BRANCH  28  30
HETATM   30  C   UNL     1      42.227 -17.895   2.458  1.00  0.00     0.004 C 
HETATM   31  C   UNL     1      43.416 -18.826   2.246  1.00  0.00     0.006 C 
ENDBRANCH  28  30
ENDBRANCH  23  28
ENDBRANCH  21  22
ENDBRANCH  20  21
ENDBRANCH   1  20
TORSDOF 7
ENDMDL
MODEL 8
REMARK VINA RESULT:      -7.6      4.628      6.779
REMARK  7 active torsions:
REMARK  status: ('A' for Active; 'I' for Inactive)
REMARK    1  A    between atoms: C_2  and  C_3 
REMARK    2  A    between atoms: C_3  and  C_4 
REMARK    3  A    between atoms: C_5  and  O_6 
REMARK    4  A    between atoms: O_6  and  C_7 
REMARK    5  A    between atoms: C_7  and  C_8 
REMARK       I    between atoms: C_8  and  N_9 
REMARK    6  A    between atoms: N_9  and  C_10 
REMARK    7  A    between atoms: C_17  and  C_18 
REMARK       I    between atoms: C_18  and  N_19 
ROOT
HETATM    1  C   UNL     1      40.240 -15.257   1.813  1.00  0.00     0.246 C 
HETATM    2  N   UNL     1      39.551 -14.347   1.058  1.00  0.00    -0.325 N 
HETATM    3  O   UNL     1      39.596 -15.905   2.643  1.00  0.00    -0.271 OA
HETATM    4  H   UNL     1      38.631 -14.167   1.447  1.00  0.00     0.169 HD
ENDROOT
BRANCH   2   5
HETATM    5  C   UNL     1      39.866 -13.693  -0.141  1.00  0.00     0.035 A 
HETATM    6  C   UNL     1      40.364 -12.386  -0.192  1.00  0.00     0.046 A 
HETATM    7  C   UNL     1      40.700 -11.820  -1.441  1.00  0.00     0.030 A 
HETATM    8  C   UNL     1      40.533 -12.581  -2.591  1.00  0.00     0.063 A 
HETATM    9  C   UNL     1      41.235 -10.578  -1.894  1.00  0.00     0.156 A 
HETATM   10  N   UNL     1      40.927 -11.773  -3.621  1.00  0.00    -0.277 N 
HETATM   11  C   UNL     1      40.065 -13.896  -2.573  1.00  0.00     0.034 A 
HETATM   12  H   UNL     1      40.934 -11.996  -4.610  1.00  0.00     0.189 HD
HETATM   13  N   UNL     1      41.367 -10.561  -3.239  1.00  0.00    -0.168 NA
HETATM   14  C   UNL     1      39.755 -14.441  -1.320  1.00  0.00     0.032 A 
BRANCH   9  15
HETATM   15  C   UNL     1      41.624  -9.426  -1.068  1.00  0.00     0.270 C 
HETATM   16  N   UNL     1      40.571  -8.751  -0.516  1.00  0.00    -0.365 N 
HETATM   17  H   UNL     1      39.630  -9.075  -0.711  1.00  0.00     0.159 HD
HETATM   18  H   UNL     1      40.738  -7.937   0.054  1.00  0.00     0.159 HD
HETATM   19  O   UNL     1      42.783  -9.073  -0.878  1.00  0.00    -0.266 OA
ENDBRANCH   9  15
ENDBRANCH   2   5
BRANCH   1  20
HETATM   20  C   UNL     1      41.771 -15.353   1.720  1.00  0.00     0.278 C 
BRANCH  20  21
HETATM   21  O   UNL     1      42.420 -15.392   2.990  1.00  0.00    -0.342 OA
BRANCH  21  22
HETATM   22  C   UNL     1      42.987 -16.571   3.396  1.00  0.00     0.076 A 
HETATM   23  C   UNL     1      43.220 -16.721   4.784  1.00  0.00    -0.021 A 
HETATM   24  C   UNL     1      43.853 -17.898   5.220  1.00  0.00     0.010 A 
HETATM   25  C   UNL     1      44.247 -18.887   4.316  1.00  0.00     0.001 A 
HETATM   26  C   UNL     1      44.021 -18.718   2.956  1.00  0.00     0.003 A 
HETATM   27  C   UNL     1      43.400 -17.560   2.495  1.00  0.00     0.037 A 
BRANCH  23  28
HETATM   28  C   UNL     1      42.774 -15.629   5.762  1.00  0.00     0.017 C 
HETATM   29  C   UNL     1      41.648 -16.137   6.673  1.00  0.00     0.015 C 
BRANCH  28  30
HETATM   30  C   UNL     1      43.894 -14.929   6.573  1.00  0.00     0.004 C 
HETATM   31  C   UNL     1      43.847 -13.404   6.612  1.00  0.00     0.006 C 
ENDBRANCH  28  30
ENDBRANCH  23  28
ENDBRANCH  21  22
ENDBRANCH  20  21
ENDBRANCH   1  20
TORSDOF 7
ENDMDL
MODEL 9
REMARK VINA RESULT:      -7.5      2.264      4.010
REMARK  7 active torsions:
REMARK  status: ('A' for Active; 'I' for Inactive)
REMARK    1  A    between atoms: C_2  and  C_3 
REMARK    2  A    between atoms: C_3  and  C_4 
REMARK    3  A    between atoms: C_5  and  O_6 
REMARK    4  A    between atoms: O_6  and  C_7 
REMARK    5  A    between atoms: C_7  and  C_8 
REMARK       I    between atoms: C_8  and  N_9 
REMARK    6  A    between atoms: N_9  and  C_10 
REMARK    7  A    between atoms: C_17  and  C_18 
REMARK       I    between atoms: C_18  and  N_19 
ROOT
HETATM    1  C   UNL     1      40.608 -14.698   1.142  1.00  0.00     0.246 C 
HETATM    2  N   UNL     1      40.214 -13.546   1.767  1.00  0.00    -0.325 N 
HETATM    3  O   UNL     1      40.516 -14.731  -0.090  1.00  0.00    -0.271 OA
HETATM    4  H   UNL     1      39.681 -12.950   1.142  1.00  0.00     0.169 HD
ENDROOT
BRANCH   2   5
HETATM    5  C   UNL     1      40.463 -13.046   3.053  1.00  0.00     0.035 A 
HETATM    6  C   UNL     1      41.741 -12.687   3.501  1.00  0.00     0.046 A 
HETATM    7  C   UNL     1      41.895 -12.149   4.796  1.00  0.00     0.030 A 
HETATM    8  C   UNL     1      40.770 -11.982   5.594  1.00  0.00     0.063 A 
HETATM    9  C   UNL     1      42.981 -11.659   5.580  1.00  0.00     0.156 A 
HETATM   10  N   UNL     1      41.235 -11.459   6.769  1.00  0.00    -0.277 N 
HETATM   11  C   UNL     1      39.481 -12.305   5.169  1.00  0.00     0.034 A 
HETATM   12  H   UNL     1      40.692 -11.215   7.590  1.00  0.00     0.189 HD
HETATM   13  N   UNL     1      42.561 -11.240   6.795  1.00  0.00    -0.168 NA
HETATM   14  C   UNL     1      39.351 -12.821   3.873  1.00  0.00     0.032 A 
BRANCH   9  15
HETATM   15  C   UNL     1      44.395 -11.579   5.186  1.00  0.00     0.270 C 
HETATM   16  N   UNL     1      44.600 -11.579   3.834  1.00  0.00    -0.365 N 
HETATM   17  H   UNL     1      43.795 -11.637   3.220  1.00  0.00     0.159 HD
HETATM   18  H   UNL     1      45.538 -11.543   3.468  1.00  0.00     0.159 HD
HETATM   19  O   UNL     1      45.331 -11.524   5.977  1.00  0.00    -0.266 OA
ENDBRANCH   9  15
ENDBRANCH   2   5
BRANCH   1  20
HETATM   20  C   UNL     1      41.009 -15.936   1.958  1.00  0.00     0.278 C 
BRANCH  20  21
HETATM   21  O   UNL     1      42.338 -15.874   2.476  1.00  0.00    -0.342 OA
BRANCH  21  22
HETATM   22  C   UNL     1      42.872 -17.007   3.032  1.00  0.00     0.076 A 
HETATM   23  C   UNL     1      43.119 -16.975   4.426  1.00  0.00    -0.021 A 
HETATM   24  C   UNL     1      43.720 -18.103   5.011  1.00  0.00     0.010 A 
HETATM   25  C   UNL     1      44.069 -19.218   4.247  1.00  0.00     0.001 A 
HETATM   26  C   UNL     1      43.831 -19.227   2.879  1.00  0.00     0.003 A 
HETATM   27  C   UNL     1      43.241 -18.121   2.270  1.00  0.00     0.037 A 
BRANCH  23  28
HETATM   28  C   UNL     1      42.721 -15.747   5.250  1.00  0.00     0.017 C 
HETATM   29  C   UNL     1      41.269 -15.858   5.733  1.00  0.00     0.015 C 
BRANCH  28  30
HETATM   30  C   UNL     1      43.678 -15.349   6.404  1.00  0.00     0.004 C 
HETATM   31  C   UNL     1      43.197 -15.663   7.818  1.00  0.00     0.006 C 
ENDBRANCH  28  30
ENDBRANCH  23  28
ENDBRANCH  21  22
ENDBRANCH  20  21
ENDBRANCH   1  20
TORSDOF 7
ENDMDL
MODEL 10
REMARK VINA RESULT:      -7.3     14.691     16.706
REMARK  7 active torsions:
REMARK  status: ('A' for Active; 'I' for Inactive)
REMARK    1  A    between atoms: C_2  and  C_3 
REMARK    2  A    between atoms: C_3  and  C_4 
REMARK    3  A    between atoms: C_5  and  O_6 
REMARK    4  A    between atoms: O_6  and  C_7 
REMARK    5  A    between atoms: C_7  and  C_8 
REMARK       I    between atoms: C_8  and  N_9 
REMARK    6  A    between atoms: N_9  and  C_10 
REMARK    7  A    between atoms: C_17  and  C_18 
REMARK       I    between atoms: C_18  and  N_19 
ROOT
HETATM    1  C   UNL     1      43.348 -29.588   0.858  1.00  0.00     0.246 C 
HETATM    2  N   UNL     1      44.438 -28.893   1.308  1.00  0.00    -0.325 N 
HETATM    3  O   UNL     1      42.240 -29.066   1.020  1.00  0.00    -0.271 OA
HETATM    4  H   UNL     1      44.164 -28.135   1.924  1.00  0.00     0.169 HD
ENDROOT
BRANCH   2   5
HETATM    5  C   UNL     1      45.806 -29.012   1.025  1.00  0.00     0.035 A 
HETATM    6  C   UNL     1      46.630 -29.975   1.620  1.00  0.00     0.046 A 
HETATM    7  C   UNL     1      47.988 -30.055   1.244  1.00  0.00     0.030 A 
HETATM    8  C   UNL     1      48.472 -29.176   0.282  1.00  0.00     0.063 A 
HETATM    9  C   UNL     1      49.101 -30.877   1.588  1.00  0.00     0.156 A 
HETATM   10  N   UNL     1      49.795 -29.488   0.141  1.00  0.00    -0.277 N 
HETATM   11  C   UNL     1      47.672 -28.222  -0.349  1.00  0.00     0.034 A 
HETATM   12  H   UNL     1      50.469 -29.044  -0.472  1.00  0.00     0.189 HD
HETATM   13  N   UNL     1      50.209 -30.515   0.903  1.00  0.00    -0.168 NA
HETATM   14  C   UNL     1      46.324 -28.174   0.029  1.00  0.00     0.032 A 
BRANCH   9  15
HETATM   15  C   UNL     1      49.117 -31.995   2.542  1.00  0.00     0.270 C 
HETATM   16  N   UNL     1      49.197 -31.611   3.852  1.00  0.00    -0.365 N 
HETATM   17  H   UNL     1      49.244 -30.622   4.067  1.00  0.00     0.159 HD
HETATM   18  H   UNL     1      49.229 -32.308   4.579  1.00  0.00     0.159 HD
HETATM   19  O   UNL     1      49.070 -33.178   2.221  1.00  0.00    -0.266 OA
ENDBRANCH   9  15
ENDBRANCH   2   5
BRANCH   1  20
HETATM   20  C   UNL     1      43.499 -31.014   0.308  1.00  0.00     0.278 C 
BRANCH  20  21
HETATM   21  O   UNL     1      43.739 -31.064  -1.098  1.00  0.00    -0.342 OA
BRANCH  21  22
HETATM   22  C   UNL     1      45.031 -31.206  -1.532  1.00  0.00     0.076 A 
HETATM   23  C   UNL     1      45.448 -30.351  -2.580  1.00  0.00    -0.021 A 
HETATM   24  C   UNL     1      46.750 -30.515  -3.083  1.00  0.00     0.010 A 
HETATM   25  C   UNL     1      47.606 -31.494  -2.573  1.00  0.00     0.001 A 
HETATM   26  C   UNL     1      47.177 -32.332  -1.553  1.00  0.00     0.003 A 
HETATM   27  C   UNL     1      45.889 -32.195  -1.038  1.00  0.00     0.037 A 
BRANCH  23  28
HETATM   28  C   UNL     1      44.498 -29.278  -3.122  1.00  0.00     0.017 C 
HETATM   29  C   UNL     1      45.265 -27.998  -3.480  1.00  0.00     0.015 C 
BRANCH  28  30
HETATM   30  C   UNL     1      43.545 -29.712  -4.265  1.00  0.00     0.004 C 
HETATM   31  C   UNL     1      44.200 -30.369  -5.477  1.00  0.00     0.006 C 
ENDBRANCH  28  30
ENDBRANCH  23  28
ENDBRANCH  21  22
ENDBRANCH  20  21
ENDBRANCH   1  20
TORSDOF 7
ENDMDL
