MODEL 1
REMARK VINA RESULT:      -8.2      0.000      0.000
REMARK  7 active torsions:
REMARK  status: ('A' for Active; 'I' for Inactive)
REMARK    1  A    between atoms: C_6  and  O_7 
REMARK    2  A    between atoms: O_7  and  C_8 
REMARK    3  A    between atoms: C_11  and  C_12 
REMARK       I    between atoms: C_12  and  N_13 
REMARK    4  A    between atoms: N_13  and  C_14 
REMARK    5  A    between atoms: N_22  and  C_23 
REMARK    6  A    between atoms: C_23  and  C_24 
REMARK    7  A    between atoms: C_24  and  O_25 
ROOT
HETATM    1  C           1      41.072 -11.225   6.090  0.00  0.00     0.113 A 
HETATM    2  C           1      41.084  -9.924   6.465  0.00  0.00     0.102 A 
HETATM    3  C           1      39.914 -11.918   6.104  0.00  0.00     0.002 A 
HETATM    4  C           1      39.890 -13.358   5.652  0.00  0.00     0.138 C 
HETATM    5  C           1      41.297 -13.965   5.727  0.00  0.00     0.161 C 
HETATM    6  C           1      42.185 -12.986   4.929  0.00  0.00     0.155 C 
HETATM    7  C           1      43.627 -13.517   4.877  0.00  0.00     0.072 C 
HETATM    8  N           1      41.637 -12.727   3.579  0.00  0.00    -0.323 N 
HETATM    9  C           1      40.334 -13.067   3.242  0.00  0.00     0.172 C 
HETATM   10  S           1      39.745 -13.014   1.776  0.00  0.00    -0.041 SA
HETATM   11  N           1      39.459 -13.360   4.259  0.00  0.00    -0.357 N 
HETATM   12  O           1      42.250 -11.786   5.662  0.00  0.00    -0.316 OA
HETATM   13  C           1      38.773 -11.338   6.505  0.00  0.00     0.012 A 
HETATM   14  C           1      38.776 -10.057   6.892  0.00  0.00     0.003 A 
HETATM   15  C           1      39.924  -9.365   6.865  0.00  0.00     0.040 A 
HETATM   16  H           1      38.474 -13.518   4.043  0.00  0.00     0.162 HD
ENDROOT
BRANCH   5  17
HETATM   17  C           1      41.319 -15.441   5.306  0.00  0.00     0.233 C 
HETATM   18  N           1      42.448 -15.811   4.634  0.00  0.00    -0.326 N 
HETATM   19  H           1      43.160 -15.105   4.524  0.00  0.00     0.169 HD
HETATM   20  O           1      40.426 -16.197   5.593  0.00  0.00    -0.273 OA
BRANCH  18  21
HETATM   21  C           1      42.861 -16.965   4.068  0.00  0.00     0.040 A 
HETATM   22  C           1      42.473 -17.189   2.793  0.00  0.00    -0.035 A 
HETATM   23  C           1      41.625 -16.191   2.030  0.00  0.00     0.050 C 
HETATM   24  C           1      42.851 -18.323   2.174  0.00  0.00     0.015 A 
HETATM   25  C           1      43.603 -19.255   2.780  0.00  0.00    -0.061 A 
HETATM   26  C           1      44.006 -20.514   2.049  0.00  0.00     0.048 C 
HETATM   27  C           1      43.982 -19.024   4.047  0.00  0.00     0.009 A 
HETATM   28  C           1      43.615 -17.899   4.676  0.00  0.00     0.030 A 
ENDBRANCH  18  21
ENDBRANCH   5  17
BRANCH   8  29
HETATM   29  C           1      42.486 -11.941   2.674  0.00  0.00     0.154 C 
BRANCH  29  30
HETATM   30  C           1      41.991 -10.503   2.485  0.00  0.00     0.187 C 
BRANCH  30  31
HETATM   31  O           1      42.008 -10.199   1.111  0.00  0.00    -0.394 OA
HETATM   32  C           1      40.955  -9.334   0.742  0.00  0.00     0.201 C 
ENDBRANCH  30  31
ENDBRANCH  29  30
ENDBRANCH   8  29
BRANCH   2  33
HETATM   33  O           1      42.288  -9.257   6.410  0.00  0.00    -0.349 OA
BRANCH  33  34
HETATM   34  C           1      42.860  -8.763   7.592  0.00  0.00     0.171 C 
HETATM   35  C           1      43.946  -9.736   8.047  0.00  0.00     0.034 C 
ENDBRANCH  33  34
ENDBRANCH   2  33
TORSDOF 7
ENDMDL
MODEL 2
REMARK VINA RESULT:      -8.1      0.312      1.141
REMARK  7 active torsions:
REMARK  status: ('A' for Active; 'I' for Inactive)
REMARK    1  A    between atoms: C_6  and  O_7 
REMARK    2  A    between atoms: O_7  and  C_8 
REMARK    3  A    between atoms: C_11  and  C_12 
REMARK       I    between atoms: C_12  and  N_13 
REMARK    4  A    between atoms: N_13  and  C_14 
REMARK    5  A    between atoms: N_22  and  C_23 
REMARK    6  A    between atoms: C_23  and  C_24 
REMARK    7  A    between atoms: C_24  and  O_25 
ROOT
HETATM    1  C           1      41.014 -11.191   6.040  0.00  0.00     0.113 A 
HETATM    2  C           1      41.022  -9.891   6.422  0.00  0.00     0.102 A 
HETATM    3  C           1      39.852 -11.876   6.012  0.00  0.00     0.002 A 
HETATM    4  C           1      39.834 -13.313   5.553  0.00  0.00     0.138 C 
HETATM    5  C           1      41.234 -13.930   5.671  0.00  0.00     0.161 C 
HETATM    6  C           1      42.154 -12.953   4.908  0.00  0.00     0.155 C 
HETATM    7  C           1      43.594 -13.493   4.901  0.00  0.00     0.072 C 
HETATM    8  N           1      41.653 -12.684   3.541  0.00  0.00    -0.323 N 
HETATM    9  C           1      40.359 -13.014   3.160  0.00  0.00     0.172 C 
HETATM   10  S           1      39.820 -12.950   1.676  0.00  0.00    -0.041 SA
HETATM   11  N           1      39.449 -13.306   4.146  0.00  0.00    -0.357 N 
HETATM   12  O           1      42.202 -11.756   5.649  0.00  0.00    -0.316 OA
HETATM   13  C           1      38.702 -11.290   6.378  0.00  0.00     0.012 A 
HETATM   14  C           1      38.700 -10.012   6.771  0.00  0.00     0.003 A 
HETATM   15  C           1      39.853  -9.327   6.786  0.00  0.00     0.040 A 
HETATM   16  H           1      38.472 -13.456   3.897  0.00  0.00     0.162 HD
ENDROOT
BRANCH   5  17
HETATM   17  C           1      41.261 -15.403   5.243  0.00  0.00     0.233 C 
HETATM   18  N           1      42.298 -15.725   4.416  0.00  0.00    -0.326 N 
HETATM   19  H           1      42.954 -14.988   4.209  0.00  0.00     0.169 HD
HETATM   20  O           1      40.452 -16.199   5.651  0.00  0.00    -0.273 OA
BRANCH  18  21
HETATM   21  C           1      42.676 -16.860   3.790  0.00  0.00     0.040 A 
HETATM   22  C           1      43.672 -17.568   4.367  0.00  0.00    -0.035 A 
HETATM   23  C           1      44.327 -17.118   5.658  0.00  0.00     0.050 C 
HETATM   24  C           1      44.096 -18.707   3.789  0.00  0.00     0.015 A 
HETATM   25  C           1      43.566 -19.173   2.647  0.00  0.00    -0.061 A 
HETATM   26  C           1      44.071 -20.458   2.033  0.00  0.00     0.048 C 
HETATM   27  C           1      42.578 -18.462   2.082  0.00  0.00     0.009 A 
HETATM   28  C           1      42.145 -17.325   2.645  0.00  0.00     0.030 A 
ENDBRANCH  18  21
ENDBRANCH   5  17
BRANCH   8  29
HETATM   29  C           1      42.537 -11.899   2.670  0.00  0.00     0.154 C 
BRANCH  29  30
HETATM   30  C           1      42.059 -10.456   2.475  0.00  0.00     0.187 C 
BRANCH  30  31
HETATM   31  O           1      42.074 -10.159   1.099  0.00  0.00    -0.394 OA
HETATM   32  C           1      40.994  -9.333   0.719  0.00  0.00     0.201 C 
ENDBRANCH  30  31
ENDBRANCH  29  30
ENDBRANCH   8  29
BRANCH   2  33
HETATM   33  O           1      42.231  -9.232   6.410  0.00  0.00    -0.349 OA
BRANCH  33  34
HETATM   34  C           1      42.768  -8.751   7.614  0.00  0.00     0.171 C 
HETATM   35  C           1      43.761  -9.781   8.146  0.00  0.00     0.034 C 
ENDBRANCH  33  34
ENDBRANCH   2  33
TORSDOF 7
ENDMDL
MODEL 3
REMARK VINA RESULT:      -8.1      1.889      3.425
REMARK  7 active torsions:
REMARK  status: ('A' for Active; 'I' for Inactive)
REMARK    1  A    between atoms: C_6  and  O_7 
REMARK    2  A    between atoms: O_7  and  C_8 
REMARK    3  A    between atoms: C_11  and  C_12 
REMARK       I    between atoms: C_12  and  N_13 
REMARK    4  A    between atoms: N_13  and  C_14 
REMARK    5  A    between atoms: N_22  and  C_23 
REMARK    6  A    between atoms: C_23  and  C_24 
REMARK    7  A    between atoms: C_24  and  O_25 
ROOT
HETATM    1  C           1      42.717 -10.852   6.082  0.00  0.00     0.113 A 
HETATM    2  C           1      42.701  -9.757   6.878  0.00  0.00     0.102 A 
HETATM    3  C           1      43.442 -11.933   6.440  0.00  0.00     0.002 A 
HETATM    4  C           1      43.434 -13.169   5.574  0.00  0.00     0.138 C 
HETATM    5  C           1      42.997 -12.817   4.146  0.00  0.00     0.161 C 
HETATM    6  C           1      41.660 -12.066   4.322  0.00  0.00     0.155 C 
HETATM    7  C           1      41.081 -11.707   2.944  0.00  0.00     0.072 C 
HETATM    8  N           1      40.703 -12.839   5.145  0.00  0.00    -0.323 N 
HETATM    9  C           1      41.108 -13.923   5.912  0.00  0.00     0.172 C 
HETATM   10  S           1      40.124 -14.917   6.647  0.00  0.00    -0.041 SA
HETATM   11  N           1      42.452 -14.084   6.146  0.00  0.00    -0.357 N 
HETATM   12  O           1      41.949 -10.837   4.944  0.00  0.00    -0.316 OA
HETATM   13  C           1      44.165 -11.929   7.570  0.00  0.00     0.012 A 
HETATM   14  C           1      44.168 -10.847   8.356  0.00  0.00     0.003 A 
HETATM   15  C           1      43.437  -9.778   8.007  0.00  0.00     0.040 A 
HETATM   16  H           1      42.765 -14.814   6.785  0.00  0.00     0.162 HD
ENDROOT
BRANCH   5  17
HETATM   17  C           1      43.003 -14.039   3.217  0.00  0.00     0.233 C 
HETATM   18  N           1      43.168 -15.230   3.863  0.00  0.00    -0.326 N 
HETATM   19  H           1      43.223 -15.192   4.870  0.00  0.00     0.169 HD
HETATM   20  O           1      42.830 -13.935   2.029  0.00  0.00    -0.273 OA
BRANCH  18  21
HETATM   21  C           1      43.264 -16.512   3.450  0.00  0.00     0.040 A 
HETATM   22  C           1      43.897 -17.371   4.278  0.00  0.00    -0.035 A 
HETATM   23  C           1      44.463 -16.923   5.611  0.00  0.00     0.050 C 
HETATM   24  C           1      44.027 -18.662   3.921  0.00  0.00     0.015 A 
HETATM   25  C           1      43.552 -19.136   2.758  0.00  0.00    -0.061 A 
HETATM   26  C           1      43.719 -20.593   2.396  0.00  0.00     0.048 C 
HETATM   27  C           1      42.926 -18.274   1.942  0.00  0.00     0.009 A 
HETATM   28  C           1      42.788 -16.986   2.284  0.00  0.00     0.030 A 
ENDBRANCH  18  21
ENDBRANCH   5  17
BRANCH   8  29
HETATM   29  C           1      39.342 -12.294   5.240  0.00  0.00     0.154 C 
BRANCH  29  30
HETATM   30  C           1      39.154 -11.355   6.435  0.00  0.00     0.187 C 
BRANCH  30  31
HETATM   31  O           1      38.169 -10.405   6.110  0.00  0.00    -0.394 OA
HETATM   32  C           1      38.523  -9.632   4.983  0.00  0.00     0.201 C 
ENDBRANCH  30  31
ENDBRANCH  29  30
ENDBRANCH   8  29
BRANCH   2  33
HETATM   33  O           1      41.926  -8.691   6.477  0.00  0.00    -0.349 OA
BRANCH  33  34
HETATM   34  C           1      41.647  -7.659   7.386  0.00  0.00     0.171 C 
HETATM   35  C           1      40.201  -7.805   7.854  0.00  0.00     0.034 C 
ENDBRANCH  33  34
ENDBRANCH   2  33
TORSDOF 7
ENDMDL
MODEL 4
REMARK VINA RESULT:      -8.0      3.755      6.708
REMARK  7 active torsions:
REMARK  status: ('A' for Active; 'I' for Inactive)
REMARK    1  A    between atoms: C_6  and  O_7 
REMARK    2  A    between atoms: O_7  and  C_8 
REMARK    3  A    between atoms: C_11  and  C_12 
REMARK       I    between atoms: C_12  and  N_13 
REMARK    4  A    between atoms: N_13  and  C_14 
REMARK    5  A    between atoms: N_22  and  C_23 
REMARK    6  A    between atoms: C_23  and  C_24 
REMARK    7  A    between atoms: C_24  and  O_25 
ROOT
HETATM    1  C           1      40.967 -10.473  -1.881  0.00  0.00     0.113 A 
HETATM    2  C           1      41.053  -9.475  -2.793  0.00  0.00     0.102 A 
HETATM    3  C           1      41.274 -10.232  -0.589  0.00  0.00     0.002 A 
HETATM    4  C           1      41.144 -11.331   0.437  0.00  0.00     0.138 C 
HETATM    5  C           1      41.168 -12.705  -0.247  0.00  0.00     0.161 C 
HETATM    6  C           1      40.076 -12.616  -1.334  0.00  0.00     0.155 C 
HETATM    7  C           1      39.956 -13.966  -2.061  0.00  0.00     0.072 C 
HETATM    8  N           1      38.781 -12.169  -0.773  0.00  0.00    -0.323 N 
HETATM    9  C           1      38.691 -11.594   0.488  0.00  0.00     0.172 C 
HETATM   10  S           1      37.333 -11.283   1.235  0.00  0.00    -0.041 SA
HETATM   11  N           1      39.849 -11.160   1.084  0.00  0.00    -0.357 N 
HETATM   12  O           1      40.523 -11.701  -2.306  0.00  0.00    -0.316 OA
HETATM   13  C           1      41.683  -9.015  -0.198  0.00  0.00     0.012 A 
HETATM   14  C           1      41.786  -8.026  -1.092  0.00  0.00     0.003 A 
HETATM   15  C           1      41.468  -8.263  -2.373  0.00  0.00     0.040 A 
HETATM   16  H           1      39.797 -10.648   1.965  0.00  0.00     0.162 HD
ENDROOT
BRANCH   5  17
HETATM   17  C           1      41.070 -13.859   0.759  0.00  0.00     0.233 C 
HETATM   18  N           1      42.277 -14.315   1.204  0.00  0.00    -0.326 N 
HETATM   19  H           1      43.094 -13.828   0.868  0.00  0.00     0.169 HD
HETATM   20  O           1      40.007 -14.280   1.142  0.00  0.00    -0.273 OA
BRANCH  18  21
HETATM   21  C           1      42.650 -15.306   2.042  0.00  0.00     0.040 A 
HETATM   22  C           1      42.929 -14.952   3.315  0.00  0.00    -0.035 A 
HETATM   23  C           1      42.819 -13.515   3.786  0.00  0.00     0.050 C 
HETATM   24  C           1      43.309 -15.895   4.197  0.00  0.00     0.015 A 
HETATM   25  C           1      43.429 -17.188   3.859  0.00  0.00    -0.061 A 
HETATM   26  C           1      43.858 -18.214   4.881  0.00  0.00     0.048 C 
HETATM   27  C           1      43.151 -17.530   2.591  0.00  0.00     0.009 A 
HETATM   28  C           1      42.771 -16.602   1.701  0.00  0.00     0.030 A 
ENDBRANCH  18  21
ENDBRANCH   5  17
BRANCH   8  29
HETATM   29  C           1      37.631 -12.208  -1.686  0.00  0.00     0.154 C 
BRANCH  29  30
HETATM   30  C           1      37.569 -10.999  -2.625  0.00  0.00     0.187 C 
BRANCH  30  31
HETATM   31  O           1      36.795  -9.994  -2.015  0.00  0.00    -0.394 OA
HETATM   32  C           1      37.544  -8.825  -1.757  0.00  0.00     0.201 C 
ENDBRANCH  30  31
ENDBRANCH  29  30
ENDBRANCH   8  29
BRANCH   2  33
HETATM   33  O           1      40.706  -9.770  -4.092  0.00  0.00    -0.349 OA
BRANCH  33  34
HETATM   34  C           1      40.420  -8.726  -4.985  0.00  0.00     0.171 C 
HETATM   35  C           1      38.917  -8.718  -5.254  0.00  0.00     0.034 C 
ENDBRANCH  33  34
ENDBRANCH   2  33
TORSDOF 7
ENDMDL
MODEL 5
REMARK VINA RESULT:      -7.8      2.293      3.865
REMARK  7 active torsions:
REMARK  status: ('A' for Active; 'I' for Inactive)
REMARK    1  A    between atoms: C_6  and  O_7 
REMARK    2  A    between atoms: O_7  and  C_8 
REMARK    3  A    between atoms: C_11  and  C_12 
REMARK       I    between atoms: C_12  and  N_13 
REMARK    4  A    between atoms: N_13  and  C_14 
REMARK    5  A    between atoms: N_22  and  C_23 
REMARK    6  A    between atoms: C_23  and  C_24 
REMARK    7  A    between atoms: C_24  and  O_25 
ROOT
HETATM    1  C           1      40.976 -10.669   5.669  0.00  0.00     0.113 A 
HETATM    2  C           1      40.290  -9.704   6.327  0.00  0.00     0.102 A 
HETATM    3  C           1      41.565 -10.387   4.487  0.00  0.00     0.002 A 
HETATM    4  C           1      42.361 -11.448   3.768  0.00  0.00     0.138 C 
HETATM    5  C           1      41.950 -12.845   4.253  0.00  0.00     0.161 C 
HETATM    6  C           1      42.084 -12.777   5.790  0.00  0.00     0.155 C 
HETATM    7  C           1      41.754 -14.149   6.401  0.00  0.00     0.072 C 
HETATM    8  N           1      43.420 -12.290   6.202  0.00  0.00    -0.323 N 
HETATM    9  C           1      44.280 -11.671   5.305  0.00  0.00     0.172 C 
HETATM   10  S           1      45.788 -11.313   5.613  0.00  0.00    -0.041 SA
HETATM   11  N           1      43.763 -11.234   4.110  0.00  0.00    -0.357 N 
HETATM   12  O           1      41.085 -11.903   6.260  0.00  0.00    -0.316 OA
HETATM   13  C           1      41.462  -9.165   3.945  0.00  0.00     0.012 A 
HETATM   14  C           1      40.773  -8.209   4.579  0.00  0.00     0.003 A 
HETATM   15  C           1      40.200  -8.485   5.759  0.00  0.00     0.040 A 
HETATM   16  H           1      44.352 -10.692   3.478  0.00  0.00     0.162 HD
ENDROOT
BRANCH   5  17
HETATM   17  C           1      42.713 -13.962   3.528  0.00  0.00     0.233 C 
HETATM   18  N           1      42.341 -15.222   3.899  0.00  0.00    -0.326 N 
HETATM   19  H           1      41.588 -15.292   4.566  0.00  0.00     0.169 HD
HETATM   20  O           1      43.532 -13.723   2.676  0.00  0.00    -0.273 OA
BRANCH  18  21
HETATM   21  C           1      42.759 -16.459   3.553  0.00  0.00     0.040 A 
HETATM   22  C           1      42.130 -17.042   2.510  0.00  0.00    -0.035 A 
HETATM   23  C           1      41.017 -16.342   1.756  0.00  0.00     0.050 C 
HETATM   24  C           1      42.499 -18.276   2.119  0.00  0.00     0.015 A 
HETATM   25  C           1      43.476 -18.962   2.733  0.00  0.00    -0.061 A 
HETATM   26  C           1      43.860 -20.344   2.262  0.00  0.00     0.048 C 
HETATM   27  C           1      44.094 -18.374   3.770  0.00  0.00     0.009 A 
HETATM   28  C           1      43.738 -17.144   4.170  0.00  0.00     0.030 A 
ENDBRANCH  18  21
ENDBRANCH   5  17
BRANCH   8  29
HETATM   29  C           1      43.713 -12.342   7.640  0.00  0.00     0.154 C 
BRANCH  29  30
HETATM   30  C           1      43.615 -10.974   8.323  0.00  0.00     0.187 C 
BRANCH  30  31
HETATM   31  O           1      44.420 -10.988   9.477  0.00  0.00    -0.394 OA
HETATM   32  C           1      45.389  -9.962   9.465  0.00  0.00     0.201 C 
ENDBRANCH  30  31
ENDBRANCH  29  30
ENDBRANCH   8  29
BRANCH   2  33
HETATM   33  O           1      39.729 -10.038   7.540  0.00  0.00    -0.349 OA
BRANCH  33  34
HETATM   34  C           1      39.943  -9.210   8.652  0.00  0.00     0.171 C 
HETATM   35  C           1      39.159  -9.776   9.834  0.00  0.00     0.034 C 
ENDBRANCH  33  34
ENDBRANCH   2  33
TORSDOF 7
ENDMDL
MODEL 6
REMARK VINA RESULT:      -7.6      2.643      6.372
REMARK  7 active torsions:
REMARK  status: ('A' for Active; 'I' for Inactive)
REMARK    1  A    between atoms: C_6  and  O_7 
REMARK    2  A    between atoms: O_7  and  C_8 
REMARK    3  A    between atoms: C_11  and  C_12 
REMARK       I    between atoms: C_12  and  N_13 
REMARK    4  A    between atoms: N_13  and  C_14 
REMARK    5  A    between atoms: N_22  and  C_23 
REMARK    6  A    between atoms: C_23  and  C_24 
REMARK    7  A    between atoms: C_24  and  O_25 
ROOT
HETATM    1  C           1      42.207 -14.259   5.486  0.00  0.00     0.113 A 
HETATM    2  C           1      42.669 -15.175   6.371  0.00  0.00     0.102 A 
HETATM    3  C           1      40.881 -14.143   5.267  0.00  0.00     0.002 A 
HETATM    4  C           1      40.361 -13.100   4.310  0.00  0.00     0.138 C 
HETATM    5  C           1      41.469 -12.664   3.342  0.00  0.00     0.161 C 
HETATM    6  C           1      42.647 -12.264   4.255  0.00  0.00     0.155 C 
HETATM    7  C           1      43.815 -11.746   3.399  0.00  0.00     0.072 C 
HETATM    8  N           1      42.233 -11.285   5.285  0.00  0.00    -0.323 N 
HETATM    9  C           1      40.895 -11.046   5.570  0.00  0.00     0.172 C 
HETATM   10  S           1      40.373  -9.879   6.499  0.00  0.00    -0.041 SA
HETATM   11  N           1      39.966 -11.946   5.110  0.00  0.00    -0.357 N 
HETATM   12  O           1      43.120 -13.440   4.869  0.00  0.00    -0.316 OA
HETATM   13  C           1      40.010 -14.942   5.903  0.00  0.00     0.012 A 
HETATM   14  C           1      40.455 -15.860   6.768  0.00  0.00     0.003 A 
HETATM   15  C           1      41.772 -15.965   6.995  0.00  0.00     0.040 A 
HETATM   16  H           1      38.990 -11.844   5.388  0.00  0.00     0.162 HD
ENDROOT
BRANCH   5  17
HETATM   17  C           1      40.979 -11.623   2.326  0.00  0.00     0.233 C 
HETATM   18  N           1      41.402 -11.849   1.048  0.00  0.00    -0.326 N 
HETATM   19  H           1      41.946 -12.685   0.895  0.00  0.00     0.169 HD
HETATM   20  O           1      40.249 -10.718   2.644  0.00  0.00    -0.273 OA
BRANCH  18  21
HETATM   21  C           1      41.243 -11.189  -0.119  0.00  0.00     0.040 A 
HETATM   22  C           1      40.641 -11.866  -1.121  0.00  0.00    -0.035 A 
HETATM   23  C           1      40.157 -13.291  -0.944  0.00  0.00     0.050 C 
HETATM   24  C           1      40.455 -11.263  -2.310  0.00  0.00     0.015 A 
HETATM   25  C           1      40.854 -10.003  -2.547  0.00  0.00    -0.061 A 
HETATM   26  C           1      40.625  -9.364  -3.896  0.00  0.00     0.048 C 
HETATM   27  C           1      41.453  -9.340  -1.545  0.00  0.00     0.009 A 
HETATM   28  C           1      41.643  -9.927  -0.354  0.00  0.00     0.030 A 
ENDBRANCH  18  21
ENDBRANCH   5  17
BRANCH   8  29
HETATM   29  C           1      43.309 -10.711   6.104  0.00  0.00     0.154 C 
BRANCH  29  30
HETATM   30  C           1      43.524 -11.460   7.423  0.00  0.00     0.187 C 
BRANCH  30  31
HETATM   31  O           1      44.819 -12.011   7.422  0.00  0.00    -0.394 OA
HETATM   32  C           1      45.705 -11.293   6.590  0.00  0.00     0.201 C 
ENDBRANCH  30  31
ENDBRANCH  29  30
ENDBRANCH   8  29
BRANCH   2  33
HETATM   33  O           1      44.029 -15.234   6.574  0.00  0.00    -0.349 OA
BRANCH  33  34
HETATM   34  C           1      44.675 -16.480   6.572  0.00  0.00     0.171 C 
HETATM   35  C           1      44.490 -17.118   5.197  0.00  0.00     0.034 C 
ENDBRANCH  33  34
ENDBRANCH   2  33
TORSDOF 7
ENDMDL
MODEL 7
REMARK VINA RESULT:      -7.5      5.493      8.462
REMARK  7 active torsions:
REMARK  status: ('A' for Active; 'I' for Inactive)
REMARK    1  A    between atoms: C_6  and  O_7 
REMARK    2  A    between atoms: O_7  and  C_8 
REMARK    3  A    between atoms: C_11  and  C_12 
REMARK       I    between atoms: C_12  and  N_13 
REMARK    4  A    between atoms: N_13  and  C_14 
REMARK    5  A    between atoms: N_22  and  C_23 
REMARK    6  A    between atoms: C_23  and  C_24 
REMARK    7  A    between atoms: C_24  and  O_25 
ROOT
HETATM    1  C           1      42.426  -7.280  12.886  0.00  0.00     0.113 A 
HETATM    2  C           1      42.154  -6.326  13.809  0.00  0.00     0.102 A 
HETATM    3  C           1      42.315  -8.584  13.214  0.00  0.00     0.002 A 
HETATM    4  C           1      42.583  -9.649  12.179  0.00  0.00     0.138 C 
HETATM    5  C           1      43.440  -9.082  11.039  0.00  0.00     0.161 C 
HETATM    6  C           1      42.684  -7.818  10.577  0.00  0.00     0.155 C 
HETATM    7  C           1      43.417  -7.182   9.384  0.00  0.00     0.072 C 
HETATM    8  N           1      41.266  -8.109  10.269  0.00  0.00    -0.323 N 
HETATM    9  C           1      40.658  -9.290  10.676  0.00  0.00     0.172 C 
HETATM   10  S           1      39.223  -9.763  10.214  0.00  0.00    -0.041 SA
HETATM   11  N           1      41.290 -10.046  11.633  0.00  0.00    -0.357 N 
HETATM   12  O           1      42.768  -6.875  11.620  0.00  0.00    -0.316 OA
HETATM   13  C           1      41.957  -8.950  14.454  0.00  0.00     0.012 A 
HETATM   14  C           1      41.700  -8.017  15.378  0.00  0.00     0.003 A 
HETATM   15  C           1      41.796  -6.722  15.047  0.00  0.00     0.040 A 
HETATM   16  H           1      40.818 -10.865  12.017  0.00  0.00     0.162 HD
ENDROOT
BRANCH   5  17
HETATM   17  C           1      43.765 -10.138   9.974  0.00  0.00     0.233 C 
HETATM   18  N           1      43.676  -9.681   8.691  0.00  0.00    -0.326 N 
HETATM   19  H           1      43.455  -8.703   8.575  0.00  0.00     0.169 HD
HETATM   20  O           1      44.109 -11.255  10.270  0.00  0.00    -0.273 OA
BRANCH  18  21
HETATM   21  C           1      43.839 -10.257   7.480  0.00  0.00     0.040 A 
HETATM   22  C           1      42.768 -10.253   6.658  0.00  0.00    -0.035 A 
HETATM   23  C           1      41.450  -9.623   7.065  0.00  0.00     0.050 C 
HETATM   24  C           1      42.866 -10.814   5.438  0.00  0.00     0.015 A 
HETATM   25  C           1      43.998 -11.390   5.002  0.00  0.00    -0.061 A 
HETATM   26  C           1      44.066 -12.008   3.626  0.00  0.00     0.048 C 
HETATM   27  C           1      45.056 -11.390   5.828  0.00  0.00     0.009 A 
HETATM   28  C           1      44.973 -10.834   7.045  0.00  0.00     0.030 A 
ENDBRANCH  18  21
ENDBRANCH   5  17
BRANCH   8  29
HETATM   29  C           1      40.496  -7.015   9.664  0.00  0.00     0.154 C 
BRANCH  29  30
HETATM   30  C           1      39.854  -6.088  10.701  0.00  0.00     0.187 C 
BRANCH  30  31
HETATM   31  O           1      38.480  -6.381  10.778  0.00  0.00    -0.394 OA
HETATM   32  C           1      38.067  -6.667  12.098  0.00  0.00     0.201 C 
ENDBRANCH  30  31
ENDBRANCH  29  30
ENDBRANCH   8  29
BRANCH   2  33
HETATM   33  O           1      42.259  -5.011  13.415  0.00  0.00    -0.349 OA
BRANCH  33  34
HETATM   34  C           1      41.606  -4.013  14.154  0.00  0.00     0.171 C 
HETATM   35  C           1      40.262  -3.722  13.491  0.00  0.00     0.034 C 
ENDBRANCH  33  34
ENDBRANCH   2  33
TORSDOF 7
ENDMDL
MODEL 8
REMARK VINA RESULT:      -7.5      3.039      6.988
REMARK  7 active torsions:
REMARK  status: ('A' for Active; 'I' for Inactive)
REMARK    1  A    between atoms: C_6  and  O_7 
REMARK    2  A    between atoms: O_7  and  C_8 
REMARK    3  A    between atoms: C_11  and  C_12 
REMARK       I    between atoms: C_12  and  N_13 
REMARK    4  A    between atoms: N_13  and  C_14 
REMARK    5  A    between atoms: N_22  and  C_23 
REMARK    6  A    between atoms: C_23  and  C_24 
REMARK    7  A    between atoms: C_24  and  O_25 
ROOT
HETATM    1  C           1      41.696 -14.765   4.561  0.00  0.00     0.113 A 
HETATM    2  C           1      42.449 -15.789   5.027  0.00  0.00     0.102 A 
HETATM    3  C           1      40.589 -14.384   5.232  0.00  0.00     0.002 A 
HETATM    4  C           1      39.767 -13.219   4.737  0.00  0.00     0.138 C 
HETATM    5  C           1      40.041 -12.968   3.248  0.00  0.00     0.161 C 
HETATM    6  C           1      41.577 -12.844   3.151  0.00  0.00     0.155 C 
HETATM    7  C           1      41.983 -12.528   1.702  0.00  0.00     0.072 C 
HETATM    8  N           1      42.107 -11.847   4.109  0.00  0.00    -0.323 N 
HETATM    9  C           1      41.339 -11.364   5.160  0.00  0.00     0.172 C 
HETATM   10  S           1      41.756 -10.158   6.092  0.00  0.00    -0.041 SA
HETATM   11  N           1      40.193 -12.045   5.490  0.00  0.00    -0.357 N 
HETATM   12  O           1      42.118 -14.114   3.428  0.00  0.00    -0.316 OA
HETATM   13  C           1      40.213 -15.023   6.350  0.00  0.00     0.012 A 
HETATM   14  C           1      40.941 -16.046   6.811  0.00  0.00     0.003 A 
HETATM   15  C           1      42.048 -16.415   6.151  0.00  0.00     0.040 A 
HETATM   16  H           1      39.666 -11.767   6.317  0.00  0.00     0.162 HD
ENDROOT
BRANCH   5  17
HETATM   17  C           1      39.204 -11.810   2.688  0.00  0.00     0.233 C 
HETATM   18  N           1      38.526 -12.114   1.544  0.00  0.00    -0.326 N 
HETATM   19  H           1      38.605 -13.063   1.212  0.00  0.00     0.169 HD
HETATM   20  O           1      39.132 -10.747   3.252  0.00  0.00    -0.273 OA
BRANCH  18  21
HETATM   21  C           1      37.722 -11.410   0.719  0.00  0.00     0.040 A 
HETATM   22  C           1      37.943 -11.546  -0.606  0.00  0.00    -0.035 A 
HETATM   23  C           1      39.032 -12.452  -1.145  0.00  0.00     0.050 C 
HETATM   24  C           1      37.175 -10.868  -1.480  0.00  0.00     0.015 A 
HETATM   25  C           1      36.190 -10.047  -1.083  0.00  0.00    -0.061 A 
HETATM   26  C           1      35.351  -9.305  -2.096  0.00  0.00     0.048 C 
HETATM   27  C           1      35.979  -9.917   0.236  0.00  0.00     0.009 A 
HETATM   28  C           1      36.735 -10.588   1.118  0.00  0.00     0.030 A 
ENDBRANCH  18  21
ENDBRANCH   5  17
BRANCH   8  29
HETATM   29  C           1      43.536 -11.529   3.989  0.00  0.00     0.154 C 
BRANCH  29  30
HETATM   30  C           1      44.366 -12.046   5.168  0.00  0.00     0.187 C 
BRANCH  30  31
HETATM   31  O           1      45.404 -11.130   5.423  0.00  0.00    -0.394 OA
HETATM   32  C           1      45.777 -11.109   6.784  0.00  0.00     0.201 C 
ENDBRANCH  30  31
ENDBRANCH  29  30
ENDBRANCH   8  29
BRANCH   2  33
HETATM   33  O           1      43.581 -16.121   4.315  0.00  0.00    -0.349 OA
BRANCH  33  34
HETATM   34  C           1      43.700 -17.407   3.766  0.00  0.00     0.171 C 
HETATM   35  C           1      43.142 -17.380   2.345  0.00  0.00     0.034 C 
ENDBRANCH  33  34
ENDBRANCH   2  33
TORSDOF 7
ENDMDL
MODEL 9
REMARK VINA RESULT:      -7.2      5.378     10.495
REMARK  7 active torsions:
REMARK  status: ('A' for Active; 'I' for Inactive)
REMARK    1  A    between atoms: C_6  and  O_7 
REMARK    2  A    between atoms: O_7  and  C_8 
REMARK    3  A    between atoms: C_11  and  C_12 
REMARK       I    between atoms: C_12  and  N_13 
REMARK    4  A    between atoms: N_13  and  C_14 
REMARK    5  A    between atoms: N_22  and  C_23 
REMARK    6  A    between atoms: C_23  and  C_24 
REMARK    7  A    between atoms: C_24  and  O_25 
ROOT
HETATM    1  C           1      43.949  -9.993   8.741  0.00  0.00     0.113 A 
HETATM    2  C           1      44.594 -10.993   8.094  0.00  0.00     0.102 A 
HETATM    3  C           1      44.555  -8.798   8.904  0.00  0.00     0.002 A 
HETATM    4  C           1      43.826  -7.670   9.592  0.00  0.00     0.138 C 
HETATM    5  C           1      42.685  -8.220  10.457  0.00  0.00     0.161 C 
HETATM    6  C           1      41.867  -9.113   9.499  0.00  0.00     0.155 C 
HETATM    7  C           1      40.645  -9.684  10.237  0.00  0.00     0.072 C 
HETATM    8  N           1      41.485  -8.386   8.267  0.00  0.00    -0.323 N 
HETATM    9  C           1      42.085  -7.185   7.912  0.00  0.00     0.172 C 
HETATM   10  S           1      41.592  -6.253   6.734  0.00  0.00    -0.041 SA
HETATM   11  N           1      43.251  -6.833   8.545  0.00  0.00    -0.357 N 
HETATM   12  O           1      42.668 -10.224   9.175  0.00  0.00    -0.316 OA
HETATM   13  C           1      45.800  -8.593   8.448  0.00  0.00     0.012 A 
HETATM   14  C           1      46.451  -9.578   7.821  0.00  0.00     0.003 A 
HETATM   15  C           1      45.845 -10.761   7.647  0.00  0.00     0.040 A 
HETATM   16  H           1      43.760  -6.006   8.234  0.00  0.00     0.162 HD
ENDROOT
BRANCH   5  17
HETATM   17  C           1      41.931  -7.111  11.203  0.00  0.00     0.233 C 
HETATM   18  N           1      41.491  -7.473  12.443  0.00  0.00    -0.326 N 
HETATM   19  H           1      41.738  -8.399  12.757  0.00  0.00     0.169 HD
HETATM   20  O           1      41.792  -6.010  10.733  0.00  0.00    -0.273 OA
BRANCH  18  21
HETATM   21  C           1      40.777  -6.844  13.402  0.00  0.00     0.040 A 
HETATM   22  C           1      41.413  -6.597  14.568  0.00  0.00    -0.035 A 
HETATM   23  C           1      42.859  -6.995  14.788  0.00  0.00     0.050 C 
HETATM   24  C           1      40.755  -5.975  15.563  0.00  0.00     0.015 A 
HETATM   25  C           1      39.475  -5.589  15.446  0.00  0.00    -0.061 A 
HETATM   26  C           1      38.773  -4.892  16.588  0.00  0.00     0.048 C 
HETATM   27  C           1      38.851  -5.840  14.284  0.00  0.00     0.009 A 
HETATM   28  C           1      39.494  -6.459  13.283  0.00  0.00     0.030 A 
ENDBRANCH  18  21
ENDBRANCH   5  17
BRANCH   8  29
HETATM   29  C           1      40.566  -9.086   7.361  0.00  0.00     0.154 C 
BRANCH  29  30
HETATM   30  C           1      41.288  -9.854   6.249  0.00  0.00     0.187 C 
BRANCH  30  31
HETATM   31  O           1      40.937 -11.214   6.340  0.00  0.00    -0.394 OA
HETATM   32  C           1      40.867 -11.834   5.074  0.00  0.00     0.201 C 
ENDBRANCH  30  31
ENDBRANCH  29  30
ENDBRANCH   8  29
BRANCH   2  33
HETATM   33  O           1      43.922 -12.185   7.934  0.00  0.00    -0.349 OA
BRANCH  33  34
HETATM   34  C           1      44.066 -12.905   6.739  0.00  0.00     0.171 C 
HETATM   35  C           1      43.241 -14.186   6.843  0.00  0.00     0.034 C 
ENDBRANCH  33  34
ENDBRANCH   2  33
TORSDOF 7
ENDMDL
MODEL 10
REMARK VINA RESULT:      -7.2     16.958     19.329
REMARK  7 active torsions:
REMARK  status: ('A' for Active; 'I' for Inactive)
REMARK    1  A    between atoms: C_6  and  O_7 
REMARK    2  A    between atoms: O_7  and  C_8 
REMARK    3  A    between atoms: C_11  and  C_12 
REMARK       I    between atoms: C_12  and  N_13 
REMARK    4  A    between atoms: N_13  and  C_14 
REMARK    5  A    between atoms: N_22  and  C_23 
REMARK    6  A    between atoms: C_23  and  C_24 
REMARK    7  A    between atoms: C_24  and  O_25 
ROOT
HETATM    1  C           1      45.353 -30.054  -2.471  0.00  0.00     0.113 A 
HETATM    2  C           1      44.918 -30.060  -3.753  0.00  0.00     0.102 A 
HETATM    3  C           1      45.626 -28.883  -1.858  0.00  0.00     0.002 A 
HETATM    4  C           1      46.076 -28.871  -0.418  0.00  0.00     0.138 C 
HETATM    5  C           1      46.646 -30.240  -0.025  0.00  0.00     0.161 C 
HETATM    6  C           1      45.542 -31.246  -0.414  0.00  0.00     0.155 C 
HETATM    7  C           1      45.969 -32.668  -0.011  0.00  0.00     0.072 C 
HETATM    8  N           1      44.232 -30.873   0.167  0.00  0.00    -0.323 N 
HETATM    9  C           1      44.002 -29.609   0.695  0.00  0.00     0.172 C 
HETATM   10  S           1      42.711 -29.203   1.512  0.00  0.00    -0.041 SA
HETATM   11  N           1      44.894 -28.610   0.396  0.00  0.00    -0.357 N 
HETATM   12  O           1      45.461 -31.258  -1.819  0.00  0.00    -0.316 OA
HETATM   13  C           1      45.489 -27.720  -2.512  0.00  0.00     0.012 A 
HETATM   14  C           1      45.074 -27.715  -3.784  0.00  0.00     0.003 A 
HETATM   15  C           1      44.790 -28.877  -4.388  0.00  0.00     0.040 A 
HETATM   16  H           1      44.695 -27.655   0.692  0.00  0.00     0.162 HD
ENDROOT
BRANCH   5  17
HETATM   17  C           1      47.147 -30.269   1.426  0.00  0.00     0.233 C 
HETATM   18  N           1      48.479 -30.539   1.550  0.00  0.00    -0.326 N 
HETATM   19  H           1      48.999 -30.646   0.692  0.00  0.00     0.169 HD
HETATM   20  O           1      46.418 -30.026   2.355  0.00  0.00    -0.273 OA
BRANCH  18  21
HETATM   21  C           1      49.307 -30.689   2.606  0.00  0.00     0.040 A 
HETATM   22  C           1      49.867 -31.907   2.769  0.00  0.00    -0.035 A 
HETATM   23  C           1      49.590 -33.048   1.811  0.00  0.00     0.050 C 
HETATM   24  C           1      50.700 -32.120   3.805  0.00  0.00     0.015 A 
HETATM   25  C           1      50.997 -31.162   4.697  0.00  0.00    -0.061 A 
HETATM   26  C           1      51.938 -31.443   5.844  0.00  0.00     0.048 C 
HETATM   27  C           1      50.434 -29.955   4.526  0.00  0.00     0.009 A 
HETATM   28  C           1      49.603 -29.727   3.499  0.00  0.00     0.030 A 
ENDBRANCH  18  21
ENDBRANCH   5  17
BRANCH   8  29
HETATM   29  C           1      43.147 -31.847  -0.002  0.00  0.00     0.154 C 
BRANCH  29  30
HETATM   30  C           1      42.751 -32.537   1.307  0.00  0.00     0.187 C 
BRANCH  30  31
HETATM   31  O           1      41.385 -32.870   1.245  0.00  0.00    -0.394 OA
HETATM   32  C           1      40.638 -32.259   2.276  0.00  0.00     0.201 C 
ENDBRANCH  30  31
ENDBRANCH  29  30
ENDBRANCH   8  29
BRANCH   2  33
HETATM   33  O           1      44.632 -31.281  -4.322  0.00  0.00    -0.349 OA
BRANCH  33  34
HETATM   34  C           1      44.976 -31.517  -5.662  0.00  0.00     0.171 C 
HETATM   35  C           1      46.440 -31.948  -5.716  0.00  0.00     0.034 C 
ENDBRANCH  33  34
ENDBRANCH   2  33
TORSDOF 7
ENDMDL
