MODEL 1
REMARK VINA RESULT:      -7.9      0.000      0.000
REMARK  9 active torsions:
REMARK  status: ('A' for Active; 'I' for Inactive)
REMARK    1  A    between atoms: C_2  and  C_3 
REMARK    2  A    between atoms: C_3  and  O_4 
REMARK    3  A    between atoms: C_3  and  C_5 
REMARK    4  A    between atoms: C_5  and  N_6 
REMARK    5  A    between atoms: N_6  and  C_8 
REMARK    6  A    between atoms: N_6  and  C_21 
REMARK    7  A    between atoms: C_8  and  C_9 
REMARK    8  A    between atoms: C_10  and  C_11 
REMARK    9  A    between atoms: C_21  and  C_22 
ROOT
HETATM    1  N   UNL     1      42.994 -15.825   4.954  1.00  0.00    -0.061 N 
HETATM    2  H   UNL     1      43.002 -15.719   3.936  1.00  0.00     0.280 HD
ENDROOT
BRANCH   1   3
HETATM    3  C   UNL     1      41.626 -16.400   5.295  1.00  0.00     0.267 C 
BRANCH   3   4
HETATM    4  C   UNL     1      40.527 -16.137   4.239  1.00  0.00     0.143 C 
BRANCH   4   5
HETATM    5  C   UNL     1      40.972 -16.255   2.778  1.00  0.00     0.029 C 
HETATM    6  C   UNL     1      39.960 -15.704   1.787  1.00  0.00     0.007 C 
ENDBRANCH   4   5
BRANCH   4   7
HETATM    7  O   UNL     1      39.975 -14.837   4.445  1.00  0.00    -0.394 OA
HETATM    8  H   UNL     1      39.553 -14.551   3.610  1.00  0.00     0.210 HD
ENDBRANCH   4   7
ENDBRANCH   3   4
ENDBRANCH   1   3
BRANCH   1   9
HETATM    9  C   UNL     1      43.298 -14.434   5.480  1.00  0.00     0.277 C 
BRANCH   9  10
HETATM   10  C   UNL     1      43.269 -13.266   4.558  1.00  0.00     0.016 A 
HETATM   11  C   UNL     1      43.722 -11.941   4.885  1.00  0.00     0.096 A 
HETATM   12  N   UNL     1      43.509 -11.096   3.869  1.00  0.00    -0.174 NA
HETATM   13  N   UNL     1      43.024 -11.851   2.884  1.00  0.00    -0.288 N 
HETATM   14  H   UNL     1      42.831 -11.407   1.990  1.00  0.00     0.188 HD
HETATM   15  C   UNL     1      42.835 -13.153   3.250  1.00  0.00     0.120 A 
BRANCH  11  16
HETATM   16  C   UNL     1      44.310 -11.457   6.134  1.00  0.00    -0.005 A 
HETATM   17  C   UNL     1      45.692 -11.262   6.256  1.00  0.00     0.014 A 
HETATM   18  C   UNL     1      46.235 -10.809   7.462  1.00  0.00     0.001 A 
HETATM   19  C   UNL     1      45.402 -10.534   8.545  1.00  0.00     0.000 A 
HETATM   20  C   UNL     1      44.025 -10.703   8.425  1.00  0.00     0.001 A 
HETATM   21  C   UNL     1      43.479 -11.160   7.224  1.00  0.00     0.014 A 
ENDBRANCH  11  16
ENDBRANCH   9  10
ENDBRANCH   1   9
BRANCH   1  22
HETATM   22  C   UNL     1      44.130 -16.781   5.256  1.00  0.00     0.273 C 
BRANCH  22  23
HETATM   23  C   UNL     1      44.008 -18.090   4.519  1.00  0.00    -0.033 A 
HETATM   24  C   UNL     1      43.834 -18.115   3.126  1.00  0.00     0.009 A 
HETATM   25  C   UNL     1      43.683 -19.330   2.455  1.00  0.00     0.001 A 
HETATM   26  C   UNL     1      43.711 -20.528   3.165  1.00  0.00     0.000 A 
HETATM   27  C   UNL     1      43.896 -20.517   4.545  1.00  0.00     0.001 A 
HETATM   28  C   UNL     1      44.045 -19.305   5.221  1.00  0.00     0.009 A 
ENDBRANCH  22  23
ENDBRANCH   1  22
TORSDOF 9
ENDMDL
MODEL 2
REMARK VINA RESULT:      -7.8      2.258      7.009
REMARK  9 active torsions:
REMARK  status: ('A' for Active; 'I' for Inactive)
REMARK    1  A    between atoms: C_2  and  C_3 
REMARK    2  A    between atoms: C_3  and  O_4 
REMARK    3  A    between atoms: C_3  and  C_5 
REMARK    4  A    between atoms: C_5  and  N_6 
REMARK    5  A    between atoms: N_6  and  C_8 
REMARK    6  A    between atoms: N_6  and  C_21 
REMARK    7  A    between atoms: C_8  and  C_9 
REMARK    8  A    between atoms: C_10  and  C_11 
REMARK    9  A    between atoms: C_21  and  C_22 
ROOT
HETATM    1  N   UNL     1      42.903 -14.312   5.829  1.00  0.00    -0.061 N 
HETATM    2  H   UNL     1      43.288 -14.222   4.884  1.00  0.00     0.280 HD
ENDROOT
BRANCH   1   3
HETATM    3  C   UNL     1      43.995 -13.813   6.765  1.00  0.00     0.267 C 
BRANCH   3   4
HETATM    4  C   UNL     1      44.005 -12.285   6.998  1.00  0.00     0.143 C 
BRANCH   4   5
HETATM    5  C   UNL     1      45.254 -11.548   6.506  1.00  0.00     0.029 C 
HETATM    6  C   UNL     1      45.938 -10.721   7.582  1.00  0.00     0.007 C 
ENDBRANCH   4   5
BRANCH   4   7
HETATM    7  O   UNL     1      43.836 -12.018   8.391  1.00  0.00    -0.394 OA
HETATM    8  H   UNL     1      43.318 -12.752   8.779  1.00  0.00     0.210 HD
ENDBRANCH   4   7
ENDBRANCH   3   4
ENDBRANCH   1   3
BRANCH   1   9
HETATM    9  C   UNL     1      42.526 -15.777   5.943  1.00  0.00     0.277 C 
BRANCH   9  10
HETATM   10  C   UNL     1      43.195 -16.789   5.079  1.00  0.00     0.016 A 
HETATM   11  C   UNL     1      42.918 -17.001   3.684  1.00  0.00     0.096 A 
HETATM   12  N   UNL     1      43.636 -18.022   3.201  1.00  0.00    -0.174 NA
HETATM   13  N   UNL     1      44.421 -18.404   4.208  1.00  0.00    -0.288 N 
HETATM   14  H   UNL     1      45.089 -19.150   4.040  1.00  0.00     0.188 HD
HETATM   15  C   UNL     1      44.181 -17.717   5.365  1.00  0.00     0.120 A 
BRANCH  11  16
HETATM   16  C   UNL     1      41.973 -16.293   2.821  1.00  0.00    -0.005 A 
HETATM   17  C   UNL     1      40.615 -16.202   3.154  1.00  0.00     0.014 A 
HETATM   18  C   UNL     1      39.726 -15.530   2.310  1.00  0.00     0.001 A 
HETATM   19  C   UNL     1      40.190 -14.934   1.138  1.00  0.00     0.000 A 
HETATM   20  C   UNL     1      41.541 -15.001   0.809  1.00  0.00     0.001 A 
HETATM   21  C   UNL     1      42.431 -15.676   1.648  1.00  0.00     0.014 A 
ENDBRANCH  11  16
ENDBRANCH   9  10
ENDBRANCH   1   9
BRANCH   1  22
HETATM   22  C   UNL     1      41.670 -13.431   5.833  1.00  0.00     0.273 C 
BRANCH  22  23
HETATM   23  C   UNL     1      41.422 -12.761   4.506  1.00  0.00    -0.033 A 
HETATM   24  C   UNL     1      42.482 -12.511   3.620  1.00  0.00     0.009 A 
HETATM   25  C   UNL     1      42.251 -11.855   2.410  1.00  0.00     0.001 A 
HETATM   26  C   UNL     1      40.962 -11.449   2.070  1.00  0.00     0.000 A 
HETATM   27  C   UNL     1      39.901 -11.702   2.935  1.00  0.00     0.001 A 
HETATM   28  C   UNL     1      40.127 -12.356   4.147  1.00  0.00     0.009 A 
ENDBRANCH  22  23
ENDBRANCH   1  22
TORSDOF 9
ENDMDL
MODEL 3
REMARK VINA RESULT:      -7.8      2.243      6.285
REMARK  9 active torsions:
REMARK  status: ('A' for Active; 'I' for Inactive)
REMARK    1  A    between atoms: C_2  and  C_3 
REMARK    2  A    between atoms: C_3  and  O_4 
REMARK    3  A    between atoms: C_3  and  C_5 
REMARK    4  A    between atoms: C_5  and  N_6 
REMARK    5  A    between atoms: N_6  and  C_8 
REMARK    6  A    between atoms: N_6  and  C_21 
REMARK    7  A    between atoms: C_8  and  C_9 
REMARK    8  A    between atoms: C_10  and  C_11 
REMARK    9  A    between atoms: C_21  and  C_22 
ROOT
HETATM    1  N   UNL     1      41.334 -13.508   5.094  1.00  0.00    -0.061 N 
HETATM    2  H   UNL     1      42.008 -13.875   4.416  1.00  0.00     0.280 HD
ENDROOT
BRANCH   1   3
HETATM    3  C   UNL     1      41.976 -12.255   5.672  1.00  0.00     0.267 C 
BRANCH   3   4
HETATM    4  C   UNL     1      43.513 -12.179   5.517  1.00  0.00     0.143 C 
BRANCH   4   5
HETATM    5  C   UNL     1      44.316 -12.286   6.816  1.00  0.00     0.029 C 
HETATM    6  C   UNL     1      45.320 -11.160   7.007  1.00  0.00     0.007 C 
ENDBRANCH   4   5
BRANCH   4   7
HETATM    7  O   UNL     1      43.862 -10.959   4.863  1.00  0.00    -0.394 OA
HETATM    8  H   UNL     1      44.815 -10.796   5.013  1.00  0.00     0.210 HD
ENDBRANCH   4   7
ENDBRANCH   3   4
ENDBRANCH   1   3
BRANCH   1   9
HETATM    9  C   UNL     1      41.102 -14.659   6.055  1.00  0.00     0.277 C 
BRANCH   9  10
HETATM   10  C   UNL     1      42.254 -15.466   6.543  1.00  0.00     0.016 A 
HETATM   11  C   UNL     1      43.176 -16.185   5.705  1.00  0.00     0.096 A 
HETATM   12  N   UNL     1      44.064 -16.865   6.440  1.00  0.00    -0.174 NA
HETATM   13  N   UNL     1      43.796 -16.535   7.703  1.00  0.00    -0.288 N 
HETATM   14  H   UNL     1      44.392 -16.913   8.434  1.00  0.00     0.188 HD
HETATM   15  C   UNL     1      42.706 -15.721   7.825  1.00  0.00     0.120 A 
BRANCH  11  16
HETATM   16  C   UNL     1      43.211 -16.269   4.245  1.00  0.00    -0.005 A 
HETATM   17  C   UNL     1      43.009 -17.489   3.585  1.00  0.00     0.014 A 
HETATM   18  C   UNL     1      43.058 -17.550   2.189  1.00  0.00     0.001 A 
HETATM   19  C   UNL     1      43.293 -16.395   1.446  1.00  0.00     0.000 A 
HETATM   20  C   UNL     1      43.473 -15.175   2.092  1.00  0.00     0.001 A 
HETATM   21  C   UNL     1      43.430 -15.110   3.487  1.00  0.00     0.014 A 
ENDBRANCH  11  16
ENDBRANCH   9  10
ENDBRANCH   1   9
BRANCH   1  22
HETATM   22  C   UNL     1      40.087 -13.215   4.285  1.00  0.00     0.273 C 
BRANCH  22  23
HETATM   23  C   UNL     1      40.124 -13.824   2.907  1.00  0.00    -0.033 A 
HETATM   24  C   UNL     1      40.443 -13.042   1.786  1.00  0.00     0.009 A 
HETATM   25  C   UNL     1      40.438 -13.604   0.508  1.00  0.00     0.001 A 
HETATM   26  C   UNL     1      40.120 -14.949   0.337  1.00  0.00     0.000 A 
HETATM   27  C   UNL     1      39.814 -15.738   1.443  1.00  0.00     0.001 A 
HETATM   28  C   UNL     1      39.816 -15.181   2.723  1.00  0.00     0.009 A 
ENDBRANCH  22  23
ENDBRANCH   1  22
TORSDOF 9
ENDMDL
MODEL 4
REMARK VINA RESULT:      -7.7      2.721      4.127
REMARK  9 active torsions:
REMARK  status: ('A' for Active; 'I' for Inactive)
REMARK    1  A    between atoms: C_2  and  C_3 
REMARK    2  A    between atoms: C_3  and  O_4 
REMARK    3  A    between atoms: C_3  and  C_5 
REMARK    4  A    between atoms: C_5  and  N_6 
REMARK    5  A    between atoms: N_6  and  C_8 
REMARK    6  A    between atoms: N_6  and  C_21 
REMARK    7  A    between atoms: C_8  and  C_9 
REMARK    8  A    between atoms: C_10  and  C_11 
REMARK    9  A    between atoms: C_21  and  C_22 
ROOT
HETATM    1  N   UNL     1      42.262 -15.963   4.332  1.00  0.00    -0.061 N 
HETATM    2  H   UNL     1      42.263 -16.733   5.006  1.00  0.00     0.280 HD
ENDROOT
BRANCH   1   3
HETATM    3  C   UNL     1      42.902 -14.786   5.053  1.00  0.00     0.267 C 
BRANCH   3   4
HETATM    4  C   UNL     1      42.600 -14.708   6.568  1.00  0.00     0.143 C 
BRANCH   4   5
HETATM    5  C   UNL     1      42.471 -16.053   7.288  1.00  0.00     0.029 C 
HETATM    6  C   UNL     1      43.803 -16.740   7.540  1.00  0.00     0.007 C 
ENDBRANCH   4   5
BRANCH   4   7
HETATM    7  O   UNL     1      41.399 -13.963   6.772  1.00  0.00    -0.394 OA
HETATM    8  H   UNL     1      40.951 -13.869   5.908  1.00  0.00     0.210 HD
ENDBRANCH   4   7
ENDBRANCH   3   4
ENDBRANCH   1   3
BRANCH   1   9
HETATM    9  C   UNL     1      40.805 -15.809   3.937  1.00  0.00     0.277 C 
BRANCH   9  10
HETATM   10  C   UNL     1      40.449 -15.315   2.579  1.00  0.00     0.016 A 
HETATM   11  C   UNL     1      40.603 -13.960   2.122  1.00  0.00     0.096 A 
HETATM   12  N   UNL     1      40.137 -13.816   0.876  1.00  0.00    -0.174 NA
HETATM   13  N   UNL     1      39.778 -15.042   0.495  1.00  0.00    -0.288 N 
HETATM   14  H   UNL     1      39.431 -15.168  -0.453  1.00  0.00     0.188 HD
HETATM   15  C   UNL     1      39.918 -15.974   1.484  1.00  0.00     0.120 A 
BRANCH  11  16
HETATM   16  C   UNL     1      41.142 -12.807   2.843  1.00  0.00    -0.005 A 
HETATM   17  C   UNL     1      40.413 -12.190   3.869  1.00  0.00     0.014 A 
HETATM   18  C   UNL     1      40.941 -11.082   4.539  1.00  0.00     0.001 A 
HETATM   19  C   UNL     1      42.202 -10.594   4.199  1.00  0.00     0.000 A 
HETATM   20  C   UNL     1      42.942 -11.215   3.196  1.00  0.00     0.001 A 
HETATM   21  C   UNL     1      42.416 -12.319   2.522  1.00  0.00     0.014 A 
ENDBRANCH  11  16
ENDBRANCH   9  10
ENDBRANCH   1   9
BRANCH   1  22
HETATM   22  C   UNL     1      43.091 -16.466   3.167  1.00  0.00     0.273 C 
BRANCH  22  23
HETATM   23  C   UNL     1      43.334 -17.952   3.216  1.00  0.00    -0.033 A 
HETATM   24  C   UNL     1      43.924 -18.545   4.343  1.00  0.00     0.009 A 
HETATM   25  C   UNL     1      44.182 -19.917   4.367  1.00  0.00     0.001 A 
HETATM   26  C   UNL     1      43.848 -20.709   3.271  1.00  0.00     0.000 A 
HETATM   27  C   UNL     1      43.250 -20.135   2.152  1.00  0.00     0.001 A 
HETATM   28  C   UNL     1      42.992 -18.763   2.122  1.00  0.00     0.009 A 
ENDBRANCH  22  23
ENDBRANCH   1  22
TORSDOF 9
ENDMDL
MODEL 5
REMARK VINA RESULT:      -7.7      2.493      4.638
REMARK  9 active torsions:
REMARK  status: ('A' for Active; 'I' for Inactive)
REMARK    1  A    between atoms: C_2  and  C_3 
REMARK    2  A    between atoms: C_3  and  O_4 
REMARK    3  A    between atoms: C_3  and  C_5 
REMARK    4  A    between atoms: C_5  and  N_6 
REMARK    5  A    between atoms: N_6  and  C_8 
REMARK    6  A    between atoms: N_6  and  C_21 
REMARK    7  A    between atoms: C_8  and  C_9 
REMARK    8  A    between atoms: C_10  and  C_11 
REMARK    9  A    between atoms: C_21  and  C_22 
ROOT
HETATM    1  N   UNL     1      41.140 -12.467   4.025  1.00  0.00    -0.061 N 
HETATM    2  H   UNL     1      42.103 -12.559   3.691  1.00  0.00     0.280 HD
ENDROOT
BRANCH   1   3
HETATM    3  C   UNL     1      40.509 -11.384   3.161  1.00  0.00     0.267 C 
BRANCH   3   4
HETATM    4  C   UNL     1      41.485 -10.667   2.199  1.00  0.00     0.143 C 
BRANCH   4   5
HETATM    5  C   UNL     1      41.410 -11.103   0.733  1.00  0.00     0.029 C 
HETATM    6  C   UNL     1      40.390 -12.200   0.476  1.00  0.00     0.007 C 
ENDBRANCH   4   5
BRANCH   4   7
HETATM    7  O   UNL     1      42.823 -10.848   2.662  1.00  0.00    -0.394 OA
HETATM    8  H   UNL     1      42.922 -11.780   2.944  1.00  0.00     0.210 HD
ENDBRANCH   4   7
ENDBRANCH   3   4
ENDBRANCH   1   3
BRANCH   1   9
HETATM    9  C   UNL     1      41.281 -12.162   5.504  1.00  0.00     0.277 C 
BRANCH   9  10
HETATM   10  C   UNL     1      42.632 -11.976   6.101  1.00  0.00     0.016 A 
HETATM   11  C   UNL     1      43.512 -13.039   6.507  1.00  0.00     0.096 A 
HETATM   12  N   UNL     1      44.628 -12.553   7.064  1.00  0.00    -0.174 NA
HETATM   13  N   UNL     1      44.529 -11.229   6.946  1.00  0.00    -0.288 N 
HETATM   14  H   UNL     1      45.304 -10.659   7.271  1.00  0.00     0.188 HD
HETATM   15  C   UNL     1      43.342 -10.827   6.400  1.00  0.00     0.120 A 
BRANCH  11  16
HETATM   16  C   UNL     1      43.307 -14.484   6.413  1.00  0.00    -0.005 A 
HETATM   17  C   UNL     1      44.271 -15.317   5.831  1.00  0.00     0.014 A 
HETATM   18  C   UNL     1      44.051 -16.694   5.741  1.00  0.00     0.001 A 
HETATM   19  C   UNL     1      42.875 -17.249   6.244  1.00  0.00     0.000 A 
HETATM   20  C   UNL     1      41.920 -16.431   6.844  1.00  0.00     0.001 A 
HETATM   21  C   UNL     1      42.135 -15.054   6.932  1.00  0.00     0.014 A 
ENDBRANCH  11  16
ENDBRANCH   9  10
ENDBRANCH   1   9
BRANCH   1  22
HETATM   22  C   UNL     1      40.520 -13.833   3.808  1.00  0.00     0.273 C 
BRANCH  22  23
HETATM   23  C   UNL     1      41.471 -14.817   3.175  1.00  0.00    -0.033 A 
HETATM   24  C   UNL     1      42.651 -14.375   2.556  1.00  0.00     0.009 A 
HETATM   25  C   UNL     1      43.509 -15.288   1.939  1.00  0.00     0.001 A 
HETATM   26  C   UNL     1      43.201 -16.646   1.939  1.00  0.00     0.000 A 
HETATM   27  C   UNL     1      42.039 -17.097   2.561  1.00  0.00     0.001 A 
HETATM   28  C   UNL     1      41.177 -16.189   3.178  1.00  0.00     0.009 A 
ENDBRANCH  22  23
ENDBRANCH   1  22
TORSDOF 9
ENDMDL
MODEL 6
REMARK VINA RESULT:      -7.6      2.560      7.069
REMARK  9 active torsions:
REMARK  status: ('A' for Active; 'I' for Inactive)
REMARK    1  A    between atoms: C_2  and  C_3 
REMARK    2  A    between atoms: C_3  and  O_4 
REMARK    3  A    between atoms: C_3  and  C_5 
REMARK    4  A    between atoms: C_5  and  N_6 
REMARK    5  A    between atoms: N_6  and  C_8 
REMARK    6  A    between atoms: N_6  and  C_21 
REMARK    7  A    between atoms: C_8  and  C_9 
REMARK    8  A    between atoms: C_10  and  C_11 
REMARK    9  A    between atoms: C_21  and  C_22 
ROOT
HETATM    1  N   UNL     1      43.158 -13.015   5.940  1.00  0.00    -0.061 N 
HETATM    2  H   UNL     1      43.439 -13.494   5.079  1.00  0.00     0.280 HD
ENDROOT
BRANCH   1   3
HETATM    3  C   UNL     1      44.456 -12.641   6.642  1.00  0.00     0.267 C 
BRANCH   3   4
HETATM    4  C   UNL     1      44.400 -11.329   7.459  1.00  0.00     0.143 C 
BRANCH   4   5
HETATM    5  C   UNL     1      45.728 -10.580   7.601  1.00  0.00     0.029 C 
HETATM    6  C   UNL     1      45.712  -9.509   8.679  1.00  0.00     0.007 C 
ENDBRANCH   4   5
BRANCH   4   7
HETATM    7  O   UNL     1      43.889 -11.606   8.763  1.00  0.00    -0.394 OA
HETATM    8  H   UNL     1      42.951 -11.867   8.671  1.00  0.00     0.210 HD
ENDBRANCH   4   7
ENDBRANCH   3   4
ENDBRANCH   1   3
BRANCH   1   9
HETATM    9  C   UNL     1      42.263 -14.012   6.651  1.00  0.00     0.277 C 
BRANCH   9  10
HETATM   10  C   UNL     1      42.681 -15.435   6.772  1.00  0.00     0.016 A 
HETATM   11  C   UNL     1      42.645 -16.403   5.708  1.00  0.00     0.096 A 
HETATM   12  N   UNL     1      43.024 -17.611   6.143  1.00  0.00    -0.174 NA
HETATM   13  N   UNL     1      43.384 -17.426   7.413  1.00  0.00    -0.288 N 
HETATM   14  H   UNL     1      43.753 -18.221   7.928  1.00  0.00     0.188 HD
HETATM   15  C   UNL     1      43.175 -16.148   7.849  1.00  0.00     0.120 A 
BRANCH  11  16
HETATM   16  C   UNL     1      42.229 -16.220   4.318  1.00  0.00    -0.005 A 
HETATM   17  C   UNL     1      40.873 -16.166   3.968  1.00  0.00     0.014 A 
HETATM   18  C   UNL     1      40.496 -16.001   2.632  1.00  0.00     0.001 A 
HETATM   19  C   UNL     1      41.469 -15.874   1.642  1.00  0.00     0.000 A 
HETATM   20  C   UNL     1      42.819 -15.904   1.983  1.00  0.00     0.001 A 
HETATM   21  C   UNL     1      43.199 -16.073   3.316  1.00  0.00     0.014 A 
ENDBRANCH  11  16
ENDBRANCH   9  10
ENDBRANCH   1   9
BRANCH   1  22
HETATM   22  C   UNL     1      42.367 -11.809   5.474  1.00  0.00     0.273 C 
BRANCH  22  23
HETATM   23  C   UNL     1      41.618 -12.058   4.190  1.00  0.00    -0.033 A 
HETATM   24  C   UNL     1      42.297 -12.109   2.962  1.00  0.00     0.009 A 
HETATM   25  C   UNL     1      41.592 -12.302   1.773  1.00  0.00     0.001 A 
HETATM   26  C   UNL     1      40.207 -12.450   1.797  1.00  0.00     0.000 A 
HETATM   27  C   UNL     1      39.524 -12.414   3.010  1.00  0.00     0.001 A 
HETATM   28  C   UNL     1      40.224 -12.219   4.202  1.00  0.00     0.009 A 
ENDBRANCH  22  23
ENDBRANCH   1  22
TORSDOF 9
ENDMDL
MODEL 7
REMARK VINA RESULT:      -7.6      3.282      4.938
REMARK  9 active torsions:
REMARK  status: ('A' for Active; 'I' for Inactive)
REMARK    1  A    between atoms: C_2  and  C_3 
REMARK    2  A    between atoms: C_3  and  O_4 
REMARK    3  A    between atoms: C_3  and  C_5 
REMARK    4  A    between atoms: C_5  and  N_6 
REMARK    5  A    between atoms: N_6  and  C_8 
REMARK    6  A    between atoms: N_6  and  C_21 
REMARK    7  A    between atoms: C_8  and  C_9 
REMARK    8  A    between atoms: C_10  and  C_11 
REMARK    9  A    between atoms: C_21  and  C_22 
ROOT
HETATM    1  N   UNL     1      39.986 -13.077   2.210  1.00  0.00    -0.061 N 
HETATM    2  H   UNL     1      41.001 -12.959   2.262  1.00  0.00     0.280 HD
ENDROOT
BRANCH   1   3
HETATM    3  C   UNL     1      39.544 -12.288   0.986  1.00  0.00     0.267 C 
BRANCH   3   4
HETATM    4  C   UNL     1      39.336 -13.132  -0.294  1.00  0.00     0.143 C 
BRANCH   4   5
HETATM    5  C   UNL     1      40.384 -12.935  -1.394  1.00  0.00     0.029 C 
HETATM    6  C   UNL     1      40.212 -13.877  -2.574  1.00  0.00     0.007 C 
ENDBRANCH   4   5
BRANCH   4   7
HETATM    7  O   UNL     1      38.045 -12.856  -0.837  1.00  0.00    -0.394 OA
HETATM    8  H   UNL     1      37.376 -13.248  -0.240  1.00  0.00     0.210 HD
ENDBRANCH   4   7
ENDBRANCH   3   4
ENDBRANCH   1   3
BRANCH   1   9
HETATM    9  C   UNL     1      39.479 -12.588   3.554  1.00  0.00     0.277 C 
BRANCH   9  10
HETATM   10  C   UNL     1      40.393 -11.857   4.473  1.00  0.00     0.016 A 
HETATM   11  C   UNL     1      41.337 -12.472   5.367  1.00  0.00     0.096 A 
HETATM   12  N   UNL     1      41.968 -11.553   6.107  1.00  0.00    -0.174 NA
HETATM   13  N   UNL     1      41.527 -10.379   5.656  1.00  0.00    -0.288 N 
HETATM   14  H   UNL     1      41.919  -9.532   6.059  1.00  0.00     0.188 HD
HETATM   15  C   UNL     1      40.563 -10.502   4.695  1.00  0.00     0.120 A 
BRANCH  11  16
HETATM   16  C   UNL     1      41.624 -13.893   5.558  1.00  0.00    -0.005 A 
HETATM   17  C   UNL     1      40.614 -14.794   5.919  1.00  0.00     0.014 A 
HETATM   18  C   UNL     1      40.911 -16.147   6.107  1.00  0.00     0.001 A 
HETATM   19  C   UNL     1      42.212 -16.610   5.922  1.00  0.00     0.000 A 
HETATM   20  C   UNL     1      43.219 -15.726   5.541  1.00  0.00     0.001 A 
HETATM   21  C   UNL     1      42.927 -14.373   5.357  1.00  0.00     0.014 A 
ENDBRANCH  11  16
ENDBRANCH   9  10
ENDBRANCH   1   9
BRANCH   1  22
HETATM   22  C   UNL     1      39.775 -14.571   2.060  1.00  0.00     0.273 C 
BRANCH  22  23
HETATM   23  C   UNL     1      41.065 -15.350   2.067  1.00  0.00    -0.033 A 
HETATM   24  C   UNL     1      42.276 -14.735   1.710  1.00  0.00     0.009 A 
HETATM   25  C   UNL     1      43.461 -15.473   1.682  1.00  0.00     0.001 A 
HETATM   26  C   UNL     1      43.450 -16.825   2.015  1.00  0.00     0.000 A 
HETATM   27  C   UNL     1      42.258 -17.443   2.383  1.00  0.00     0.001 A 
HETATM   28  C   UNL     1      41.070 -16.711   2.411  1.00  0.00     0.009 A 
ENDBRANCH  22  23
ENDBRANCH   1  22
TORSDOF 9
ENDMDL
MODEL 8
REMARK VINA RESULT:      -7.6      1.681      6.700
REMARK  9 active torsions:
REMARK  status: ('A' for Active; 'I' for Inactive)
REMARK    1  A    between atoms: C_2  and  C_3 
REMARK    2  A    between atoms: C_3  and  O_4 
REMARK    3  A    between atoms: C_3  and  C_5 
REMARK    4  A    between atoms: C_5  and  N_6 
REMARK    5  A    between atoms: N_6  and  C_8 
REMARK    6  A    between atoms: N_6  and  C_21 
REMARK    7  A    between atoms: C_8  and  C_9 
REMARK    8  A    between atoms: C_10  and  C_11 
REMARK    9  A    between atoms: C_21  and  C_22 
ROOT
HETATM    1  N   UNL     1      43.018 -12.885   3.898  1.00  0.00    -0.061 N 
HETATM    2  H   UNL     1      42.077 -12.484   3.932  1.00  0.00     0.280 HD
ENDROOT
BRANCH   1   3
HETATM    3  C   UNL     1      43.139 -13.533   2.526  1.00  0.00     0.267 C 
BRANCH   3   4
HETATM    4  C   UNL     1      41.884 -13.401   1.631  1.00  0.00     0.143 C 
BRANCH   4   5
HETATM    5  C   UNL     1      40.547 -13.326   2.372  1.00  0.00     0.029 C 
HETATM    6  C   UNL     1      39.727 -14.603   2.282  1.00  0.00     0.007 C 
ENDBRANCH   4   5
BRANCH   4   7
HETATM    7  O   UNL     1      41.840 -14.497   0.717  1.00  0.00    -0.394 OA
HETATM    8  H   UNL     1      41.438 -14.180  -0.117  1.00  0.00     0.210 HD
ENDBRANCH   4   7
ENDBRANCH   3   4
ENDBRANCH   1   3
BRANCH   1   9
HETATM    9  C   UNL     1      43.076 -13.813   5.096  1.00  0.00     0.277 C 
BRANCH   9  10
HETATM   10  C   UNL     1      41.872 -14.594   5.493  1.00  0.00     0.016 A 
HETATM   11  C   UNL     1      41.638 -15.976   5.172  1.00  0.00     0.096 A 
HETATM   12  N   UNL     1      40.439 -16.376   5.614  1.00  0.00    -0.174 NA
HETATM   13  N   UNL     1      39.946 -15.330   6.278  1.00  0.00    -0.288 N 
HETATM   14  H   UNL     1      39.047 -15.436   6.739  1.00  0.00     0.188 HD
HETATM   15  C   UNL     1      40.751 -14.228   6.215  1.00  0.00     0.120 A 
BRANCH  11  16
HETATM   16  C   UNL     1      42.496 -16.903   4.435  1.00  0.00    -0.005 A 
HETATM   17  C   UNL     1      43.516 -17.614   5.080  1.00  0.00     0.014 A 
HETATM   18  C   UNL     1      44.333 -18.487   4.355  1.00  0.00     0.001 A 
HETATM   19  C   UNL     1      44.127 -18.665   2.988  1.00  0.00     0.000 A 
HETATM   20  C   UNL     1      43.101 -17.979   2.343  1.00  0.00     0.001 A 
HETATM   21  C   UNL     1      42.286 -17.103   3.063  1.00  0.00     0.014 A 
ENDBRANCH  11  16
ENDBRANCH   9  10
ENDBRANCH   1   9
BRANCH   1  22
HETATM   22  C   UNL     1      43.950 -11.704   4.079  1.00  0.00     0.273 C 
BRANCH  22  23
HETATM   23  C   UNL     1      44.109 -11.296   5.522  1.00  0.00    -0.033 A 
HETATM   24  C   UNL     1      43.036 -10.728   6.227  1.00  0.00     0.009 A 
HETATM   25  C   UNL     1      43.201 -10.317   7.551  1.00  0.00     0.001 A 
HETATM   26  C   UNL     1      44.432 -10.474   8.184  1.00  0.00     0.000 A 
HETATM   27  C   UNL     1      45.500 -11.047   7.498  1.00  0.00     0.001 A 
HETATM   28  C   UNL     1      45.341 -11.458   6.173  1.00  0.00     0.009 A 
ENDBRANCH  22  23
ENDBRANCH   1  22
TORSDOF 9
ENDMDL
MODEL 9
REMARK VINA RESULT:      -7.5      2.032      7.475
REMARK  9 active torsions:
REMARK  status: ('A' for Active; 'I' for Inactive)
REMARK    1  A    between atoms: C_2  and  C_3 
REMARK    2  A    between atoms: C_3  and  O_4 
REMARK    3  A    between atoms: C_3  and  C_5 
REMARK    4  A    between atoms: C_5  and  N_6 
REMARK    5  A    between atoms: N_6  and  C_8 
REMARK    6  A    between atoms: N_6  and  C_21 
REMARK    7  A    between atoms: C_8  and  C_9 
REMARK    8  A    between atoms: C_10  and  C_11 
REMARK    9  A    between atoms: C_21  and  C_22 
ROOT
HETATM    1  N   UNL     1      43.289 -12.397   5.650  1.00  0.00    -0.061 N 
HETATM    2  H   UNL     1      42.473 -12.169   6.224  1.00  0.00     0.280 HD
ENDROOT
BRANCH   1   3
HETATM    3  C   UNL     1      43.529 -11.175   4.775  1.00  0.00     0.267 C 
BRANCH   3   4
HETATM    4  C   UNL     1      42.372 -10.150   4.756  1.00  0.00     0.143 C 
BRANCH   4   5
HETATM    5  C   UNL     1      41.124 -10.545   5.551  1.00  0.00     0.029 C 
HETATM    6  C   UNL     1      40.825  -9.615   6.716  1.00  0.00     0.007 C 
ENDBRANCH   4   5
BRANCH   4   7
HETATM    7  O   UNL     1      41.990  -9.894   3.404  1.00  0.00    -0.394 OA
HETATM    8  H   UNL     1      41.998 -10.744   2.921  1.00  0.00     0.210 HD
ENDBRANCH   4   7
ENDBRANCH   3   4
ENDBRANCH   1   3
BRANCH   1   9
HETATM    9  C   UNL     1      42.902 -13.679   4.936  1.00  0.00     0.277 C 
BRANCH   9  10
HETATM   10  C   UNL     1      41.757 -14.491   5.432  1.00  0.00     0.016 A 
HETATM   11  C   UNL     1      41.557 -15.890   5.168  1.00  0.00     0.096 A 
HETATM   12  N   UNL     1      40.405 -16.321   5.697  1.00  0.00    -0.174 NA
HETATM   13  N   UNL     1      39.915 -15.274   6.361  1.00  0.00    -0.288 N 
HETATM   14  H   UNL     1      39.051 -15.398   6.882  1.00  0.00     0.188 HD
HETATM   15  C   UNL     1      40.670 -14.145   6.215  1.00  0.00     0.120 A 
BRANCH  11  16
HETATM   16  C   UNL     1      42.403 -16.807   4.404  1.00  0.00    -0.005 A 
HETATM   17  C   UNL     1      42.227 -16.975   3.024  1.00  0.00     0.014 A 
HETATM   18  C   UNL     1      43.039 -17.864   2.313  1.00  0.00     0.001 A 
HETATM   19  C   UNL     1      44.037 -18.579   2.972  1.00  0.00     0.000 A 
HETATM   20  C   UNL     1      44.233 -18.403   4.340  1.00  0.00     0.001 A 
HETATM   21  C   UNL     1      43.422 -17.518   5.054  1.00  0.00     0.014 A 
ENDBRANCH  11  16
ENDBRANCH   9  10
ENDBRANCH   1   9
BRANCH   1  22
HETATM   22  C   UNL     1      44.407 -12.644   6.643  1.00  0.00     0.273 C 
BRANCH  22  23
HETATM   23  C   UNL     1      44.788 -11.408   7.418  1.00  0.00    -0.033 A 
HETATM   24  C   UNL     1      43.896 -10.835   8.337  1.00  0.00     0.009 A 
HETATM   25  C   UNL     1      44.241  -9.669   9.023  1.00  0.00     0.001 A 
HETATM   26  C   UNL     1      45.479  -9.068   8.802  1.00  0.00     0.000 A 
HETATM   27  C   UNL     1      46.377  -9.635   7.902  1.00  0.00     0.001 A 
HETATM   28  C   UNL     1      46.037 -10.800   7.212  1.00  0.00     0.009 A 
ENDBRANCH  22  23
ENDBRANCH   1  22
TORSDOF 9
ENDMDL
MODEL 10
REMARK VINA RESULT:      -7.5      1.679      6.989
REMARK  9 active torsions:
REMARK  status: ('A' for Active; 'I' for Inactive)
REMARK    1  A    between atoms: C_2  and  C_3 
REMARK    2  A    between atoms: C_3  and  O_4 
REMARK    3  A    between atoms: C_3  and  C_5 
REMARK    4  A    between atoms: C_5  and  N_6 
REMARK    5  A    between atoms: N_6  and  C_8 
REMARK    6  A    between atoms: N_6  and  C_21 
REMARK    7  A    between atoms: C_8  and  C_9 
REMARK    8  A    between atoms: C_10  and  C_11 
REMARK    9  A    between atoms: C_21  and  C_22 
ROOT
HETATM    1  N   UNL     1      42.447 -12.460   5.409  1.00  0.00    -0.061 N 
HETATM    2  H   UNL     1      42.306 -12.471   6.423  1.00  0.00     0.280 HD
ENDROOT
BRANCH   1   3
HETATM    3  C   UNL     1      41.114 -12.029   4.815  1.00  0.00     0.267 C 
BRANCH   3   4
HETATM    4  C   UNL     1      40.097 -13.173   4.598  1.00  0.00     0.143 C 
BRANCH   4   5
HETATM    5  C   UNL     1      39.379 -13.173   3.245  1.00  0.00     0.029 C 
HETATM    6  C   UNL     1      39.923 -14.200   2.266  1.00  0.00     0.007 C 
ENDBRANCH   4   5
BRANCH   4   7
HETATM    7  O   UNL     1      39.117 -13.137   5.635  1.00  0.00    -0.394 OA
HETATM    8  H   UNL     1      38.917 -12.200   5.831  1.00  0.00     0.210 HD
ENDBRANCH   4   7
ENDBRANCH   3   4
ENDBRANCH   1   3
BRANCH   1   9
HETATM    9  C   UNL     1      42.917 -13.864   5.078  1.00  0.00     0.277 C 
BRANCH   9  10
HETATM   10  C   UNL     1      42.984 -14.898   6.147  1.00  0.00     0.016 A 
HETATM   11  C   UNL     1      43.052 -16.317   5.924  1.00  0.00     0.096 A 
HETATM   12  N   UNL     1      43.038 -16.988   7.082  1.00  0.00    -0.174 NA
HETATM   13  N   UNL     1      43.055 -16.049   8.028  1.00  0.00    -0.288 N 
HETATM   14  H   UNL     1      43.093 -16.347   8.999  1.00  0.00     0.188 HD
HETATM   15  C   UNL     1      42.997 -14.780   7.525  1.00  0.00     0.120 A 
BRANCH  11  16
HETATM   16  C   UNL     1      43.092 -17.043   4.655  1.00  0.00    -0.005 A 
HETATM   17  C   UNL     1      42.179 -16.761   3.630  1.00  0.00     0.014 A 
HETATM   18  C   UNL     1      42.227 -17.474   2.428  1.00  0.00     0.001 A 
HETATM   19  C   UNL     1      43.194 -18.460   2.237  1.00  0.00     0.000 A 
HETATM   20  C   UNL     1      44.119 -18.732   3.242  1.00  0.00     0.001 A 
HETATM   21  C   UNL     1      44.071 -18.025   4.446  1.00  0.00     0.014 A 
ENDBRANCH  11  16
ENDBRANCH   9  10
ENDBRANCH   1   9
BRANCH   1  22
HETATM   22  C   UNL     1      43.553 -11.448   5.181  1.00  0.00     0.273 C 
BRANCH  22  23
HETATM   23  C   UNL     1      44.241 -11.032   6.456  1.00  0.00    -0.033 A 
HETATM   24  C   UNL     1      45.641 -11.062   6.557  1.00  0.00     0.009 A 
HETATM   25  C   UNL     1      46.270 -10.713   7.753  1.00  0.00     0.001 A 
HETATM   26  C   UNL     1      45.511 -10.324   8.854  1.00  0.00     0.000 A 
HETATM   27  C   UNL     1      44.123 -10.279   8.762  1.00  0.00     0.001 A 
HETATM   28  C   UNL     1      43.488 -10.629   7.570  1.00  0.00     0.009 A 
ENDBRANCH  22  23
ENDBRANCH   1  22
TORSDOF 9
ENDMDL
