MODEL 1
REMARK VINA RESULT:      -9.5      0.000      0.000
REMARK  4 active torsions:
REMARK  status: ('A' for Active; 'I' for Inactive)
REMARK    1  A    between atoms: C_8  and  C_9 
REMARK    2  A    between atoms: C_12  and  N_13 
REMARK       I    between atoms: N_13  and  C_14 
REMARK    3  A    between atoms: C_14  and  C_15 
REMARK    4  A    between atoms: C_18  and  N_19 
ROOT
HETATM    1  C   UNL     1      43.276 -12.759   5.844  1.00  0.00     0.010 A 
HETATM    2  C   UNL     1      44.365 -12.585   6.706  1.00  0.00     0.017 A 
HETATM    3  C   UNL     1      44.388 -11.531   7.633  1.00  0.00     0.030 A 
HETATM    4  C   UNL     1      43.323 -10.635   7.720  1.00  0.00     0.035 A 
HETATM    5  C   UNL     1      42.258 -10.772   6.826  1.00  0.00     0.030 A 
HETATM    6  C   UNL     1      42.237 -11.821   5.898  1.00  0.00     0.017 A 
ENDROOT
BRANCH   4   7
HETATM    7  N   UNL     1      43.219  -9.619   8.695  1.00  0.00    -0.323 N 
HETATM    8  C   UNL     1      43.478  -9.732  10.050  1.00  0.00     0.256 C 
HETATM    9  O   UNL     1      43.959 -10.701  10.625  1.00  0.00    -0.267 OA
HETATM   10  H   UNL     1      42.788  -8.764   8.373  1.00  0.00     0.169 HD
BRANCH   8  11
HETATM   11  C   UNL     1      43.047  -8.567  10.876  1.00  0.00     0.032 A 
HETATM   12  C   UNL     1      42.250  -7.536  10.381  1.00  0.00     0.019 A 
HETATM   13  C   UNL     1      41.820  -6.505  11.233  1.00  0.00     0.031 A 
HETATM   14  C   UNL     1      42.176  -6.465  12.594  1.00  0.00     0.045 A 
HETATM   15  C   UNL     1      43.015  -7.492  13.056  1.00  0.00     0.031 A 
HETATM   16  C   UNL     1      43.448  -8.525  12.212  1.00  0.00     0.019 A 
BRANCH  14  17
HETATM   17  N   UNL     1      41.696  -5.436  13.469  1.00  0.00    -0.252 N 
HETATM   18  C   UNL     1      42.112  -4.121  13.433  1.00  0.00     0.231 C 
HETATM   19  O   UNL     1      42.874  -3.565  12.654  1.00  0.00    -0.273 OA
HETATM   20  C   UNL     1      41.474  -3.372  14.564  1.00  0.00     0.113 C 
HETATM   21  C   UNL     1      40.373  -4.286  15.029  1.00  0.00     0.113 C 
HETATM   22  C   UNL     1      40.734  -5.616  14.442  1.00  0.00     0.231 C 
HETATM   23  O   UNL     1      40.192  -6.644  14.824  1.00  0.00    -0.273 OA
ENDBRANCH  14  17
ENDBRANCH   8  11
ENDBRANCH   4   7
BRANCH   1  24
HETATM   24  C   UNL     1      43.158 -13.900   4.929  1.00  0.00     0.139 A 
HETATM   25  N   UNL     1      43.040 -13.794   3.560  1.00  0.00    -0.338 N 
HETATM   26  C   UNL     1      43.075 -15.049   3.010  1.00  0.00     0.063 A 
HETATM   27  H   UNL     1      42.993 -12.933   3.038  1.00  0.00     0.167 HD
HETATM   28  C   UNL     1      43.180 -15.895   4.104  1.00  0.00     0.086 A 
HETATM   29  C   UNL     1      43.040 -15.502   1.691  1.00  0.00     0.032 A 
HETATM   30  C   UNL     1      43.251 -17.280   3.898  1.00  0.00     0.040 A 
HETATM   31  N   UNL     1      43.217 -15.176   5.273  1.00  0.00    -0.228 NA
HETATM   32  C   UNL     1      43.219 -17.778   2.584  1.00  0.00    -0.060 A 
HETATM   33  C   UNL     1      43.336 -19.253   2.329  1.00  0.00     0.048 C 
HETATM   34  C   UNL     1      43.120 -16.888   1.502  1.00  0.00     0.009 A 
ENDBRANCH   1  24
TORSDOF 4
ENDMDL
MODEL 2
REMARK VINA RESULT:      -9.3      3.124     12.656
REMARK  4 active torsions:
REMARK  status: ('A' for Active; 'I' for Inactive)
REMARK    1  A    between atoms: C_8  and  C_9 
REMARK    2  A    between atoms: C_12  and  N_13 
REMARK       I    between atoms: N_13  and  C_14 
REMARK    3  A    between atoms: C_14  and  C_15 
REMARK    4  A    between atoms: C_18  and  N_19 
ROOT
HETATM    1  C   UNL     1      42.254  -8.238  14.304  1.00  0.00     0.010 A 
HETATM    2  C   UNL     1      43.270  -7.664  13.530  1.00  0.00     0.017 A 
HETATM    3  C   UNL     1      43.623  -8.210  12.286  1.00  0.00     0.030 A 
HETATM    4  C   UNL     1      42.965  -9.336  11.790  1.00  0.00     0.035 A 
HETATM    5  C   UNL     1      41.989  -9.944  12.582  1.00  0.00     0.030 A 
HETATM    6  C   UNL     1      41.639  -9.402  13.825  1.00  0.00     0.017 A 
ENDROOT
BRANCH   4   7
HETATM    7  N   UNL     1      43.183  -9.878  10.505  1.00  0.00    -0.323 N 
HETATM    8  C   UNL     1      42.890  -9.287   9.288  1.00  0.00     0.256 C 
HETATM    9  O   UNL     1      42.503  -8.139   9.106  1.00  0.00    -0.267 OA
HETATM   10  H   UNL     1      43.463 -10.849  10.495  1.00  0.00     0.169 HD
BRANCH   8  11
HETATM   11  C   UNL     1      42.998 -10.189   8.104  1.00  0.00     0.032 A 
HETATM   12  C   UNL     1      44.040 -11.099   7.934  1.00  0.00     0.019 A 
HETATM   13  C   UNL     1      44.043 -11.971   6.832  1.00  0.00     0.031 A 
HETATM   14  C   UNL     1      43.017 -11.957   5.868  1.00  0.00     0.045 A 
HETATM   15  C   UNL     1      42.003 -11.002   6.041  1.00  0.00     0.031 A 
HETATM   16  C   UNL     1      41.993 -10.129   7.139  1.00  0.00     0.019 A 
BRANCH  14  17
HETATM   17  N   UNL     1      43.001 -12.881   4.771  1.00  0.00    -0.252 N 
HETATM   18  C   UNL     1      43.332 -12.558   3.471  1.00  0.00     0.231 C 
HETATM   19  O   UNL     1      43.752 -11.505   3.012  1.00  0.00    -0.273 OA
HETATM   20  C   UNL     1      43.091 -13.748   2.593  1.00  0.00     0.113 C 
HETATM   21  C   UNL     1      42.942 -14.889   3.560  1.00  0.00     0.113 C 
HETATM   22  C   UNL     1      42.682 -14.219   4.874  1.00  0.00     0.231 C 
HETATM   23  O   UNL     1      42.264 -14.851   5.836  1.00  0.00    -0.273 OA
ENDBRANCH  14  17
ENDBRANCH   8  11
ENDBRANCH   4   7
BRANCH   1  24
HETATM   24  C   UNL     1      41.781  -7.648  15.562  1.00  0.00     0.139 A 
HETATM   25  N   UNL     1      41.077  -8.332  16.530  1.00  0.00    -0.338 N 
HETATM   26  C   UNL     1      40.903  -7.516  17.617  1.00  0.00     0.063 A 
HETATM   27  H   UNL     1      40.786  -9.296  16.474  1.00  0.00     0.167 HD
HETATM   28  C   UNL     1      41.495  -6.320  17.239  1.00  0.00     0.086 A 
HETATM   29  C   UNL     1      40.311  -7.719  18.863  1.00  0.00     0.032 A 
HETATM   30  C   UNL     1      41.506  -5.245  18.139  1.00  0.00     0.040 A 
HETATM   31  N   UNL     1      42.017  -6.413  15.973  1.00  0.00    -0.228 NA
HETATM   32  C   UNL     1      40.919  -5.408  19.406  1.00  0.00    -0.060 A 
HETATM   33  C   UNL     1      40.953  -4.289  20.407  1.00  0.00     0.048 C 
HETATM   34  C   UNL     1      40.338  -6.638  19.754  1.00  0.00     0.009 A 
ENDBRANCH   1  24
TORSDOF 4
ENDMDL
MODEL 3
REMARK VINA RESULT:      -9.0      3.392     12.729
REMARK  4 active torsions:
REMARK  status: ('A' for Active; 'I' for Inactive)
REMARK    1  A    between atoms: C_8  and  C_9 
REMARK    2  A    between atoms: C_12  and  N_13 
REMARK       I    between atoms: N_13  and  C_14 
REMARK    3  A    between atoms: C_14  and  C_15 
REMARK    4  A    between atoms: C_18  and  N_19 
ROOT
HETATM    1  C   UNL     1      42.373  -7.607  14.860  1.00  0.00     0.010 A 
HETATM    2  C   UNL     1      43.119  -6.987  13.851  1.00  0.00     0.017 A 
HETATM    3  C   UNL     1      43.308  -7.611  12.608  1.00  0.00     0.030 A 
HETATM    4  C   UNL     1      42.752  -8.863  12.348  1.00  0.00     0.035 A 
HETATM    5  C   UNL     1      42.052  -9.510  13.370  1.00  0.00     0.030 A 
HETATM    6  C   UNL     1      41.867  -8.889  14.611  1.00  0.00     0.017 A 
ENDROOT
BRANCH   4   7
HETATM    7  N   UNL     1      42.801  -9.508  11.093  1.00  0.00    -0.323 N 
HETATM    8  C   UNL     1      43.933  -9.845  10.370  1.00  0.00     0.256 C 
HETATM    9  O   UNL     1      45.095  -9.753  10.746  1.00  0.00    -0.267 OA
HETATM   10  H   UNL     1      41.907  -9.612  10.633  1.00  0.00     0.169 HD
BRANCH   8  11
HETATM   11  C   UNL     1      43.679 -10.293   8.970  1.00  0.00     0.032 A 
HETATM   12  C   UNL     1      44.323 -11.387   8.393  1.00  0.00     0.019 A 
HETATM   13  C   UNL     1      43.983 -11.800   7.094  1.00  0.00     0.031 A 
HETATM   14  C   UNL     1      43.004 -11.137   6.332  1.00  0.00     0.045 A 
HETATM   15  C   UNL     1      42.402 -10.013   6.921  1.00  0.00     0.031 A 
HETATM   16  C   UNL     1      42.735  -9.595   8.217  1.00  0.00     0.019 A 
BRANCH  14  17
HETATM   17  N   UNL     1      42.629 -11.592   5.025  1.00  0.00    -0.252 N 
HETATM   18  C   UNL     1      43.464 -11.592   3.927  1.00  0.00     0.231 C 
HETATM   19  O   UNL     1      44.647 -11.294   3.847  1.00  0.00    -0.273 OA
HETATM   20  C   UNL     1      42.690 -12.034   2.721  1.00  0.00     0.113 C 
HETATM   21  C   UNL     1      41.437 -12.636   3.295  1.00  0.00     0.113 C 
HETATM   22  C   UNL     1      41.395 -12.117   4.699  1.00  0.00     0.231 C 
HETATM   23  O   UNL     1      40.380 -12.204   5.376  1.00  0.00    -0.273 OA
ENDBRANCH  14  17
ENDBRANCH   8  11
ENDBRANCH   4   7
BRANCH   1  24
HETATM   24  C   UNL     1      42.063  -6.954  16.137  1.00  0.00     0.139 A 
HETATM   25  N   UNL     1      42.112  -5.594  16.352  1.00  0.00    -0.338 N 
HETATM   26  C   UNL     1      41.647  -5.323  17.612  1.00  0.00     0.063 A 
HETATM   27  H   UNL     1      42.388  -4.901  15.674  1.00  0.00     0.167 HD
HETATM   28  C   UNL     1      41.360  -6.572  18.142  1.00  0.00     0.086 A 
HETATM   29  C   UNL     1      41.446  -4.131  18.308  1.00  0.00     0.032 A 
HETATM   30  C   UNL     1      40.845  -6.666  19.443  1.00  0.00     0.040 A 
HETATM   31  N   UNL     1      41.633  -7.562  17.231  1.00  0.00    -0.228 NA
HETATM   32  C   UNL     1      40.628  -5.487  20.178  1.00  0.00    -0.060 A 
HETATM   33  C   UNL     1      40.038  -5.552  21.557  1.00  0.00     0.048 C 
HETATM   34  C   UNL     1      40.923  -4.240  19.603  1.00  0.00     0.009 A 
ENDBRANCH   1  24
TORSDOF 4
ENDMDL
MODEL 4
REMARK VINA RESULT:      -8.7      1.649      2.618
REMARK  4 active torsions:
REMARK  status: ('A' for Active; 'I' for Inactive)
REMARK    1  A    between atoms: C_8  and  C_9 
REMARK    2  A    between atoms: C_12  and  N_13 
REMARK       I    between atoms: N_13  and  C_14 
REMARK    3  A    between atoms: C_14  and  C_15 
REMARK    4  A    between atoms: C_18  and  N_19 
ROOT
HETATM    1  C   UNL     1      43.334 -14.655   5.550  1.00  0.00     0.010 A 
HETATM    2  C   UNL     1      43.163 -13.486   4.800  1.00  0.00     0.017 A 
HETATM    3  C   UNL     1      43.065 -12.235   5.427  1.00  0.00     0.030 A 
HETATM    4  C   UNL     1      43.140 -12.127   6.816  1.00  0.00     0.035 A 
HETATM    5  C   UNL     1      43.257 -13.295   7.573  1.00  0.00     0.030 A 
HETATM    6  C   UNL     1      43.351 -14.544   6.947  1.00  0.00     0.017 A 
ENDROOT
BRANCH   4   7
HETATM    7  N   UNL     1      43.161 -10.901   7.516  1.00  0.00    -0.323 N 
HETATM    8  C   UNL     1      44.112 -10.476   8.427  1.00  0.00     0.256 C 
HETATM    9  O   UNL     1      45.168 -11.035   8.698  1.00  0.00    -0.267 OA
HETATM   10  H   UNL     1      42.322 -10.345   7.425  1.00  0.00     0.169 HD
BRANCH   8  11
HETATM   11  C   UNL     1      43.750  -9.247   9.193  1.00  0.00     0.032 A 
HETATM   12  C   UNL     1      43.788  -7.968   8.640  1.00  0.00     0.019 A 
HETATM   13  C   UNL     1      43.363  -6.861   9.395  1.00  0.00     0.031 A 
HETATM   14  C   UNL     1      42.899  -6.993  10.717  1.00  0.00     0.045 A 
HETATM   15  C   UNL     1      42.912  -8.287  11.263  1.00  0.00     0.031 A 
HETATM   16  C   UNL     1      43.333  -9.397  10.516  1.00  0.00     0.019 A 
BRANCH  14  17
HETATM   17  N   UNL     1      42.423  -5.866  11.465  1.00  0.00    -0.252 N 
HETATM   18  C   UNL     1      42.080  -4.649  10.914  1.00  0.00     0.231 C 
HETATM   19  O   UNL     1      42.040  -4.308   9.740  1.00  0.00    -0.273 OA
HETATM   20  C   UNL     1      41.736  -3.691  12.014  1.00  0.00     0.113 C 
HETATM   21  C   UNL     1      41.557  -4.572  13.220  1.00  0.00     0.113 C 
HETATM   22  C   UNL     1      42.216  -5.859  12.829  1.00  0.00     0.231 C 
HETATM   23  O   UNL     1      42.478  -6.715  13.664  1.00  0.00    -0.273 OA
ENDBRANCH  14  17
ENDBRANCH   8  11
ENDBRANCH   4   7
BRANCH   1  24
HETATM   24  C   UNL     1      43.543 -15.973   4.938  1.00  0.00     0.139 A 
HETATM   25  N   UNL     1      43.902 -17.108   5.631  1.00  0.00    -0.338 N 
HETATM   26  C   UNL     1      43.890 -18.178   4.774  1.00  0.00     0.063 A 
HETATM   27  H   UNL     1      44.087 -17.159   6.621  1.00  0.00     0.167 HD
HETATM   28  C   UNL     1      43.548 -17.624   3.549  1.00  0.00     0.086 A 
HETATM   29  C   UNL     1      44.126 -19.539   4.961  1.00  0.00     0.032 A 
HETATM   30  C   UNL     1      43.434 -18.457   2.427  1.00  0.00     0.040 A 
HETATM   31  N   UNL     1      43.352 -16.271   3.663  1.00  0.00    -0.228 NA
HETATM   32  C   UNL     1      43.665 -19.837   2.573  1.00  0.00    -0.060 A 
HETATM   33  C   UNL     1      43.509 -20.760   1.399  1.00  0.00     0.048 C 
HETATM   34  C   UNL     1      44.000 -20.359   3.832  1.00  0.00     0.009 A 
ENDBRANCH   1  24
TORSDOF 4
ENDMDL
MODEL 5
REMARK VINA RESULT:      -8.6      2.755     12.565
REMARK  4 active torsions:
REMARK  status: ('A' for Active; 'I' for Inactive)
REMARK    1  A    between atoms: C_8  and  C_9 
REMARK    2  A    between atoms: C_12  and  N_13 
REMARK       I    between atoms: N_13  and  C_14 
REMARK    3  A    between atoms: C_14  and  C_15 
REMARK    4  A    between atoms: C_18  and  N_19 
ROOT
HETATM    1  C   UNL     1      42.153  -8.009  12.727  1.00  0.00     0.010 A 
HETATM    2  C   UNL     1      41.082  -8.373  11.903  1.00  0.00     0.017 A 
HETATM    3  C   UNL     1      41.291  -9.138  10.745  1.00  0.00     0.030 A 
HETATM    4  C   UNL     1      42.573  -9.558  10.391  1.00  0.00     0.035 A 
HETATM    5  C   UNL     1      43.652  -9.153  11.180  1.00  0.00     0.030 A 
HETATM    6  C   UNL     1      43.444  -8.386  12.333  1.00  0.00     0.017 A 
ENDROOT
BRANCH   4   7
HETATM    7  N   UNL     1      42.854 -10.419   9.308  1.00  0.00    -0.323 N 
HETATM    8  C   UNL     1      42.912 -10.084   7.966  1.00  0.00     0.256 C 
HETATM    9  O   UNL     1      42.849  -8.956   7.491  1.00  0.00    -0.267 OA
HETATM   10  H   UNL     1      42.888 -11.402   9.543  1.00  0.00     0.169 HD
BRANCH   8  11
HETATM   11  C   UNL     1      42.985 -11.240   7.027  1.00  0.00     0.032 A 
HETATM   12  C   UNL     1      43.987 -12.207   7.088  1.00  0.00     0.019 A 
HETATM   13  C   UNL     1      43.956 -13.311   6.219  1.00  0.00     0.031 A 
HETATM   14  C   UNL     1      42.936 -13.481   5.264  1.00  0.00     0.045 A 
HETATM   15  C   UNL     1      41.963 -12.470   5.196  1.00  0.00     0.031 A 
HETATM   16  C   UNL     1      41.987 -11.366   6.060  1.00  0.00     0.019 A 
BRANCH  14  17
HETATM   17  N   UNL     1      42.884 -14.633   4.413  1.00  0.00    -0.252 N 
HETATM   18  C   UNL     1      43.170 -14.623   3.063  1.00  0.00     0.231 C 
HETATM   19  O   UNL     1      43.574 -13.708   2.359  1.00  0.00    -0.273 OA
HETATM   20  C   UNL     1      42.902 -15.982   2.493  1.00  0.00     0.113 C 
HETATM   21  C   UNL     1      42.786 -16.867   3.703  1.00  0.00     0.113 C 
HETATM   22  C   UNL     1      42.570 -15.909   4.834  1.00  0.00     0.231 C 
HETATM   23  O   UNL     1      42.185 -16.298   5.929  1.00  0.00    -0.273 OA
ENDBRANCH  14  17
ENDBRANCH   8  11
ENDBRANCH   4   7
BRANCH   1  24
HETATM   24  C   UNL     1      41.976  -7.297  13.998  1.00  0.00     0.139 A 
HETATM   25  N   UNL     1      41.599  -5.976  14.107  1.00  0.00    -0.338 N 
HETATM   26  C   UNL     1      41.412  -5.673  15.430  1.00  0.00     0.063 A 
HETATM   27  H   UNL     1      41.430  -5.347  13.338  1.00  0.00     0.167 HD
HETATM   28  C   UNL     1      41.728  -6.849  16.094  1.00  0.00     0.086 A 
HETATM   29  C   UNL     1      40.993  -4.514  16.082  1.00  0.00     0.032 A 
HETATM   30  C   UNL     1      41.634  -6.896  17.492  1.00  0.00     0.040 A 
HETATM   31  N   UNL     1      42.084  -7.831  15.203  1.00  0.00    -0.228 NA
HETATM   32  C   UNL     1      41.215  -5.748  18.188  1.00  0.00    -0.060 A 
HETATM   33  C   UNL     1      41.063  -5.780  19.681  1.00  0.00     0.048 C 
HETATM   34  C   UNL     1      40.895  -4.579  17.478  1.00  0.00     0.009 A 
ENDBRANCH   1  24
TORSDOF 4
ENDMDL
MODEL 6
REMARK VINA RESULT:      -8.5      2.124      2.388
REMARK  4 active torsions:
REMARK  status: ('A' for Active; 'I' for Inactive)
REMARK    1  A    between atoms: C_8  and  C_9 
REMARK    2  A    between atoms: C_12  and  N_13 
REMARK       I    between atoms: N_13  and  C_14 
REMARK    3  A    between atoms: C_14  and  C_15 
REMARK    4  A    between atoms: C_18  and  N_19 
ROOT
HETATM    1  C   UNL     1      42.572 -12.725   5.510  1.00  0.00     0.010 A 
HETATM    2  C   UNL     1      43.730 -12.079   5.959  1.00  0.00     0.017 A 
HETATM    3  C   UNL     1      43.655 -10.853   6.637  1.00  0.00     0.030 A 
HETATM    4  C   UNL     1      42.421 -10.251   6.884  1.00  0.00     0.035 A 
HETATM    5  C   UNL     1      41.266 -10.863   6.392  1.00  0.00     0.030 A 
HETATM    6  C   UNL     1      41.342 -12.085   5.711  1.00  0.00     0.017 A 
ENDROOT
BRANCH   4   7
HETATM    7  N   UNL     1      42.251  -9.079   7.653  1.00  0.00    -0.323 N 
HETATM    8  C   UNL     1      41.996  -7.802   7.184  1.00  0.00     0.256 C 
HETATM    9  O   UNL     1      41.753  -7.482   6.027  1.00  0.00    -0.267 OA
HETATM   10  H   UNL     1      42.466  -9.180   8.635  1.00  0.00     0.169 HD
BRANCH   8  11
HETATM   11  C   UNL     1      42.108  -6.719   8.205  1.00  0.00     0.032 A 
HETATM   12  C   UNL     1      41.246  -5.625   8.251  1.00  0.00     0.019 A 
HETATM   13  C   UNL     1      41.362  -4.679   9.284  1.00  0.00     0.031 A 
HETATM   14  C   UNL     1      42.338  -4.789  10.291  1.00  0.00     0.045 A 
HETATM   15  C   UNL     1      43.221  -5.877  10.196  1.00  0.00     0.031 A 
HETATM   16  C   UNL     1      43.111  -6.826   9.169  1.00  0.00     0.019 A 
BRANCH  14  17
HETATM   17  N   UNL     1      42.421  -3.847  11.368  1.00  0.00    -0.252 N 
HETATM   18  C   UNL     1      43.258  -2.749  11.385  1.00  0.00     0.231 C 
HETATM   19  O   UNL     1      44.008  -2.327  10.516  1.00  0.00    -0.273 OA
HETATM   20  C   UNL     1      43.145  -2.066  12.714  1.00  0.00     0.113 C 
HETATM   21  C   UNL     1      41.901  -2.654  13.321  1.00  0.00     0.113 C 
HETATM   22  C   UNL     1      41.657  -3.894  12.515  1.00  0.00     0.231 C 
HETATM   23  O   UNL     1      40.869  -4.750  12.895  1.00  0.00    -0.273 OA
ENDBRANCH  14  17
ENDBRANCH   8  11
ENDBRANCH   4   7
BRANCH   1  24
HETATM   24  C   UNL     1      42.590 -14.053   4.886  1.00  0.00     0.139 A 
HETATM   25  N   UNL     1      41.914 -14.382   3.730  1.00  0.00    -0.338 N 
HETATM   26  C   UNL     1      42.248 -15.661   3.367  1.00  0.00     0.063 A 
HETATM   27  H   UNL     1      41.316 -13.766   3.203  1.00  0.00     0.167 HD
HETATM   28  C   UNL     1      43.111 -16.082   4.367  1.00  0.00     0.086 A 
HETATM   29  C   UNL     1      41.891 -16.455   2.277  1.00  0.00     0.032 A 
HETATM   30  C   UNL     1      43.662 -17.369   4.302  1.00  0.00     0.040 A 
HETATM   31  N   UNL     1      43.300 -15.090   5.297  1.00  0.00    -0.228 NA
HETATM   32  C   UNL     1      43.328 -18.202   3.219  1.00  0.00    -0.060 A 
HETATM   33  C   UNL     1      43.936 -19.570   3.100  1.00  0.00     0.048 C 
HETATM   34  C   UNL     1      42.457 -17.735   2.222  1.00  0.00     0.009 A 
ENDBRANCH   1  24
TORSDOF 4
ENDMDL
MODEL 7
REMARK VINA RESULT:      -8.4     21.383     24.502
REMARK  4 active torsions:
REMARK  status: ('A' for Active; 'I' for Inactive)
REMARK    1  A    between atoms: C_8  and  C_9 
REMARK    2  A    between atoms: C_12  and  N_13 
REMARK       I    between atoms: N_13  and  C_14 
REMARK    3  A    between atoms: C_14  and  C_15 
REMARK    4  A    between atoms: C_18  and  N_19 
ROOT
HETATM    1  C   UNL     1      38.039 -33.569   6.046  1.00  0.00     0.010 A 
HETATM    2  C   UNL     1      37.677 -33.874   4.729  1.00  0.00     0.017 A 
HETATM    3  C   UNL     1      38.386 -33.337   3.643  1.00  0.00     0.030 A 
HETATM    4  C   UNL     1      39.474 -32.489   3.854  1.00  0.00     0.035 A 
HETATM    5  C   UNL     1      39.807 -32.139   5.165  1.00  0.00     0.030 A 
HETATM    6  C   UNL     1      39.096 -32.672   6.247  1.00  0.00     0.017 A 
ENDROOT
BRANCH   4   7
HETATM    7  N   UNL     1      40.306 -31.997   2.825  1.00  0.00    -0.323 N 
HETATM    8  C   UNL     1      41.526 -32.510   2.419  1.00  0.00     0.256 C 
HETATM    9  O   UNL     1      42.043 -33.554   2.799  1.00  0.00    -0.267 OA
HETATM   10  H   UNL     1      40.027 -31.104   2.442  1.00  0.00     0.169 HD
BRANCH   8  11
HETATM   11  C   UNL     1      42.295 -31.645   1.478  1.00  0.00     0.032 A 
HETATM   12  C   UNL     1      42.244 -30.253   1.510  1.00  0.00     0.019 A 
HETATM   13  C   UNL     1      43.051 -29.497   0.643  1.00  0.00     0.031 A 
HETATM   14  C   UNL     1      43.922 -30.101  -0.282  1.00  0.00     0.045 A 
HETATM   15  C   UNL     1      43.923 -31.505  -0.323  1.00  0.00     0.031 A 
HETATM   16  C   UNL     1      43.121 -32.266   0.540  1.00  0.00     0.019 A 
BRANCH  14  17
HETATM   17  N   UNL     1      44.777 -29.325  -1.131  1.00  0.00    -0.252 N 
HETATM   18  C   UNL     1      44.530 -29.065  -2.464  1.00  0.00     0.231 C 
HETATM   19  O   UNL     1      43.560 -29.358  -3.148  1.00  0.00    -0.273 OA
HETATM   20  C   UNL     1      45.694 -28.319  -3.043  1.00  0.00     0.113 C 
HETATM   21  C   UNL     1      46.465 -27.855  -1.838  1.00  0.00     0.113 C 
HETATM   22  C   UNL     1      45.943 -28.710  -0.724  1.00  0.00     0.231 C 
HETATM   23  O   UNL     1      46.527 -28.775   0.350  1.00  0.00    -0.273 OA
ENDBRANCH  14  17
ENDBRANCH   8  11
ENDBRANCH   4   7
BRANCH   1  24
HETATM   24  C   UNL     1      37.394 -34.183   7.213  1.00  0.00     0.139 A 
HETATM   25  N   UNL     1      38.063 -34.866   8.206  1.00  0.00    -0.338 N 
HETATM   26  C   UNL     1      37.175 -35.196   9.196  1.00  0.00     0.063 A 
HETATM   27  H   UNL     1      39.055 -35.044   8.232  1.00  0.00     0.167 HD
HETATM   28  C   UNL     1      35.958 -34.718   8.733  1.00  0.00     0.086 A 
HETATM   29  C   UNL     1      37.328 -35.840  10.424  1.00  0.00     0.032 A 
HETATM   30  C   UNL     1      34.810 -34.883   9.520  1.00  0.00     0.040 A 
HETATM   31  N   UNL     1      36.107 -34.111   7.510  1.00  0.00    -0.228 NA
HETATM   32  C   UNL     1      34.922 -35.526  10.765  1.00  0.00    -0.060 A 
HETATM   33  C   UNL     1      33.718 -35.679  11.650  1.00  0.00     0.048 C 
HETATM   34  C   UNL     1      36.173 -35.989  11.203  1.00  0.00     0.009 A 
ENDBRANCH   1  24
TORSDOF 4
ENDMDL
MODEL 8
REMARK VINA RESULT:      -8.3      4.759     12.500
REMARK  4 active torsions:
REMARK  status: ('A' for Active; 'I' for Inactive)
REMARK    1  A    between atoms: C_8  and  C_9 
REMARK    2  A    between atoms: C_12  and  N_13 
REMARK       I    between atoms: N_13  and  C_14 
REMARK    3  A    between atoms: C_14  and  C_15 
REMARK    4  A    between atoms: C_18  and  N_19 
ROOT
HETATM    1  C   UNL     1      40.950  -9.186   9.381  1.00  0.00     0.010 A 
HETATM    2  C   UNL     1      39.626  -9.382   8.970  1.00  0.00     0.017 A 
HETATM    3  C   UNL     1      39.329  -9.765   7.653  1.00  0.00     0.030 A 
HETATM    4  C   UNL     1      40.349  -9.965   6.723  1.00  0.00     0.035 A 
HETATM    5  C   UNL     1      41.668  -9.718   7.112  1.00  0.00     0.030 A 
HETATM    6  C   UNL     1      41.964  -9.331   8.425  1.00  0.00     0.017 A 
ENDROOT
BRANCH   4   7
HETATM    7  N   UNL     1      40.145 -10.456   5.416  1.00  0.00    -0.323 N 
HETATM    8  C   UNL     1      39.661 -11.702   5.057  1.00  0.00     0.256 C 
HETATM    9  O   UNL     1      39.210 -12.557   5.811  1.00  0.00    -0.267 OA
HETATM   10  H   UNL     1      40.514  -9.871   4.679  1.00  0.00     0.169 HD
BRANCH   8  11
HETATM   11  C   UNL     1      39.782 -12.036   3.608  1.00  0.00     0.032 A 
HETATM   12  C   UNL     1      38.739 -11.866   2.699  1.00  0.00     0.019 A 
HETATM   13  C   UNL     1      38.944 -12.131   1.334  1.00  0.00     0.031 A 
HETATM   14  C   UNL     1      40.183 -12.576   0.838  1.00  0.00     0.045 A 
HETATM   15  C   UNL     1      41.203 -12.780   1.781  1.00  0.00     0.031 A 
HETATM   16  C   UNL     1      41.007 -12.517   3.145  1.00  0.00     0.019 A 
BRANCH  14  17
HETATM   17  N   UNL     1      40.399 -12.800  -0.562  1.00  0.00    -0.252 N 
HETATM   18  C   UNL     1      40.034 -13.946  -1.237  1.00  0.00     0.231 C 
HETATM   19  O   UNL     1      39.423 -14.927  -0.835  1.00  0.00    -0.273 OA
HETATM   20  C   UNL     1      40.518 -13.858  -2.653  1.00  0.00     0.113 C 
HETATM   21  C   UNL     1      40.871 -12.407  -2.827  1.00  0.00     0.113 C 
HETATM   22  C   UNL     1      40.972 -11.888  -1.425  1.00  0.00     0.231 C 
HETATM   23  O   UNL     1      41.488 -10.804  -1.186  1.00  0.00    -0.273 OA
ENDBRANCH  14  17
ENDBRANCH   8  11
ENDBRANCH   4   7
BRANCH   1  24
HETATM   24  C   UNL     1      41.318  -8.883  10.769  1.00  0.00     0.139 A 
HETATM   25  N   UNL     1      42.450  -8.192  11.144  1.00  0.00    -0.338 N 
HETATM   26  C   UNL     1      42.418  -7.983  12.498  1.00  0.00     0.063 A 
HETATM   27  H   UNL     1      43.160  -7.844  10.519  1.00  0.00     0.167 HD
HETATM   28  C   UNL     1      41.249  -8.607  12.909  1.00  0.00     0.086 A 
HETATM   29  C   UNL     1      43.275  -7.313  13.370  1.00  0.00     0.032 A 
HETATM   30  C   UNL     1      40.893  -8.578  14.264  1.00  0.00     0.040 A 
HETATM   31  N   UNL     1      40.593  -9.164  11.839  1.00  0.00    -0.228 NA
HETATM   32  C   UNL     1      41.732  -7.911  15.176  1.00  0.00    -0.060 A 
HETATM   33  C   UNL     1      41.356  -7.826  16.628  1.00  0.00     0.048 C 
HETATM   34  C   UNL     1      42.902  -7.285  14.720  1.00  0.00     0.009 A 
ENDBRANCH   1  24
TORSDOF 4
ENDMDL
MODEL 9
REMARK VINA RESULT:      -8.2     22.392     24.795
REMARK  4 active torsions:
REMARK  status: ('A' for Active; 'I' for Inactive)
REMARK    1  A    between atoms: C_8  and  C_9 
REMARK    2  A    between atoms: C_12  and  N_13 
REMARK       I    between atoms: N_13  and  C_14 
REMARK    3  A    between atoms: C_14  and  C_15 
REMARK    4  A    between atoms: C_18  and  N_19 
ROOT
HETATM    1  C   UNL     1      51.601 -31.837   5.712  1.00  0.00     0.010 A 
HETATM    2  C   UNL     1      51.306 -30.560   5.222  1.00  0.00     0.017 A 
HETATM    3  C   UNL     1      50.668 -30.393   3.983  1.00  0.00     0.030 A 
HETATM    4  C   UNL     1      50.309 -31.499   3.213  1.00  0.00     0.035 A 
HETATM    5  C   UNL     1      50.649 -32.774   3.672  1.00  0.00     0.030 A 
HETATM    6  C   UNL     1      51.290 -32.940   4.906  1.00  0.00     0.017 A 
ENDROOT
BRANCH   4   7
HETATM    7  N   UNL     1      49.568 -31.423   2.013  1.00  0.00    -0.323 N 
HETATM    8  C   UNL     1      49.892 -30.704   0.875  1.00  0.00     0.256 C 
HETATM    9  O   UNL     1      50.939 -30.103   0.663  1.00  0.00    -0.267 OA
HETATM   10  H   UNL     1      48.649 -31.840   2.054  1.00  0.00     0.169 HD
BRANCH   8  11
HETATM   11  C   UNL     1      48.808 -30.611  -0.145  1.00  0.00     0.032 A 
HETATM   12  C   UNL     1      47.737 -31.503  -0.201  1.00  0.00     0.019 A 
HETATM   13  C   UNL     1      46.711 -31.314  -1.142  1.00  0.00     0.031 A 
HETATM   14  C   UNL     1      46.724 -30.244  -2.055  1.00  0.00     0.045 A 
HETATM   15  C   UNL     1      47.835 -29.386  -2.006  1.00  0.00     0.031 A 
HETATM   16  C   UNL     1      48.863 -29.567  -1.069  1.00  0.00     0.019 A 
BRANCH  14  17
HETATM   17  N   UNL     1      45.650 -30.030  -2.982  1.00  0.00    -0.252 N 
HETATM   18  C   UNL     1      45.608 -30.543  -4.262  1.00  0.00     0.231 C 
HETATM   19  O   UNL     1      46.386 -31.300  -4.824  1.00  0.00    -0.273 OA
HETATM   20  C   UNL     1      44.391 -30.018  -4.961  1.00  0.00     0.113 C 
HETATM   21  C   UNL     1      43.549 -29.452  -3.851  1.00  0.00     0.113 C 
HETATM   22  C   UNL     1      44.507 -29.309  -2.707  1.00  0.00     0.231 C 
HETATM   23  O   UNL     1      44.219 -28.645  -1.720  1.00  0.00    -0.273 OA
ENDBRANCH  14  17
ENDBRANCH   8  11
ENDBRANCH   4   7
BRANCH   1  24
HETATM   24  C   UNL     1      52.176 -32.068   7.043  1.00  0.00     0.139 A 
HETATM   25  N   UNL     1      53.324 -31.468   7.513  1.00  0.00    -0.338 N 
HETATM   26  C   UNL     1      53.502 -31.812   8.827  1.00  0.00     0.063 A 
HETATM   27  H   UNL     1      53.910 -30.832   6.994  1.00  0.00     0.167 HD
HETATM   28  C   UNL     1      52.442 -32.662   9.100  1.00  0.00     0.086 A 
HETATM   29  C   UNL     1      54.461 -31.453   9.774  1.00  0.00     0.032 A 
HETATM   30  C   UNL     1      52.309 -33.204  10.387  1.00  0.00     0.040 A 
HETATM   31  N   UNL     1      51.645 -32.819   7.993  1.00  0.00    -0.228 NA
HETATM   32  C   UNL     1      53.255 -32.867  11.371  1.00  0.00    -0.060 A 
HETATM   33  C   UNL     1      53.116 -33.398  12.769  1.00  0.00     0.048 C 
HETATM   34  C   UNL     1      54.310 -31.996  11.057  1.00  0.00     0.009 A 
ENDBRANCH   1  24
TORSDOF 4
ENDMDL
MODEL 10
REMARK VINA RESULT:      -8.1      2.785      3.704
REMARK  4 active torsions:
REMARK  status: ('A' for Active; 'I' for Inactive)
REMARK    1  A    between atoms: C_8  and  C_9 
REMARK    2  A    between atoms: C_12  and  N_13 
REMARK       I    between atoms: N_13  and  C_14 
REMARK    3  A    between atoms: C_14  and  C_15 
REMARK    4  A    between atoms: C_18  and  N_19 
ROOT
HETATM    1  C   UNL     1      42.016 -10.365   7.060  1.00  0.00     0.010 A 
HETATM    2  C   UNL     1      43.279 -10.405   7.661  1.00  0.00     0.017 A 
HETATM    3  C   UNL     1      43.498  -9.819   8.918  1.00  0.00     0.030 A 
HETATM    4  C   UNL     1      42.458  -9.186   9.599  1.00  0.00     0.035 A 
HETATM    5  C   UNL     1      41.209  -9.096   8.980  1.00  0.00     0.030 A 
HETATM    6  C   UNL     1      40.992  -9.677   7.724  1.00  0.00     0.017 A 
ENDROOT
BRANCH   4   7
HETATM    7  N   UNL     1      42.566  -8.672  10.909  1.00  0.00    -0.323 N 
HETATM    8  C   UNL     1      42.674  -9.395  12.085  1.00  0.00     0.256 C 
HETATM    9  O   UNL     1      42.816 -10.607  12.188  1.00  0.00    -0.267 OA
HETATM   10  H   UNL     1      42.421  -7.675  10.988  1.00  0.00     0.169 HD
BRANCH   8  11
HETATM   11  C   UNL     1      42.525  -8.595  13.335  1.00  0.00     0.032 A 
HETATM   12  C   UNL     1      43.331  -7.499  13.638  1.00  0.00     0.019 A 
HETATM   13  C   UNL     1      43.090  -6.745  14.799  1.00  0.00     0.031 A 
HETATM   14  C   UNL     1      42.048  -7.061  15.691  1.00  0.00     0.045 A 
HETATM   15  C   UNL     1      41.279  -8.195  15.384  1.00  0.00     0.031 A 
HETATM   16  C   UNL     1      41.514  -8.953  14.227  1.00  0.00     0.019 A 
BRANCH  14  17
HETATM   17  N   UNL     1      41.777  -6.260  16.849  1.00  0.00    -0.252 N 
HETATM   18  C   UNL     1      41.871  -6.708  18.150  1.00  0.00     0.231 C 
HETATM   19  O   UNL     1      42.249  -7.790  18.577  1.00  0.00    -0.273 OA
HETATM   20  C   UNL     1      41.408  -5.626  19.078  1.00  0.00     0.113 C 
HETATM   21  C   UNL     1      41.388  -4.393  18.216  1.00  0.00     0.113 C 
HETATM   22  C   UNL     1      41.417  -4.929  16.817  1.00  0.00     0.231 C 
HETATM   23  O   UNL     1      41.158  -4.212  15.859  1.00  0.00    -0.273 OA
ENDBRANCH  14  17
ENDBRANCH   8  11
ENDBRANCH   4   7
BRANCH   1  24
HETATM   24  C   UNL     1      41.712 -11.047   5.797  1.00  0.00     0.139 A 
HETATM   25  N   UNL     1      42.200 -10.665   4.565  1.00  0.00    -0.338 N 
HETATM   26  C   UNL     1      41.818 -11.589   3.627  1.00  0.00     0.063 A 
HETATM   27  H   UNL     1      42.791  -9.868   4.389  1.00  0.00     0.167 HD
HETATM   28  C   UNL     1      41.059 -12.503   4.343  1.00  0.00     0.086 A 
HETATM   29  C   UNL     1      42.073 -11.707   2.262  1.00  0.00     0.032 A 
HETATM   30  C   UNL     1      40.508 -13.608   3.679  1.00  0.00     0.040 A 
HETATM   31  N   UNL     1      40.993 -12.150   5.668  1.00  0.00    -0.228 NA
HETATM   32  C   UNL     1      40.743 -13.764   2.301  1.00  0.00    -0.060 A 
HETATM   33  C   UNL     1      40.202 -14.959   1.571  1.00  0.00     0.048 C 
HETATM   34  C   UNL     1      41.523 -12.821   1.614  1.00  0.00     0.009 A 
ENDBRANCH   1  24
TORSDOF 4
ENDMDL
