MODEL 1
REMARK VINA RESULT:      -8.3      0.000      0.000
REMARK  5 active torsions:
REMARK  status: ('A' for Active; 'I' for Inactive)
REMARK    1  A    between atoms: N_3  and  C_4 
REMARK    2  A    between atoms: C_5  and  O_6 
REMARK    3  A    between atoms: C_14  and  C_15 
REMARK    4  A    between atoms: C_15  and  N_16 
REMARK       I    between atoms: N_16  and  C_17 
REMARK       I    between atoms: C_17  and  N_18 
REMARK    5  A    between atoms: N_18  and  C_19 
ROOT
HETATM    1  C   UNL     1      43.554 -14.220   2.034  1.00  0.00     0.068 C 
HETATM    2  C   UNL     1      42.590 -14.348   3.163  1.00  0.00     0.014 A 
HETATM    3  N   UNL     1      42.259 -15.540   3.802  1.00  0.00    -0.317 N 
HETATM    4  C   UNL     1      41.371 -15.234   4.836  1.00  0.00     0.021 A 
HETATM    5  C   UNL     1      40.674 -16.271   5.658  1.00  0.00     0.069 C 
HETATM    6  C   UNL     1      41.248 -13.854   4.927  1.00  0.00    -0.016 A 
HETATM    7  C   UNL     1      41.961 -13.315   3.832  1.00  0.00     0.035 A 
ENDROOT
BRANCH   6   8
HETATM    8  C   UNL     1      40.538 -13.075   5.978  1.00  0.00     0.165 C 
BRANCH   8   9
HETATM    9  N   UNL     1      40.550 -11.669   5.665  1.00  0.00    -0.339 N 
HETATM   10  C   UNL     1      41.395 -10.733   6.184  1.00  0.00     0.316 C 
HETATM   11  N   UNL     1      42.451 -11.232   6.890  1.00  0.00    -0.339 N 
HETATM   12  O   UNL     1      41.164  -9.541   6.025  1.00  0.00    -0.247 OA
HETATM   13  H   UNL     1      42.758 -12.147   6.602  1.00  0.00     0.164 HD
HETATM   14  H   UNL     1      39.731 -11.275   5.218  1.00  0.00     0.164 HD
BRANCH  11  15
HETATM   15  C   UNL     1      43.470 -10.422   7.542  1.00  0.00     0.086 C 
HETATM   16  C   UNL     1      44.829 -11.125   7.661  1.00  0.00     0.025 C 
HETATM   17  C   UNL     1      45.879 -10.187   8.255  1.00  0.00     0.002 C 
HETATM   18  C   UNL     1      45.424  -9.603   9.591  1.00  0.00     0.000 C 
HETATM   19  C   UNL     1      44.059  -8.928   9.485  1.00  0.00     0.002 C 
HETATM   20  C   UNL     1      43.008  -9.866   8.893  1.00  0.00     0.025 C 
ENDBRANCH  11  15
ENDBRANCH   8   9
ENDBRANCH   6   8
BRANCH   3  21
HETATM   21  C   UNL     1      42.855 -16.819   3.580  1.00  0.00     0.072 A 
HETATM   22  C   UNL     1      43.860 -17.339   4.414  1.00  0.00     0.095 A 
HETATM   23  C   UNL     1      44.367 -18.618   4.140  1.00  0.00     0.039 A 
HETATM   24  C   UNL     1      43.876 -19.372   3.071  1.00  0.00     0.003 A 
HETATM   25  C   UNL     1      42.878 -18.855   2.252  1.00  0.00     0.002 A 
HETATM   26  C   UNL     1      42.369 -17.584   2.503  1.00  0.00     0.033 A 
BRANCH  22  27
HETATM   27  O   UNL     1      44.371 -16.532   5.395  1.00  0.00    -0.354 OA
HETATM   28  C   UNL     1      44.124 -16.929   6.740  1.00  0.00     0.210 C 
ENDBRANCH  22  27
ENDBRANCH   3  21
TORSDOF 5
ENDMDL
MODEL 2
REMARK VINA RESULT:      -8.2      3.508      6.228
REMARK  5 active torsions:
REMARK  status: ('A' for Active; 'I' for Inactive)
REMARK    1  A    between atoms: N_3  and  C_4 
REMARK    2  A    between atoms: C_5  and  O_6 
REMARK    3  A    between atoms: C_14  and  C_15 
REMARK    4  A    between atoms: C_15  and  N_16 
REMARK       I    between atoms: N_16  and  C_17 
REMARK       I    between atoms: C_17  and  N_18 
REMARK    5  A    between atoms: N_18  and  C_19 
ROOT
HETATM    1  C   UNL     1      40.410 -16.329   6.050  1.00  0.00     0.068 C 
HETATM    2  C   UNL     1      40.944 -15.177   5.270  1.00  0.00     0.014 A 
HETATM    3  N   UNL     1      41.993 -15.246   4.356  1.00  0.00    -0.317 N 
HETATM    4  C   UNL     1      42.155 -13.975   3.799  1.00  0.00     0.021 A 
HETATM    5  C   UNL     1      43.279 -13.613   2.882  1.00  0.00     0.069 C 
HETATM    6  C   UNL     1      41.137 -13.151   4.262  1.00  0.00    -0.016 A 
HETATM    7  C   UNL     1      40.428 -13.896   5.233  1.00  0.00     0.035 A 
ENDROOT
BRANCH   6   8
HETATM    8  C   UNL     1      40.817 -11.768   3.814  1.00  0.00     0.165 C 
BRANCH   8   9
HETATM    9  N   UNL     1      39.460 -11.690   3.335  1.00  0.00    -0.339 N 
HETATM   10  C   UNL     1      39.039 -11.923   2.060  1.00  0.00     0.316 C 
HETATM   11  N   UNL     1      39.968 -12.491   1.237  1.00  0.00    -0.339 N 
HETATM   12  O   UNL     1      37.908 -11.601   1.717  1.00  0.00    -0.247 OA
HETATM   13  H   UNL     1      40.649 -13.069   1.702  1.00  0.00     0.164 HD
HETATM   14  H   UNL     1      38.784 -11.192   3.902  1.00  0.00     0.164 HD
BRANCH  11  15
HETATM   15  C   UNL     1      39.746 -12.818  -0.165  1.00  0.00     0.086 C 
HETATM   16  C   UNL     1      39.672 -14.326  -0.439  1.00  0.00     0.025 C 
HETATM   17  C   UNL     1      39.332 -14.598  -1.904  1.00  0.00     0.002 C 
HETATM   18  C   UNL     1      40.305 -13.897  -2.850  1.00  0.00     0.000 C 
HETATM   19  C   UNL     1      40.404 -12.401  -2.562  1.00  0.00     0.002 C 
HETATM   20  C   UNL     1      40.746 -12.127  -1.098  1.00  0.00     0.025 C 
ENDBRANCH  11  15
ENDBRANCH   8   9
ENDBRANCH   6   8
BRANCH   3  21
HETATM   21  C   UNL     1      42.663 -16.429   3.915  1.00  0.00     0.072 A 
HETATM   22  C   UNL     1      43.727 -17.004   4.630  1.00  0.00     0.095 A 
HETATM   23  C   UNL     1      44.306 -18.184   4.141  1.00  0.00     0.039 A 
HETATM   24  C   UNL     1      43.827 -18.790   2.976  1.00  0.00     0.003 A 
HETATM   25  C   UNL     1      42.770 -18.220   2.276  1.00  0.00     0.002 A 
HETATM   26  C   UNL     1      42.189 -17.043   2.741  1.00  0.00     0.033 A 
BRANCH  22  27
HETATM   27  O   UNL     1      44.218 -16.330   5.717  1.00  0.00    -0.354 OA
HETATM   28  C   UNL     1      43.960 -16.905   6.993  1.00  0.00     0.210 C 
ENDBRANCH  22  27
ENDBRANCH   3  21
TORSDOF 5
ENDMDL
MODEL 3
REMARK VINA RESULT:      -7.8      1.039      2.184
REMARK  5 active torsions:
REMARK  status: ('A' for Active; 'I' for Inactive)
REMARK    1  A    between atoms: N_3  and  C_4 
REMARK    2  A    between atoms: C_5  and  O_6 
REMARK    3  A    between atoms: C_14  and  C_15 
REMARK    4  A    between atoms: C_15  and  N_16 
REMARK       I    between atoms: N_16  and  C_17 
REMARK       I    between atoms: C_17  and  N_18 
REMARK    5  A    between atoms: N_18  and  C_19 
ROOT
HETATM    1  C   UNL     1      40.196 -16.084   6.325  1.00  0.00     0.068 C 
HETATM    2  C   UNL     1      40.746 -14.877   5.647  1.00  0.00     0.014 A 
HETATM    3  N   UNL     1      41.799 -14.880   4.735  1.00  0.00    -0.317 N 
HETATM    4  C   UNL     1      41.977 -13.568   4.288  1.00  0.00     0.021 A 
HETATM    5  C   UNL     1      43.110 -13.143   3.410  1.00  0.00     0.069 C 
HETATM    6  C   UNL     1      40.964 -12.776   4.813  1.00  0.00    -0.016 A 
HETATM    7  C   UNL     1      40.243 -13.591   5.715  1.00  0.00     0.035 A 
ENDROOT
BRANCH   6   8
HETATM    8  C   UNL     1      40.661 -11.356   4.481  1.00  0.00     0.165 C 
BRANCH   8   9
HETATM    9  N   UNL     1      40.224 -10.642   5.654  1.00  0.00    -0.339 N 
HETATM   10  C   UNL     1      40.998 -10.288   6.718  1.00  0.00     0.316 C 
HETATM   11  N   UNL     1      42.342 -10.439   6.535  1.00  0.00    -0.339 N 
HETATM   12  O   UNL     1      40.476  -9.893   7.753  1.00  0.00    -0.247 OA
HETATM   13  H   UNL     1      42.652 -10.352   5.581  1.00  0.00     0.164 HD
HETATM   14  H   UNL     1      39.229 -10.600   5.842  1.00  0.00     0.164 HD
BRANCH  11  15
HETATM   15  C   UNL     1      43.356 -10.136   7.536  1.00  0.00     0.086 C 
HETATM   16  C   UNL     1      43.493  -8.638   7.835  1.00  0.00     0.025 C 
HETATM   17  C   UNL     1      44.493  -8.396   8.965  1.00  0.00     0.002 C 
HETATM   18  C   UNL     1      45.846  -9.042   8.671  1.00  0.00     0.000 C 
HETATM   19  C   UNL     1      45.712 -10.527   8.343  1.00  0.00     0.002 C 
HETATM   20  C   UNL     1      44.713 -10.769   7.211  1.00  0.00     0.025 C 
ENDBRANCH  11  15
ENDBRANCH   8   9
ENDBRANCH   6   8
BRANCH   3  21
HETATM   21  C   UNL     1      42.458 -16.029   4.200  1.00  0.00     0.072 A 
HETATM   22  C   UNL     1      43.519 -16.667   4.864  1.00  0.00     0.095 A 
HETATM   23  C   UNL     1      44.088 -17.809   4.281  1.00  0.00     0.039 A 
HETATM   24  C   UNL     1      43.604 -18.316   3.072  1.00  0.00     0.003 A 
HETATM   25  C   UNL     1      42.550 -17.684   2.422  1.00  0.00     0.002 A 
HETATM   26  C   UNL     1      41.979 -16.543   2.981  1.00  0.00     0.033 A 
BRANCH  22  27
HETATM   27  O   UNL     1      44.017 -16.086   6.001  1.00  0.00    -0.354 OA
HETATM   28  C   UNL     1      43.848 -16.812   7.214  1.00  0.00     0.210 C 
ENDBRANCH  22  27
ENDBRANCH   3  21
TORSDOF 5
ENDMDL
MODEL 4
REMARK VINA RESULT:      -7.8      2.658      4.188
REMARK  5 active torsions:
REMARK  status: ('A' for Active; 'I' for Inactive)
REMARK    1  A    between atoms: N_3  and  C_4 
REMARK    2  A    between atoms: C_5  and  O_6 
REMARK    3  A    between atoms: C_14  and  C_15 
REMARK    4  A    between atoms: C_15  and  N_16 
REMARK       I    between atoms: N_16  and  C_17 
REMARK       I    between atoms: C_17  and  N_18 
REMARK    5  A    between atoms: N_18  and  C_19 
ROOT
HETATM    1  C   UNL     1      42.828 -16.063   6.914  1.00  0.00     0.068 C 
HETATM    2  C   UNL     1      43.163 -14.700   6.416  1.00  0.00     0.014 A 
HETATM    3  N   UNL     1      42.984 -14.257   5.107  1.00  0.00    -0.317 N 
HETATM    4  C   UNL     1      43.365 -12.914   5.058  1.00  0.00     0.021 A 
HETATM    5  C   UNL     1      43.454 -12.129   3.788  1.00  0.00     0.069 C 
HETATM    6  C   UNL     1      43.655 -12.484   6.346  1.00  0.00    -0.016 A 
HETATM    7  C   UNL     1      43.591 -13.627   7.175  1.00  0.00     0.035 A 
ENDROOT
BRANCH   6   8
HETATM    8  C   UNL     1      43.946 -11.093   6.792  1.00  0.00     0.165 C 
BRANCH   8   9
HETATM    9  N   UNL     1      44.825 -11.099   7.934  1.00  0.00    -0.339 N 
HETATM   10  C   UNL     1      44.570 -10.543   9.151  1.00  0.00     0.316 C 
HETATM   11  N   UNL     1      43.279 -10.146   9.350  1.00  0.00    -0.339 N 
HETATM   12  O   UNL     1      45.475 -10.405   9.965  1.00  0.00    -0.247 OA
HETATM   13  H   UNL     1      42.592 -10.670   8.833  1.00  0.00     0.164 HD
HETATM   14  H   UNL     1      45.804 -11.308   7.778  1.00  0.00     0.164 HD
BRANCH  11  15
HETATM   15  C   UNL     1      42.782  -9.519  10.566  1.00  0.00     0.086 C 
HETATM   16  C   UNL     1      43.270  -8.077  10.756  1.00  0.00     0.025 C 
HETATM   17  C   UNL     1      42.630  -7.442  11.990  1.00  0.00     0.002 C 
HETATM   18  C   UNL     1      42.856  -8.286  13.243  1.00  0.00     0.000 C 
HETATM   19  C   UNL     1      42.399  -9.730  13.049  1.00  0.00     0.002 C 
HETATM   20  C   UNL     1      43.040 -10.367  11.816  1.00  0.00     0.025 C 
ENDBRANCH  11  15
ENDBRANCH   8   9
ENDBRANCH   6   8
BRANCH   3  21
HETATM   21  C   UNL     1      42.350 -14.974   4.046  1.00  0.00     0.072 A 
HETATM   22  C   UNL     1      40.983 -14.832   3.752  1.00  0.00     0.095 A 
HETATM   23  C   UNL     1      40.450 -15.551   2.672  1.00  0.00     0.039 A 
HETATM   24  C   UNL     1      41.260 -16.379   1.889  1.00  0.00     0.003 A 
HETATM   25  C   UNL     1      42.612 -16.510   2.181  1.00  0.00     0.002 A 
HETATM   26  C   UNL     1      43.158 -15.813   3.256  1.00  0.00     0.033 A 
BRANCH  22  27
HETATM   27  O   UNL     1      40.212 -14.079   4.596  1.00  0.00    -0.354 OA
HETATM   28  C   UNL     1      39.720 -12.846   4.081  1.00  0.00     0.210 C 
ENDBRANCH  22  27
ENDBRANCH   3  21
TORSDOF 5
ENDMDL
MODEL 5
REMARK VINA RESULT:      -7.7      2.672      3.973
REMARK  5 active torsions:
REMARK  status: ('A' for Active; 'I' for Inactive)
REMARK    1  A    between atoms: N_3  and  C_4 
REMARK    2  A    between atoms: C_5  and  O_6 
REMARK    3  A    between atoms: C_14  and  C_15 
REMARK    4  A    between atoms: C_15  and  N_16 
REMARK       I    between atoms: N_16  and  C_17 
REMARK       I    between atoms: C_17  and  N_18 
REMARK    5  A    between atoms: N_18  and  C_19 
ROOT
HETATM    1  C   UNL     1      39.825 -12.746   4.209  1.00  0.00     0.068 C 
HETATM    2  C   UNL     1      41.003 -12.498   5.088  1.00  0.00     0.014 A 
HETATM    3  N   UNL     1      42.180 -13.242   5.079  1.00  0.00    -0.317 N 
HETATM    4  C   UNL     1      43.054 -12.664   6.003  1.00  0.00     0.021 A 
HETATM    5  C   UNL     1      44.367 -13.269   6.384  1.00  0.00     0.069 C 
HETATM    6  C   UNL     1      42.482 -11.496   6.489  1.00  0.00    -0.016 A 
HETATM    7  C   UNL     1      41.172 -11.440   5.961  1.00  0.00     0.035 A 
ENDROOT
BRANCH   6   8
HETATM    8  C   UNL     1      43.117 -10.475   7.367  1.00  0.00     0.165 C 
BRANCH   8   9
HETATM    9  N   UNL     1      43.694 -11.094   8.533  1.00  0.00    -0.339 N 
HETATM   10  C   UNL     1      43.568 -10.666   9.821  1.00  0.00     0.316 C 
HETATM   11  N   UNL     1      42.630  -9.695  10.020  1.00  0.00    -0.339 N 
HETATM   12  O   UNL     1      44.288 -11.131  10.696  1.00  0.00    -0.247 OA
HETATM   13  H   UNL     1      41.860  -9.710   9.371  1.00  0.00     0.164 HD
HETATM   14  H   UNL     1      44.452 -11.753   8.395  1.00  0.00     0.164 HD
BRANCH  11  15
HETATM   15  C   UNL     1      42.332  -9.081  11.307  1.00  0.00     0.086 C 
HETATM   16  C   UNL     1      43.573  -8.553  12.037  1.00  0.00     0.025 C 
HETATM   17  C   UNL     1      43.183  -7.829  13.325  1.00  0.00     0.002 C 
HETATM   18  C   UNL     1      42.324  -8.710  14.231  1.00  0.00     0.000 C 
HETATM   19  C   UNL     1      41.103  -9.262  13.500  1.00  0.00     0.002 C 
HETATM   20  C   UNL     1      41.492  -9.988  12.213  1.00  0.00     0.025 C 
ENDBRANCH  11  15
ENDBRANCH   8   9
ENDBRANCH   6   8
BRANCH   3  21
HETATM   21  C   UNL     1      42.520 -14.287   4.165  1.00  0.00     0.072 A 
HETATM   22  C   UNL     1      42.315 -15.645   4.461  1.00  0.00     0.095 A 
HETATM   23  C   UNL     1      42.649 -16.603   3.493  1.00  0.00     0.039 A 
HETATM   24  C   UNL     1      43.159 -16.219   2.249  1.00  0.00     0.003 A 
HETATM   25  C   UNL     1      43.355 -14.874   1.959  1.00  0.00     0.002 A 
HETATM   26  C   UNL     1      43.039 -13.910   2.912  1.00  0.00     0.033 A 
BRANCH  22  27
HETATM   27  O   UNL     1      41.894 -15.978   5.722  1.00  0.00    -0.354 OA
HETATM   28  C   UNL     1      42.758 -16.817   6.481  1.00  0.00     0.210 C 
ENDBRANCH  22  27
ENDBRANCH   3  21
TORSDOF 5
ENDMDL
MODEL 6
REMARK VINA RESULT:      -7.6      3.572      8.237
REMARK  5 active torsions:
REMARK  status: ('A' for Active; 'I' for Inactive)
REMARK    1  A    between atoms: N_3  and  C_4 
REMARK    2  A    between atoms: C_5  and  O_6 
REMARK    3  A    between atoms: C_14  and  C_15 
REMARK    4  A    between atoms: C_15  and  N_16 
REMARK       I    between atoms: N_16  and  C_17 
REMARK       I    between atoms: C_17  and  N_18 
REMARK    5  A    between atoms: N_18  and  C_19 
ROOT
HETATM    1  C   UNL     1      42.989 -14.717   7.193  1.00  0.00     0.068 C 
HETATM    2  C   UNL     1      42.948 -14.163   5.811  1.00  0.00     0.014 A 
HETATM    3  N   UNL     1      43.281 -12.857   5.461  1.00  0.00    -0.317 N 
HETATM    4  C   UNL     1      43.166 -12.747   4.073  1.00  0.00     0.021 A 
HETATM    5  C   UNL     1      43.300 -11.454   3.334  1.00  0.00     0.069 C 
HETATM    6  C   UNL     1      42.892 -14.003   3.546  1.00  0.00    -0.016 A 
HETATM    7  C   UNL     1      42.690 -14.865   4.648  1.00  0.00     0.035 A 
ENDROOT
BRANCH   6   8
HETATM    8  C   UNL     1      42.848 -14.392   2.110  1.00  0.00     0.165 C 
BRANCH   8   9
HETATM    9  N   UNL     1      41.841 -15.399   1.887  1.00  0.00    -0.339 N 
HETATM   10  C   UNL     1      40.752 -15.285   1.076  1.00  0.00     0.316 C 
HETATM   11  N   UNL     1      40.755 -14.200   0.248  1.00  0.00    -0.339 N 
HETATM   12  O   UNL     1      39.847 -16.108   1.144  1.00  0.00    -0.247 OA
HETATM   13  H   UNL     1      41.670 -13.872  -0.016  1.00  0.00     0.164 HD
HETATM   14  H   UNL     1      41.778 -16.162   2.550  1.00  0.00     0.164 HD
BRANCH  11  15
HETATM   15  C   UNL     1      39.693 -13.871  -0.693  1.00  0.00     0.086 C 
HETATM   16  C   UNL     1      40.117 -13.990  -2.162  1.00  0.00     0.025 C 
HETATM   17  C   UNL     1      38.933 -13.736  -3.094  1.00  0.00     0.002 C 
HETATM   18  C   UNL     1      38.262 -12.394  -2.804  1.00  0.00     0.000 C 
HETATM   19  C   UNL     1      37.865 -12.259  -1.336  1.00  0.00     0.002 C 
HETATM   20  C   UNL     1      39.049 -12.511  -0.403  1.00  0.00     0.025 C 
ENDBRANCH  11  15
ENDBRANCH   8   9
ENDBRANCH   6   8
BRANCH   3  21
HETATM   21  C   UNL     1      43.825 -11.857   6.324  1.00  0.00     0.072 A 
HETATM   22  C   UNL     1      43.024 -10.896   6.965  1.00  0.00     0.095 A 
HETATM   23  C   UNL     1      43.639  -9.970   7.821  1.00  0.00     0.039 A 
HETATM   24  C   UNL     1      45.018 -10.008   8.048  1.00  0.00     0.003 A 
HETATM   25  C   UNL     1      45.805 -10.964   7.416  1.00  0.00     0.002 A 
HETATM   26  C   UNL     1      45.213 -11.885   6.556  1.00  0.00     0.033 A 
BRANCH  22  27
HETATM   27  O   UNL     1      41.694 -10.843   6.645  1.00  0.00    -0.354 OA
HETATM   28  C   UNL     1      41.200  -9.592   6.177  1.00  0.00     0.210 C 
ENDBRANCH  22  27
ENDBRANCH   3  21
TORSDOF 5
ENDMDL
MODEL 7
REMARK VINA RESULT:      -7.5      2.600      4.094
REMARK  5 active torsions:
REMARK  status: ('A' for Active; 'I' for Inactive)
REMARK    1  A    between atoms: N_3  and  C_4 
REMARK    2  A    between atoms: C_5  and  O_6 
REMARK    3  A    between atoms: C_14  and  C_15 
REMARK    4  A    between atoms: C_15  and  N_16 
REMARK       I    between atoms: N_16  and  C_17 
REMARK       I    between atoms: C_17  and  N_18 
REMARK    5  A    between atoms: N_18  and  C_19 
ROOT
HETATM    1  C   UNL     1      39.346 -12.129   4.547  1.00  0.00     0.068 C 
HETATM    2  C   UNL     1      40.531 -12.942   4.941  1.00  0.00     0.014 A 
HETATM    3  N   UNL     1      41.163 -13.882   4.131  1.00  0.00    -0.317 N 
HETATM    4  C   UNL     1      42.257 -14.385   4.839  1.00  0.00     0.021 A 
HETATM    5  C   UNL     1      43.098 -15.524   4.356  1.00  0.00     0.069 C 
HETATM    6  C   UNL     1      42.386 -13.676   6.025  1.00  0.00    -0.016 A 
HETATM    7  C   UNL     1      41.261 -12.824   6.108  1.00  0.00     0.035 A 
ENDROOT
BRANCH   6   8
HETATM    8  C   UNL     1      43.498 -13.757   7.012  1.00  0.00     0.165 C 
BRANCH   8   9
HETATM    9  N   UNL     1      44.516 -12.782   6.712  1.00  0.00    -0.339 N 
HETATM   10  C   UNL     1      44.663 -11.561   7.298  1.00  0.00     0.316 C 
HETATM   11  N   UNL     1      43.903 -11.358   8.414  1.00  0.00    -0.339 N 
HETATM   12  O   UNL     1      45.414 -10.729   6.806  1.00  0.00    -0.247 OA
HETATM   13  H   UNL     1      43.683 -12.191   8.934  1.00  0.00     0.164 HD
HETATM   14  H   UNL     1      45.025 -12.880   5.841  1.00  0.00     0.164 HD
BRANCH  11  15
HETATM   15  C   UNL     1      43.888 -10.129   9.195  1.00  0.00     0.086 C 
HETATM   16  C   UNL     1      43.799 -10.365  10.708  1.00  0.00     0.025 C 
HETATM   17  C   UNL     1      43.894  -9.045  11.473  1.00  0.00     0.002 C 
HETATM   18  C   UNL     1      42.850  -8.037  10.994  1.00  0.00     0.000 C 
HETATM   19  C   UNL     1      42.915  -7.821   9.484  1.00  0.00     0.002 C 
HETATM   20  C   UNL     1      42.818  -9.140   8.718  1.00  0.00     0.025 C 
ENDBRANCH  11  15
ENDBRANCH   8   9
ENDBRANCH   6   8
BRANCH   3  21
HETATM   21  C   UNL     1      40.874 -14.154   2.758  1.00  0.00     0.072 A 
HETATM   22  C   UNL     1      41.390 -13.373   1.709  1.00  0.00     0.095 A 
HETATM   23  C   UNL     1      41.081 -13.731   0.389  1.00  0.00     0.039 A 
HETATM   24  C   UNL     1      40.290 -14.850   0.114  1.00  0.00     0.003 A 
HETATM   25  C   UNL     1      39.787 -15.622   1.155  1.00  0.00     0.002 A 
HETATM   26  C   UNL     1      40.075 -15.277   2.472  1.00  0.00     0.033 A 
BRANCH  22  27
HETATM   27  O   UNL     1      42.088 -12.238   2.028  1.00  0.00    -0.354 OA
HETATM   28  C   UNL     1      41.514 -11.001   1.618  1.00  0.00     0.210 C 
ENDBRANCH  22  27
ENDBRANCH   3  21
TORSDOF 5
ENDMDL
MODEL 8
REMARK VINA RESULT:      -7.5      3.057      9.330
REMARK  5 active torsions:
REMARK  status: ('A' for Active; 'I' for Inactive)
REMARK    1  A    between atoms: N_3  and  C_4 
REMARK    2  A    between atoms: C_5  and  O_6 
REMARK    3  A    between atoms: C_14  and  C_15 
REMARK    4  A    between atoms: C_15  and  N_16 
REMARK       I    between atoms: N_16  and  C_17 
REMARK       I    between atoms: C_17  and  N_18 
REMARK    5  A    between atoms: N_18  and  C_19 
ROOT
HETATM    1  C   UNL     1      42.924  -6.494   9.773  1.00  0.00     0.068 C 
HETATM    2  C   UNL     1      43.592  -7.825   9.805  1.00  0.00     0.014 A 
HETATM    3  N   UNL     1      43.504  -8.741  10.851  1.00  0.00    -0.317 N 
HETATM    4  C   UNL     1      44.222  -9.881  10.479  1.00  0.00     0.021 A 
HETATM    5  C   UNL     1      44.482 -11.028  11.402  1.00  0.00     0.069 C 
HETATM    6  C   UNL     1      44.645  -9.733   9.165  1.00  0.00    -0.016 A 
HETATM    7  C   UNL     1      44.304  -8.417   8.779  1.00  0.00     0.035 A 
ENDROOT
BRANCH   6   8
HETATM    8  C   UNL     1      45.299 -10.757   8.304  1.00  0.00     0.165 C 
BRANCH   8   9
HETATM    9  N   UNL     1      44.945 -10.560   6.921  1.00  0.00    -0.339 N 
HETATM   10  C   UNL     1      44.391 -11.487   6.090  1.00  0.00     0.316 C 
HETATM   11  N   UNL     1      43.941 -12.621   6.702  1.00  0.00    -0.339 N 
HETATM   12  O   UNL     1      44.350 -11.283   4.883  1.00  0.00    -0.247 OA
HETATM   13  H   UNL     1      43.646 -12.497   7.657  1.00  0.00     0.164 HD
HETATM   14  H   UNL     1      45.347  -9.766   6.436  1.00  0.00     0.164 HD
BRANCH  11  15
HETATM   15  C   UNL     1      43.326 -13.747   6.014  1.00  0.00     0.086 C 
HETATM   16  C   UNL     1      41.792 -13.706   6.019  1.00  0.00     0.025 C 
HETATM   17  C   UNL     1      41.213 -14.854   5.193  1.00  0.00     0.002 C 
HETATM   18  C   UNL     1      41.745 -16.209   5.656  1.00  0.00     0.000 C 
HETATM   19  C   UNL     1      43.271 -16.245   5.682  1.00  0.00     0.002 C 
HETATM   20  C   UNL     1      43.851 -15.099   6.509  1.00  0.00     0.025 C 
ENDBRANCH  11  15
ENDBRANCH   8   9
ENDBRANCH   6   8
BRANCH   3  21
HETATM   21  C   UNL     1      42.680  -8.630  12.013  1.00  0.00     0.072 A 
HETATM   22  C   UNL     1      41.383  -9.167  12.072  1.00  0.00     0.095 A 
HETATM   23  C   UNL     1      40.655  -9.039  13.264  1.00  0.00     0.039 A 
HETATM   24  C   UNL     1      41.210  -8.405  14.380  1.00  0.00     0.003 A 
HETATM   25  C   UNL     1      42.495  -7.880  14.318  1.00  0.00     0.002 A 
HETATM   26  C   UNL     1      43.229  -7.989  13.140  1.00  0.00     0.033 A 
BRANCH  22  27
HETATM   27  O   UNL     1      40.849  -9.702  10.930  1.00  0.00    -0.354 OA
HETATM   28  C   UNL     1      39.808  -8.960  10.304  1.00  0.00     0.210 C 
ENDBRANCH  22  27
ENDBRANCH   3  21
TORSDOF 5
ENDMDL
MODEL 9
REMARK VINA RESULT:      -7.5      2.278      8.887
REMARK  5 active torsions:
REMARK  status: ('A' for Active; 'I' for Inactive)
REMARK    1  A    between atoms: N_3  and  C_4 
REMARK    2  A    between atoms: C_5  and  O_6 
REMARK    3  A    between atoms: C_14  and  C_15 
REMARK    4  A    between atoms: C_15  and  N_16 
REMARK       I    between atoms: N_16  and  C_17 
REMARK       I    between atoms: C_17  and  N_18 
REMARK    5  A    between atoms: N_18  and  C_19 
ROOT
HETATM    1  C   UNL     1      45.485 -10.060   9.886  1.00  0.00     0.068 C 
HETATM    2  C   UNL     1      44.377 -10.331   8.926  1.00  0.00     0.014 A 
HETATM    3  N   UNL     1      43.204  -9.586   8.825  1.00  0.00    -0.317 N 
HETATM    4  C   UNL     1      42.450 -10.122   7.778  1.00  0.00     0.021 A 
HETATM    5  C   UNL     1      41.057  -9.684   7.458  1.00  0.00     0.069 C 
HETATM    6  C   UNL     1      43.199 -11.107   7.147  1.00  0.00    -0.016 A 
HETATM    7  C   UNL     1      44.373 -11.274   7.916  1.00  0.00     0.035 A 
ENDROOT
BRANCH   6   8
HETATM    8  C   UNL     1      42.865 -11.831   5.889  1.00  0.00     0.165 C 
BRANCH   8   9
HETATM    9  N   UNL     1      41.727 -12.692   6.085  1.00  0.00    -0.339 N 
HETATM   10  C   UNL     1      41.589 -13.966   5.622  1.00  0.00     0.316 C 
HETATM   11  N   UNL     1      42.728 -14.528   5.123  1.00  0.00    -0.339 N 
HETATM   12  O   UNL     1      40.495 -14.515   5.648  1.00  0.00    -0.247 OA
HETATM   13  H   UNL     1      43.583 -14.183   5.527  1.00  0.00     0.164 HD
HETATM   14  H   UNL     1      40.853 -12.267   6.373  1.00  0.00     0.164 HD
BRANCH  11  15
HETATM   15  C   UNL     1      42.816 -15.871   4.565  1.00  0.00     0.086 C 
HETATM   16  C   UNL     1      43.948 -16.712   5.166  1.00  0.00     0.025 C 
HETATM   17  C   UNL     1      43.919 -18.139   4.618  1.00  0.00     0.002 C 
HETATM   18  C   UNL     1      43.948 -18.158   3.090  1.00  0.00     0.000 C 
HETATM   19  C   UNL     1      42.841 -17.298   2.487  1.00  0.00     0.002 C 
HETATM   20  C   UNL     1      42.870 -15.871   3.033  1.00  0.00     0.025 C 
ENDBRANCH  11  15
ENDBRANCH   8   9
ENDBRANCH   6   8
BRANCH   3  21
HETATM   21  C   UNL     1      42.899  -8.379   9.526  1.00  0.00     0.072 A 
HETATM   22  C   UNL     1      42.248  -8.372  10.771  1.00  0.00     0.095 A 
HETATM   23  C   UNL     1      42.017  -7.142  11.403  1.00  0.00     0.039 A 
HETATM   24  C   UNL     1      42.438  -5.944  10.819  1.00  0.00     0.003 A 
HETATM   25  C   UNL     1      43.087  -5.956   9.590  1.00  0.00     0.002 A 
HETATM   26  C   UNL     1      43.316  -7.167   8.943  1.00  0.00     0.033 A 
BRANCH  22  27
HETATM   27  O   UNL     1      41.778  -9.561  11.263  1.00  0.00    -0.354 OA
HETATM   28  C   UNL     1      42.448 -10.088  12.403  1.00  0.00     0.210 C 
ENDBRANCH  22  27
ENDBRANCH   3  21
TORSDOF 5
ENDMDL
MODEL 10
REMARK VINA RESULT:      -7.2      4.782      7.327
REMARK  5 active torsions:
REMARK  status: ('A' for Active; 'I' for Inactive)
REMARK    1  A    between atoms: N_3  and  C_4 
REMARK    2  A    between atoms: C_5  and  O_6 
REMARK    3  A    between atoms: C_14  and  C_15 
REMARK    4  A    between atoms: C_15  and  N_16 
REMARK       I    between atoms: N_16  and  C_17 
REMARK       I    between atoms: C_17  and  N_18 
REMARK    5  A    between atoms: N_18  and  C_19 
ROOT
HETATM    1  C   UNL     1      40.206 -16.392   4.804  1.00  0.00     0.068 C 
HETATM    2  C   UNL     1      40.902 -15.655   3.712  1.00  0.00     0.014 A 
HETATM    3  N   UNL     1      42.129 -16.013   3.159  1.00  0.00    -0.317 N 
HETATM    4  C   UNL     1      42.413 -15.108   2.133  1.00  0.00     0.021 A 
HETATM    5  C   UNL     1      43.715 -15.076   1.398  1.00  0.00     0.069 C 
HETATM    6  C   UNL     1      41.317 -14.273   1.958  1.00  0.00    -0.016 A 
HETATM    7  C   UNL     1      40.408 -14.581   2.997  1.00  0.00     0.035 A 
ENDROOT
BRANCH   6   8
HETATM    8  C   UNL     1      41.107 -13.269   0.880  1.00  0.00     0.165 C 
BRANCH   8   9
HETATM    9  N   UNL     1      40.785 -13.919  -0.365  1.00  0.00    -0.339 N 
HETATM   10  C   UNL     1      40.360 -13.311  -1.508  1.00  0.00     0.316 C 
HETATM   11  N   UNL     1      40.468 -11.950  -1.516  1.00  0.00    -0.339 N 
HETATM   12  O   UNL     1      39.896 -13.979  -2.424  1.00  0.00    -0.247 OA
HETATM   13  H   UNL     1      41.209 -11.581  -0.943  1.00  0.00     0.164 HD
HETATM   14  H   UNL     1      40.619 -14.919  -0.349  1.00  0.00     0.164 HD
BRANCH  11  15
HETATM   15  C   UNL     1      40.065 -11.092  -2.621  1.00  0.00     0.086 C 
HETATM   16  C   UNL     1      41.013  -9.909  -2.856  1.00  0.00     0.025 C 
HETATM   17  C   UNL     1      40.596  -9.112  -4.091  1.00  0.00     0.002 C 
HETATM   18  C   UNL     1      39.138  -8.662  -4.009  1.00  0.00     0.000 C 
HETATM   19  C   UNL     1      38.194  -9.833  -3.746  1.00  0.00     0.002 C 
HETATM   20  C   UNL     1      38.609 -10.629  -2.510  1.00  0.00     0.025 C 
ENDBRANCH  11  15
ENDBRANCH   8   9
ENDBRANCH   6   8
BRANCH   3  21
HETATM   21  C   UNL     1      42.880 -17.195   3.445  1.00  0.00     0.072 A 
HETATM   22  C   UNL     1      43.645 -17.338   4.615  1.00  0.00     0.095 A 
HETATM   23  C   UNL     1      44.326 -18.545   4.830  1.00  0.00     0.039 A 
HETATM   24  C   UNL     1      44.235 -19.595   3.912  1.00  0.00     0.003 A 
HETATM   25  C   UNL     1      43.472 -19.450   2.759  1.00  0.00     0.002 A 
HETATM   26  C   UNL     1      42.798 -18.255   2.523  1.00  0.00     0.033 A 
BRANCH  22  27
HETATM   27  O   UNL     1      43.774 -16.254   5.442  1.00  0.00    -0.354 OA
HETATM   28  C   UNL     1      43.395 -16.442   6.802  1.00  0.00     0.210 C 
ENDBRANCH  22  27
ENDBRANCH   3  21
TORSDOF 5
ENDMDL
