MODEL 1
REMARK VINA RESULT:      -7.8      0.000      0.000
REMARK  4 active torsions:
REMARK  status: ('A' for Active; 'I' for Inactive)
REMARK    1  A    between atoms: C_2  and  O_3 
REMARK    2  A    between atoms: C_2  and  C_12 
REMARK    3  A    between atoms: O_3  and  C_4 
REMARK       I    between atoms: C_12  and  N_13 
REMARK    4  A    between atoms: N_13  and  C_14 
ROOT
HETATM    1  C   UNL     1      40.713 -15.720   6.593  1.00  0.00     0.050 C 
HETATM    2  C   UNL     1      42.203 -15.982   6.402  1.00  0.00     0.217 C 
ENDROOT
BRANCH   2   3
HETATM    3  O   UNL     1      42.536 -15.841   5.017  1.00  0.00    -0.336 OA
BRANCH   3   4
HETATM    4  C   UNL     1      43.021 -16.914   4.321  1.00  0.00     0.087 A 
HETATM    5  C   UNL     1      42.445 -17.154   3.058  1.00  0.00     0.047 A 
HETATM    6 BR   UNL     1      41.095 -16.010   2.360  1.00  0.00    -0.048 Br
HETATM    7  C   UNL     1      42.854 -18.235   2.276  1.00  0.00     0.064 A 
HETATM    8  C   UNL     1      43.841 -19.082   2.759  1.00  0.00     0.117 A 
HETATM    9  F   UNL     1      44.238 -20.122   2.016  1.00  0.00    -0.206 F 
HETATM   10  C   UNL     1      44.419 -18.870   4.003  1.00  0.00     0.045 A 
HETATM   11  C   UNL     1      44.008 -17.789   4.788  1.00  0.00     0.041 A 
ENDBRANCH   3   4
ENDBRANCH   2   3
BRANCH   2  12
HETATM   12  C   UNL     1      42.989 -14.939   7.223  1.00  0.00     0.252 C 
HETATM   13  N   UNL     1      43.334 -13.827   6.478  1.00  0.00    -0.309 N 
HETATM   14  H   UNL     1      43.079 -13.860   5.497  1.00  0.00     0.170 HD
HETATM   15  O   UNL     1      43.226 -15.140   8.412  1.00  0.00    -0.270 OA
BRANCH  13  16
HETATM   16  C   UNL     1      44.011 -12.699   6.942  1.00  0.00     0.129 A 
HETATM   17  N   UNL     1      43.645 -12.096   8.086  1.00  0.00    -0.242 NA
HETATM   18  C   UNL     1      44.341 -11.002   8.478  1.00  0.00     0.142 A 
HETATM   19  C   UNL     1      45.403 -10.471   7.767  1.00  0.00     0.051 A 
HETATM   20 CL   UNL     1      46.238  -9.080   8.323  1.00  0.00    -0.083 Cl
HETATM   21  C   UNL     1      45.775 -11.098   6.587  1.00  0.00     0.029 A 
HETATM   22  C   UNL     1      45.070 -12.228   6.167  1.00  0.00     0.052 A 
ENDBRANCH  13  16
ENDBRANCH   2  12
TORSDOF 4
ENDMDL
MODEL 2
REMARK VINA RESULT:      -7.7      5.602      7.461
REMARK  4 active torsions:
REMARK  status: ('A' for Active; 'I' for Inactive)
REMARK    1  A    between atoms: C_2  and  O_3 
REMARK    2  A    between atoms: C_2  and  C_12 
REMARK    3  A    between atoms: O_3  and  C_4 
REMARK       I    between atoms: C_12  and  N_13 
REMARK    4  A    between atoms: N_13  and  C_14 
ROOT
HETATM    1  C   UNL     1      43.132 -14.465   1.879  1.00  0.00     0.050 C 
HETATM    2  C   UNL     1      42.217 -15.683   1.832  1.00  0.00     0.217 C 
ENDROOT
BRANCH   2   3
HETATM    3  O   UNL     1      42.047 -16.200   3.156  1.00  0.00    -0.336 OA
BRANCH   3   4
HETATM    4  C   UNL     1      42.762 -17.295   3.557  1.00  0.00     0.087 A 
HETATM    5  C   UNL     1      43.084 -17.368   4.925  1.00  0.00     0.047 A 
HETATM    6 BR   UNL     1      42.508 -16.024   6.143  1.00  0.00    -0.048 Br
HETATM    7  C   UNL     1      43.827 -18.434   5.433  1.00  0.00     0.064 A 
HETATM    8  C   UNL     1      44.255 -19.431   4.569  1.00  0.00     0.117 A 
HETATM    9  F   UNL     1      44.970 -20.456   5.047  1.00  0.00    -0.206 F 
HETATM   10  C   UNL     1      43.956 -19.378   3.213  1.00  0.00     0.045 A 
HETATM   11  C   UNL     1      43.213 -18.310   2.704  1.00  0.00     0.041 A 
ENDBRANCH   3   4
ENDBRANCH   2   3
BRANCH   2  12
HETATM   12  C   UNL     1      40.847 -15.241   1.278  1.00  0.00     0.252 C 
HETATM   13  N   UNL     1      40.962 -14.388   0.197  1.00  0.00    -0.309 N 
HETATM   14  H   UNL     1      41.907 -14.124  -0.056  1.00  0.00     0.170 HD
HETATM   15  O   UNL     1      39.811 -15.663   1.785  1.00  0.00    -0.270 OA
BRANCH  13  16
HETATM   16  C   UNL     1      39.910 -13.847  -0.544  1.00  0.00     0.129 A 
HETATM   17  N   UNL     1      39.345 -12.679  -0.190  1.00  0.00    -0.242 NA
HETATM   18  C   UNL     1      38.325 -12.212  -0.949  1.00  0.00     0.142 A 
HETATM   19  C   UNL     1      37.833 -12.867  -2.063  1.00  0.00     0.051 A 
HETATM   20 CL   UNL     1      36.536 -12.216  -2.977  1.00  0.00    -0.083 Cl
HETATM   21  C   UNL     1      38.420 -14.072  -2.422  1.00  0.00     0.029 A 
HETATM   22  C   UNL     1      39.473 -14.570  -1.652  1.00  0.00     0.052 A 
ENDBRANCH  13  16
ENDBRANCH   2  12
TORSDOF 4
ENDMDL
MODEL 3
REMARK VINA RESULT:      -7.4      1.924      2.316
REMARK  4 active torsions:
REMARK  status: ('A' for Active; 'I' for Inactive)
REMARK    1  A    between atoms: C_2  and  O_3 
REMARK    2  A    between atoms: C_2  and  C_12 
REMARK    3  A    between atoms: O_3  and  C_4 
REMARK       I    between atoms: C_12  and  N_13 
REMARK    4  A    between atoms: N_13  and  C_14 
ROOT
HETATM    1  C   UNL     1      40.900 -14.639   3.061  1.00  0.00     0.050 C 
HETATM    2  C   UNL     1      41.667 -15.354   4.167  1.00  0.00     0.217 C 
ENDROOT
BRANCH   2   3
HETATM    3  O   UNL     1      42.942 -15.773   3.667  1.00  0.00    -0.336 OA
BRANCH   3   4
HETATM    4  C   UNL     1      43.188 -17.102   3.460  1.00  0.00     0.087 A 
HETATM    5  C   UNL     1      43.903 -17.772   4.472  1.00  0.00     0.047 A 
HETATM    6 BR   UNL     1      44.450 -16.866   6.053  1.00  0.00    -0.048 Br
HETATM    7  C   UNL     1      44.224 -19.125   4.349  1.00  0.00     0.064 A 
HETATM    8  C   UNL     1      43.832 -19.811   3.209  1.00  0.00     0.117 A 
HETATM    9  F   UNL     1      44.138 -21.107   3.083  1.00  0.00    -0.206 F 
HETATM   10  C   UNL     1      43.133 -19.171   2.195  1.00  0.00     0.045 A 
HETATM   11  C   UNL     1      42.813 -17.815   2.316  1.00  0.00     0.041 A 
ENDBRANCH   3   4
ENDBRANCH   2   3
BRANCH   2  12
HETATM   12  C   UNL     1      41.877 -14.364   5.331  1.00  0.00     0.252 C 
HETATM   13  N   UNL     1      42.823 -13.398   5.042  1.00  0.00    -0.309 N 
HETATM   14  H   UNL     1      43.285 -13.491   4.144  1.00  0.00     0.170 HD
HETATM   15  O   UNL     1      41.222 -14.476   6.364  1.00  0.00    -0.270 OA
BRANCH  13  16
HETATM   16  C   UNL     1      43.208 -12.344   5.871  1.00  0.00     0.129 A 
HETATM   17  N   UNL     1      42.479 -11.216   5.938  1.00  0.00    -0.242 NA
HETATM   18  C   UNL     1      42.910 -10.229   6.758  1.00  0.00     0.142 A 
HETATM   19  C   UNL     1      44.057 -10.315   7.527  1.00  0.00     0.051 A 
HETATM   20 CL   UNL     1      44.544  -9.022   8.543  1.00  0.00    -0.083 Cl
HETATM   21  C   UNL     1      44.805 -11.481   7.454  1.00  0.00     0.029 A 
HETATM   22  C   UNL     1      44.376 -12.510   6.613  1.00  0.00     0.052 A 
ENDBRANCH  13  16
ENDBRANCH   2  12
TORSDOF 4
ENDMDL
MODEL 4
REMARK VINA RESULT:      -7.3      4.914      6.472
REMARK  4 active torsions:
REMARK  status: ('A' for Active; 'I' for Inactive)
REMARK    1  A    between atoms: C_2  and  O_3 
REMARK    2  A    between atoms: C_2  and  C_12 
REMARK    3  A    between atoms: O_3  and  C_4 
REMARK       I    between atoms: C_12  and  N_13 
REMARK    4  A    between atoms: N_13  and  C_14 
ROOT
HETATM    1  C   UNL     1      42.654 -13.251   5.201  1.00  0.00     0.050 C 
HETATM    2  C   UNL     1      42.539 -14.240   4.047  1.00  0.00     0.217 C 
ENDROOT
BRANCH   2   3
HETATM    3  O   UNL     1      42.177 -15.527   4.559  1.00  0.00    -0.336 OA
BRANCH   3   4
HETATM    4  C   UNL     1      42.663 -16.659   3.965  1.00  0.00     0.087 A 
HETATM    5  C   UNL     1      43.732 -17.301   4.620  1.00  0.00     0.047 A 
HETATM    6 BR   UNL     1      44.419 -16.635   6.266  1.00  0.00    -0.048 Br
HETATM    7  C   UNL     1      44.314 -18.451   4.088  1.00  0.00     0.064 A 
HETATM    8  C   UNL     1      43.829 -18.961   2.892  1.00  0.00     0.117 A 
HETATM    9  F   UNL     1      44.383 -20.063   2.373  1.00  0.00    -0.206 F 
HETATM   10  C   UNL     1      42.781 -18.342   2.224  1.00  0.00     0.045 A 
HETATM   11  C   UNL     1      42.199 -17.189   2.757  1.00  0.00     0.041 A 
ENDBRANCH   3   4
ENDBRANCH   2   3
BRANCH   2  12
HETATM   12  C   UNL     1      41.436 -13.744   3.089  1.00  0.00     0.252 C 
HETATM   13  N   UNL     1      41.787 -13.880   1.760  1.00  0.00    -0.309 N 
HETATM   14  H   UNL     1      42.722 -14.230   1.586  1.00  0.00     0.170 HD
HETATM   15  O   UNL     1      40.379 -13.308   3.538  1.00  0.00    -0.270 OA
BRANCH  13  16
HETATM   16  C   UNL     1      40.993 -13.558   0.658  1.00  0.00     0.129 A 
HETATM   17  N   UNL     1      40.913 -12.293   0.210  1.00  0.00    -0.242 NA
HETATM   18  C   UNL     1      40.120 -12.048  -0.860  1.00  0.00     0.142 A 
HETATM   19  C   UNL     1      39.389 -13.022  -1.515  1.00  0.00     0.051 A 
HETATM   20 CL   UNL     1      38.403 -12.637  -2.864  1.00  0.00    -0.083 Cl
HETATM   21  C   UNL     1      39.474 -14.325  -1.047  1.00  0.00     0.029 A 
HETATM   22  C   UNL     1      40.287 -14.599   0.055  1.00  0.00     0.052 A 
ENDBRANCH  13  16
ENDBRANCH   2  12
TORSDOF 4
ENDMDL
MODEL 5
REMARK VINA RESULT:      -7.0      5.800      7.673
REMARK  4 active torsions:
REMARK  status: ('A' for Active; 'I' for Inactive)
REMARK    1  A    between atoms: C_2  and  O_3 
REMARK    2  A    between atoms: C_2  and  C_12 
REMARK    3  A    between atoms: O_3  and  C_4 
REMARK       I    between atoms: C_12  and  N_13 
REMARK    4  A    between atoms: N_13  and  C_14 
ROOT
HETATM    1  C   UNL     1      43.020 -14.923   1.883  1.00  0.00     0.050 C 
HETATM    2  C   UNL     1      41.936 -15.966   1.638  1.00  0.00     0.217 C 
ENDROOT
BRANCH   2   3
HETATM    3  O   UNL     1      41.692 -16.691   2.849  1.00  0.00    -0.336 OA
BRANCH   3   4
HETATM    4  C   UNL     1      42.555 -16.566   3.903  1.00  0.00     0.087 A 
HETATM    5  C   UNL     1      43.538 -17.566   4.030  1.00  0.00     0.047 A 
HETATM    6 BR   UNL     1      43.667 -18.984   2.767  1.00  0.00    -0.048 Br
HETATM    7  C   UNL     1      44.454 -17.543   5.081  1.00  0.00     0.064 A 
HETATM    8  C   UNL     1      44.386 -16.518   6.013  1.00  0.00     0.117 A 
HETATM    9  F   UNL     1      45.260 -16.489   7.027  1.00  0.00    -0.206 F 
HETATM   10  C   UNL     1      43.421 -15.524   5.913  1.00  0.00     0.045 A 
HETATM   11  C   UNL     1      42.502 -15.548   4.861  1.00  0.00     0.041 A 
ENDBRANCH   3   4
ENDBRANCH   2   3
BRANCH   2  12
HETATM   12  C   UNL     1      40.646 -15.236   1.212  1.00  0.00     0.252 C 
HETATM   13  N   UNL     1      40.776 -14.592  -0.003  1.00  0.00    -0.309 N 
HETATM   14  H   UNL     1      41.697 -14.636  -0.427  1.00  0.00     0.170 HD
HETATM   15  O   UNL     1      39.645 -15.286   1.923  1.00  0.00    -0.270 OA
BRANCH  13  16
HETATM   16  C   UNL     1      39.781 -13.880  -0.673  1.00  0.00     0.129 A 
HETATM   17  N   UNL     1      39.400 -12.662  -0.249  1.00  0.00    -0.242 NA
HETATM   18  C   UNL     1      38.424 -12.026  -0.940  1.00  0.00     0.142 A 
HETATM   19  C   UNL     1      37.798 -12.558  -2.053  1.00  0.00     0.051 A 
HETATM   20 CL   UNL     1      36.567 -11.695  -2.879  1.00  0.00    -0.083 Cl
HETATM   21  C   UNL     1      38.195 -13.816  -2.485  1.00  0.00     0.029 A 
HETATM   22  C   UNL     1      39.200 -14.488  -1.785  1.00  0.00     0.052 A 
ENDBRANCH  13  16
ENDBRANCH   2  12
TORSDOF 4
ENDMDL
MODEL 6
REMARK VINA RESULT:      -7.0      5.299      7.099
REMARK  4 active torsions:
REMARK  status: ('A' for Active; 'I' for Inactive)
REMARK    1  A    between atoms: C_2  and  O_3 
REMARK    2  A    between atoms: C_2  and  C_12 
REMARK    3  A    between atoms: O_3  and  C_4 
REMARK       I    between atoms: C_12  and  N_13 
REMARK    4  A    between atoms: N_13  and  C_14 
ROOT
HETATM    1  C   UNL     1      42.012 -12.759   3.803  1.00  0.00     0.050 C 
HETATM    2  C   UNL     1      41.202 -13.645   2.863  1.00  0.00     0.217 C 
ENDROOT
BRANCH   2   3
HETATM    3  O   UNL     1      41.712 -13.516   1.531  1.00  0.00    -0.336 OA
BRANCH   3   4
HETATM    4  C   UNL     1      40.849 -13.493   0.471  1.00  0.00     0.087 A 
HETATM    5  C   UNL     1      40.527 -12.225  -0.049  1.00  0.00     0.047 A 
HETATM    6 BR   UNL     1      41.296 -10.642   0.675  1.00  0.00    -0.048 Br
HETATM    7  C   UNL     1      39.641 -12.090  -1.119  1.00  0.00     0.064 A 
HETATM    8  C   UNL     1      39.070 -13.228  -1.669  1.00  0.00     0.117 A 
HETATM    9  F   UNL     1      38.218 -13.108  -2.693  1.00  0.00    -0.206 F 
HETATM   10  C   UNL     1      39.367 -14.490  -1.170  1.00  0.00     0.045 A 
HETATM   11  C   UNL     1      40.253 -14.624  -0.098  1.00  0.00     0.041 A 
ENDBRANCH   3   4
ENDBRANCH   2   3
BRANCH   2  12
HETATM   12  C   UNL     1      41.351 -15.109   3.325  1.00  0.00     0.252 C 
HETATM   13  N   UNL     1      42.672 -15.495   3.447  1.00  0.00    -0.309 N 
HETATM   14  H   UNL     1      43.359 -14.802   3.173  1.00  0.00     0.170 HD
HETATM   15  O   UNL     1      40.354 -15.787   3.559  1.00  0.00    -0.270 OA
BRANCH  13  16
HETATM   16  C   UNL     1      43.133 -16.740   3.879  1.00  0.00     0.129 A 
HETATM   17  N   UNL     1      43.293 -17.000   5.188  1.00  0.00    -0.242 NA
HETATM   18  C   UNL     1      43.749 -18.226   5.540  1.00  0.00     0.142 A 
HETATM   19  C   UNL     1      44.060 -19.221   4.631  1.00  0.00     0.051 A 
HETATM   20 CL   UNL     1      44.635 -20.751   5.149  1.00  0.00    -0.083 Cl
HETATM   21  C   UNL     1      43.893 -18.946   3.281  1.00  0.00     0.029 A 
HETATM   22  C   UNL     1      43.424 -17.687   2.898  1.00  0.00     0.052 A 
ENDBRANCH  13  16
ENDBRANCH   2  12
TORSDOF 4
ENDMDL
MODEL 7
REMARK VINA RESULT:      -6.7      4.879      6.307
REMARK  4 active torsions:
REMARK  status: ('A' for Active; 'I' for Inactive)
REMARK    1  A    between atoms: C_2  and  O_3 
REMARK    2  A    between atoms: C_2  and  C_12 
REMARK    3  A    between atoms: O_3  and  C_4 
REMARK       I    between atoms: C_12  and  N_13 
REMARK    4  A    between atoms: N_13  and  C_14 
ROOT
HETATM    1  C   UNL     1      41.726 -13.568   5.449  1.00  0.00     0.050 C 
HETATM    2  C   UNL     1      42.292 -14.350   4.270  1.00  0.00     0.217 C 
ENDROOT
BRANCH   2   3
HETATM    3  O   UNL     1      41.723 -15.664   4.256  1.00  0.00    -0.336 OA
BRANCH   3   4
HETATM    4  C   UNL     1      42.494 -16.744   4.585  1.00  0.00     0.087 A 
HETATM    5  C   UNL     1      43.102 -17.430   3.517  1.00  0.00     0.047 A 
HETATM    6 BR   UNL     1      42.883 -16.843   1.720  1.00  0.00    -0.048 Br
HETATM    7  C   UNL     1      43.893 -18.557   3.743  1.00  0.00     0.064 A 
HETATM    8  C   UNL     1      44.074 -19.004   5.044  1.00  0.00     0.117 A 
HETATM    9  F   UNL     1      44.829 -20.085   5.271  1.00  0.00    -0.206 F 
HETATM   10  C   UNL     1      43.479 -18.348   6.114  1.00  0.00     0.045 A 
HETATM   11  C   UNL     1      42.686 -17.220   5.887  1.00  0.00     0.041 A 
ENDBRANCH   3   4
ENDBRANCH   2   3
BRANCH   2  12
HETATM   12  C   UNL     1      41.908 -13.615   2.969  1.00  0.00     0.252 C 
HETATM   13  N   UNL     1      40.735 -14.092   2.416  1.00  0.00    -0.309 N 
HETATM   14  H   UNL     1      40.313 -14.880   2.894  1.00  0.00     0.170 HD
HETATM   15  O   UNL     1      42.611 -12.701   2.546  1.00  0.00    -0.270 OA
BRANCH  13  16
HETATM   16  C   UNL     1      40.108 -13.611   1.266  1.00  0.00     0.129 A 
HETATM   17  N   UNL     1      39.467 -12.429   1.273  1.00  0.00    -0.242 NA
HETATM   18  C   UNL     1      38.874 -12.022   0.125  1.00  0.00     0.142 A 
HETATM   19  C   UNL     1      38.890 -12.753  -1.049  1.00  0.00     0.051 A 
HETATM   20 CL   UNL     1      38.115 -12.176  -2.467  1.00  0.00    -0.083 Cl
HETATM   21  C   UNL     1      39.553 -13.972  -1.049  1.00  0.00     0.029 A 
HETATM   22  C   UNL     1      40.170 -14.409   0.125  1.00  0.00     0.052 A 
ENDBRANCH  13  16
ENDBRANCH   2  12
TORSDOF 4
ENDMDL
MODEL 8
REMARK VINA RESULT:      -6.6      4.053      4.691
REMARK  4 active torsions:
REMARK  status: ('A' for Active; 'I' for Inactive)
REMARK    1  A    between atoms: C_2  and  O_3 
REMARK    2  A    between atoms: C_2  and  C_12 
REMARK    3  A    between atoms: O_3  and  C_4 
REMARK       I    between atoms: C_12  and  N_13 
REMARK    4  A    between atoms: N_13  and  C_14 
ROOT
HETATM    1  C   UNL     1      42.927 -14.140   6.558  1.00  0.00     0.050 C 
HETATM    2  C   UNL     1      43.017 -14.540   5.090  1.00  0.00     0.217 C 
ENDROOT
BRANCH   2   3
HETATM    3  O   UNL     1      42.260 -15.737   4.878  1.00  0.00    -0.336 OA
BRANCH   3   4
HETATM    4  C   UNL     1      42.837 -16.806   4.249  1.00  0.00     0.087 A 
HETATM    5  C   UNL     1      42.340 -17.125   2.971  1.00  0.00     0.047 A 
HETATM    6 BR   UNL     1      40.966 -16.085   2.163  1.00  0.00    -0.048 Br
HETATM    7  C   UNL     1      42.847 -18.208   2.253  1.00  0.00     0.064 A 
HETATM    8  C   UNL     1      43.853 -18.980   2.816  1.00  0.00     0.117 A 
HETATM    9  F   UNL     1      44.343 -20.023   2.135  1.00  0.00    -0.206 F 
HETATM   10  C   UNL     1      44.355 -18.690   4.078  1.00  0.00     0.045 A 
HETATM   11  C   UNL     1      43.846 -17.605   4.798  1.00  0.00     0.041 A 
ENDBRANCH   3   4
ENDBRANCH   2   3
BRANCH   2  12
HETATM   12  C   UNL     1      42.419 -13.402   4.238  1.00  0.00     0.252 C 
HETATM   13  N   UNL     1      41.072 -13.210   4.479  1.00  0.00    -0.309 N 
HETATM   14  H   UNL     1      40.645 -13.859   5.131  1.00  0.00     0.170 HD
HETATM   15  O   UNL     1      43.133 -12.769   3.466  1.00  0.00    -0.270 OA
BRANCH  13  16
HETATM   16  C   UNL     1      40.259 -12.237   3.896  1.00  0.00     0.129 A 
HETATM   17  N   UNL     1      40.304 -10.960   4.313  1.00  0.00    -0.242 NA
HETATM   18  C   UNL     1      39.484 -10.066   3.709  1.00  0.00     0.142 A 
HETATM   19  C   UNL     1      38.605 -10.394   2.692  1.00  0.00     0.051 A 
HETATM   20 CL   UNL     1      37.595  -9.209   1.974  1.00  0.00    -0.083 Cl
HETATM   21  C   UNL     1      38.563 -11.714   2.267  1.00  0.00     0.029 A 
HETATM   22  C   UNL     1      39.401 -12.650   2.878  1.00  0.00     0.052 A 
ENDBRANCH  13  16
ENDBRANCH   2  12
TORSDOF 4
ENDMDL
MODEL 9
REMARK VINA RESULT:      -6.6      2.594      3.212
REMARK  4 active torsions:
REMARK  status: ('A' for Active; 'I' for Inactive)
REMARK    1  A    between atoms: C_2  and  O_3 
REMARK    2  A    between atoms: C_2  and  C_12 
REMARK    3  A    between atoms: O_3  and  C_4 
REMARK       I    between atoms: C_12  and  N_13 
REMARK    4  A    between atoms: N_13  and  C_14 
ROOT
HETATM    1  C   UNL     1      42.380 -11.419   2.984  1.00  0.00     0.050 C 
HETATM    2  C   UNL     1      42.184 -12.609   3.917  1.00  0.00     0.217 C 
ENDROOT
BRANCH   2   3
HETATM    3  O   UNL     1      43.329 -13.465   3.840  1.00  0.00    -0.336 OA
BRANCH   3   4
HETATM    4  C   UNL     1      43.214 -14.708   3.282  1.00  0.00     0.087 A 
HETATM    5  C   UNL     1      43.216 -15.798   4.173  1.00  0.00     0.047 A 
HETATM    6 BR   UNL     1      43.331 -15.531   6.053  1.00  0.00    -0.048 Br
HETATM    7  C   UNL     1      43.124 -17.109   3.704  1.00  0.00     0.064 A 
HETATM    8  C   UNL     1      43.033 -17.333   2.338  1.00  0.00     0.117 A 
HETATM    9  F   UNL     1      42.947 -18.587   1.879  1.00  0.00    -0.206 F 
HETATM   10  C   UNL     1      43.036 -16.274   1.439  1.00  0.00     0.045 A 
HETATM   11  C   UNL     1      43.130 -14.961   1.908  1.00  0.00     0.041 A 
ENDBRANCH   3   4
ENDBRANCH   2   3
BRANCH   2  12
HETATM   12  C   UNL     1      42.039 -12.079   5.358  1.00  0.00     0.252 C 
HETATM   13  N   UNL     1      43.170 -11.415   5.795  1.00  0.00    -0.309 N 
HETATM   14  H   UNL     1      43.951 -11.406   5.149  1.00  0.00     0.170 HD
HETATM   15  O   UNL     1      40.993 -12.251   5.977  1.00  0.00    -0.270 OA
BRANCH  13  16
HETATM   16  C   UNL     1      43.336 -10.792   7.032  1.00  0.00     0.129 A 
HETATM   17  N   UNL     1      42.455  -9.875   7.467  1.00  0.00    -0.242 NA
HETATM   18  C   UNL     1      42.677  -9.303   8.675  1.00  0.00     0.142 A 
HETATM   19  C   UNL     1      43.757  -9.609   9.483  1.00  0.00     0.051 A 
HETATM   20 CL   UNL     1      43.976  -8.844  11.002  1.00  0.00    -0.083 Cl
HETATM   21  C   UNL     1      44.663 -10.556   9.028  1.00  0.00     0.029 A 
HETATM   22  C   UNL     1      44.451 -11.156   7.785  1.00  0.00     0.052 A 
ENDBRANCH  13  16
ENDBRANCH   2  12
TORSDOF 4
ENDMDL
MODEL 10
REMARK VINA RESULT:      -6.5      4.847      5.606
REMARK  4 active torsions:
REMARK  status: ('A' for Active; 'I' for Inactive)
REMARK    1  A    between atoms: C_2  and  O_3 
REMARK    2  A    between atoms: C_2  and  C_12 
REMARK    3  A    between atoms: O_3  and  C_4 
REMARK       I    between atoms: C_12  and  N_13 
REMARK    4  A    between atoms: N_13  and  C_14 
ROOT
HETATM    1  C   UNL     1      40.645 -12.850   5.210  1.00  0.00     0.050 C 
HETATM    2  C   UNL     1      41.720 -13.725   4.576  1.00  0.00     0.217 C 
ENDROOT
BRANCH   2   3
HETATM    3  O   UNL     1      41.180 -15.026   4.315  1.00  0.00    -0.336 OA
BRANCH   3   4
HETATM    4  C   UNL     1      42.013 -16.049   3.955  1.00  0.00     0.087 A 
HETATM    5  C   UNL     1      41.745 -16.671   2.721  1.00  0.00     0.047 A 
HETATM    6 BR   UNL     1      40.319 -16.076   1.609  1.00  0.00    -0.048 Br
HETATM    7  C   UNL     1      42.523 -17.738   2.270  1.00  0.00     0.064 A 
HETATM    8  C   UNL     1      43.571 -18.189   3.058  1.00  0.00     0.117 A 
HETATM    9  F   UNL     1      44.321 -19.213   2.635  1.00  0.00    -0.206 F 
HETATM   10  C   UNL     1      43.852 -17.596   4.282  1.00  0.00     0.045 A 
HETATM   11  C   UNL     1      43.071 -16.528   4.735  1.00  0.00     0.041 A 
ENDBRANCH   3   4
ENDBRANCH   2   3
BRANCH   2  12
HETATM   12  C   UNL     1      42.151 -13.077   3.244  1.00  0.00     0.252 C 
HETATM   13  N   UNL     1      41.085 -12.546   2.542  1.00  0.00    -0.309 N 
HETATM   14  H   UNL     1      40.171 -12.693   2.955  1.00  0.00     0.170 HD
HETATM   15  O   UNL     1      43.336 -13.057   2.923  1.00  0.00    -0.270 OA
BRANCH  13  16
HETATM   16  C   UNL     1      41.154 -11.864   1.327  1.00  0.00     0.129 A 
HETATM   17  N   UNL     1      41.452 -10.554   1.286  1.00  0.00    -0.242 NA
HETATM   18  C   UNL     1      41.496  -9.950   0.075  1.00  0.00     0.142 A 
HETATM   19  C   UNL     1      41.252 -10.604  -1.119  1.00  0.00     0.051 A 
HETATM   20 CL   UNL     1      41.324  -9.774  -2.619  1.00  0.00    -0.083 Cl
HETATM   21  C   UNL     1      40.945 -11.956  -1.071  1.00  0.00     0.029 A 
HETATM   22  C   UNL     1      40.893 -12.596   0.170  1.00  0.00     0.052 A 
ENDBRANCH  13  16
ENDBRANCH   2  12
TORSDOF 4
ENDMDL
