MODEL 1
REMARK VINA RESULT:      -8.8      0.000      0.000
REMARK  4 active torsions:
REMARK  status: ('A' for Active; 'I' for Inactive)
REMARK    1  A    between atoms: O_2  and  C_3 
REMARK    2  A    between atoms: C_6  and  C_7 
REMARK    3  A    between atoms: C_11  and  C_12 
REMARK       I    between atoms: C_12  and  N_13 
REMARK    4  A    between atoms: N_13  and  N_14 
ROOT
HETATM    1  C   UNL     1      40.088 -12.101   6.171  1.00  0.00     0.289 C 
HETATM    2  N   UNL     1      41.152 -11.233   6.354  1.00  0.00    -0.241 N 
HETATM    3  O   UNL     1      38.961 -11.944   6.630  1.00  0.00    -0.264 OA
HETATM    4  H   UNL     1      42.079 -11.549   6.111  1.00  0.00     0.192 HD
ENDROOT
BRANCH   1   5
HETATM    5  C   UNL     1      40.414 -13.239   5.343  1.00  0.00     0.121 A 
HETATM    6  N   UNL     1      39.743 -13.511   4.184  1.00  0.00    -0.272 N 
HETATM    7  N   UNL     1      40.193 -14.597   3.532  1.00  0.00    -0.174 NA
HETATM    8  H   UNL     1      38.970 -12.983   3.790  1.00  0.00     0.189 HD
HETATM    9  C   UNL     1      41.218 -15.041   4.276  1.00  0.00     0.089 A 
HETATM   10  C   UNL     1      41.371 -14.229   5.433  1.00  0.00     0.071 A 
BRANCH   9  11
HETATM   11  C   UNL     1      42.020 -16.207   3.898  1.00  0.00    -0.005 A 
HETATM   12  C   UNL     1      41.856 -16.816   2.647  1.00  0.00     0.016 A 
HETATM   13  C   UNL     1      42.642 -17.912   2.279  1.00  0.00     0.037 A 
HETATM   14  C   UNL     1      43.608 -18.417   3.148  1.00  0.00     0.068 A 
HETATM   15  C   UNL     1      43.766 -17.833   4.405  1.00  0.00     0.037 A 
HETATM   16  C   UNL     1      42.975 -16.737   4.776  1.00  0.00     0.016 A 
BRANCH  14  17
HETATM   17  O   UNL     1      44.316 -19.478   2.656  1.00  0.00    -0.356 OA
HETATM   18  C   UNL     1      43.590 -20.427   1.886  1.00  0.00     0.210 C 
ENDBRANCH  14  17
ENDBRANCH   9  11
ENDBRANCH   1   5
BRANCH   2  19
HETATM   19  N   UNL     1      41.054 -10.139   7.158  1.00  0.00    -0.165 NA
HETATM   20  C   UNL     1      42.134  -9.705   7.732  1.00  0.00     0.157 A 
HETATM   21  C   UNL     1      42.084  -8.617   8.826  1.00  0.00     0.277 A 
HETATM   22  C   UNL     1      43.555 -10.061   7.594  1.00  0.00     0.027 A 
HETATM   23  O   UNL     1      41.107  -8.014   9.206  1.00  0.00    -0.266 OA
HETATM   24  N   UNL     1      43.379  -8.504   9.286  1.00  0.00    -0.321 N 
HETATM   25  C   UNL     1      44.236  -9.332   8.572  1.00  0.00     0.048 A 
HETATM   26  H   UNL     1      43.641  -7.857  10.014  1.00  0.00     0.169 HD
HETATM   27  C   UNL     1      45.604  -9.430   8.738  1.00  0.00     0.030 A 
HETATM   28  C   UNL     1      46.301 -10.278   7.875  1.00  0.00     0.002 A 
HETATM   29  C   UNL     1      45.629 -10.983   6.860  1.00  0.00     0.001 A 
HETATM   30  C   UNL     1      44.243 -10.868   6.704  1.00  0.00     0.016 A 
ENDBRANCH   2  19
TORSDOF 4
ENDMDL
MODEL 2
REMARK VINA RESULT:      -8.7      4.672      7.014
REMARK  4 active torsions:
REMARK  status: ('A' for Active; 'I' for Inactive)
REMARK    1  A    between atoms: O_2  and  C_3 
REMARK    2  A    between atoms: C_6  and  C_7 
REMARK    3  A    between atoms: C_11  and  C_12 
REMARK       I    between atoms: C_12  and  N_13 
REMARK    4  A    between atoms: N_13  and  N_14 
ROOT
HETATM    1  C   UNL     1      42.816 -12.630   4.392  1.00  0.00     0.289 C 
HETATM    2  N   UNL     1      42.412 -13.851   4.909  1.00  0.00    -0.241 N 
HETATM    3  O   UNL     1      43.571 -11.842   4.949  1.00  0.00    -0.264 OA
HETATM    4  H   UNL     1      41.639 -14.328   4.471  1.00  0.00     0.192 HD
ENDROOT
BRANCH   1   5
HETATM    5  C   UNL     1      42.276 -12.359   3.080  1.00  0.00     0.121 A 
HETATM    6  N   UNL     1      42.303 -11.110   2.526  1.00  0.00    -0.272 N 
HETATM    7  N   UNL     1      41.776 -11.045   1.291  1.00  0.00    -0.174 NA
HETATM    8  H   UNL     1      42.675 -10.265   2.949  1.00  0.00     0.189 HD
HETATM    9  C   UNL     1      41.413 -12.306   1.010  1.00  0.00     0.089 A 
HETATM   10  C   UNL     1      41.689 -13.155   2.117  1.00  0.00     0.071 A 
BRANCH   9  11
HETATM   11  C   UNL     1      40.815 -12.688  -0.273  1.00  0.00    -0.005 A 
HETATM   12  C   UNL     1      39.991 -13.817  -0.372  1.00  0.00     0.016 A 
HETATM   13  C   UNL     1      39.399 -14.162  -1.591  1.00  0.00     0.037 A 
HETATM   14  C   UNL     1      39.614 -13.387  -2.730  1.00  0.00     0.068 A 
HETATM   15  C   UNL     1      40.450 -12.274  -2.648  1.00  0.00     0.037 A 
HETATM   16  C   UNL     1      41.047 -11.929  -1.427  1.00  0.00     0.016 A 
BRANCH  14  17
HETATM   17  O   UNL     1      38.963 -13.828  -3.848  1.00  0.00    -0.356 OA
HETATM   18  C   UNL     1      38.068 -14.919  -3.676  1.00  0.00     0.210 C 
ENDBRANCH  14  17
ENDBRANCH   9  11
ENDBRANCH   1   5
BRANCH   2  19
HETATM   19  N   UNL     1      42.766 -14.250   6.162  1.00  0.00    -0.165 NA
HETATM   20  C   UNL     1      43.110 -15.489   6.333  1.00  0.00     0.157 A 
HETATM   21  C   UNL     1      43.311 -16.084   7.743  1.00  0.00     0.277 A 
HETATM   22  C   UNL     1      43.357 -16.600   5.398  1.00  0.00     0.027 A 
HETATM   23  O   UNL     1      43.255 -15.490   8.795  1.00  0.00    -0.266 OA
HETATM   24  N   UNL     1      43.540 -17.428   7.542  1.00  0.00    -0.321 N 
HETATM   25  C   UNL     1      43.575 -17.731   6.187  1.00  0.00     0.048 A 
HETATM   26  H   UNL     1      43.707 -18.069   8.303  1.00  0.00     0.169 HD
HETATM   27  C   UNL     1      43.831 -18.970   5.634  1.00  0.00     0.030 A 
HETATM   28  C   UNL     1      43.886 -19.058   4.241  1.00  0.00     0.002 A 
HETATM   29  C   UNL     1      43.709 -17.916   3.440  1.00  0.00     0.001 A 
HETATM   30  C   UNL     1      43.454 -16.667   4.018  1.00  0.00     0.016 A 
ENDBRANCH   2  19
TORSDOF 4
ENDMDL
MODEL 3
REMARK VINA RESULT:      -8.6      1.738      2.061
REMARK  4 active torsions:
REMARK  status: ('A' for Active; 'I' for Inactive)
REMARK    1  A    between atoms: O_2  and  C_3 
REMARK    2  A    between atoms: C_6  and  C_7 
REMARK    3  A    between atoms: C_11  and  C_12 
REMARK       I    between atoms: C_12  and  N_13 
REMARK    4  A    between atoms: N_13  and  N_14 
ROOT
HETATM    1  C   UNL     1      41.988 -11.756   4.329  1.00  0.00     0.289 C 
HETATM    2  N   UNL     1      41.778 -11.779   5.699  1.00  0.00    -0.241 N 
HETATM    3  O   UNL     1      41.864 -10.770   3.612  1.00  0.00    -0.264 OA
HETATM    4  H   UNL     1      41.707 -12.673   6.161  1.00  0.00     0.192 HD
ENDROOT
BRANCH   1   5
HETATM    5  C   UNL     1      42.406 -13.031   3.795  1.00  0.00     0.121 A 
HETATM    6  N   UNL     1      42.898 -13.161   2.526  1.00  0.00    -0.272 N 
HETATM    7  N   UNL     1      43.258 -14.416   2.203  1.00  0.00    -0.174 NA
HETATM    8  H   UNL     1      43.015 -12.422   1.840  1.00  0.00     0.189 HD
HETATM    9  C   UNL     1      43.018 -15.134   3.311  1.00  0.00     0.089 A 
HETATM   10  C   UNL     1      42.461 -14.305   4.322  1.00  0.00     0.071 A 
BRANCH   9  11
HETATM   11  C   UNL     1      43.304 -16.569   3.398  1.00  0.00    -0.005 A 
HETATM   12  C   UNL     1      43.815 -17.128   4.577  1.00  0.00     0.016 A 
HETATM   13  C   UNL     1      44.060 -18.501   4.667  1.00  0.00     0.037 A 
HETATM   14  C   UNL     1      43.799 -19.342   3.586  1.00  0.00     0.068 A 
HETATM   15  C   UNL     1      43.311 -18.794   2.399  1.00  0.00     0.037 A 
HETATM   16  C   UNL     1      43.069 -17.416   2.308  1.00  0.00     0.016 A 
BRANCH  14  17
HETATM   17  O   UNL     1      44.068 -20.662   3.814  1.00  0.00    -0.356 OA
HETATM   18  C   UNL     1      44.129 -21.075   5.174  1.00  0.00     0.210 C 
ENDBRANCH  14  17
ENDBRANCH   9  11
ENDBRANCH   1   5
BRANCH   2  19
HETATM   19  N   UNL     1      41.316 -10.688   6.370  1.00  0.00    -0.165 NA
HETATM   20  C   UNL     1      42.142 -10.055   7.146  1.00  0.00     0.157 A 
HETATM   21  C   UNL     1      41.658  -8.951   8.111  1.00  0.00     0.277 A 
HETATM   22  C   UNL     1      43.593 -10.169   7.373  1.00  0.00     0.027 A 
HETATM   23  O   UNL     1      40.536  -8.510   8.203  1.00  0.00    -0.266 OA
HETATM   24  N   UNL     1      42.768  -8.603   8.850  1.00  0.00    -0.321 N 
HETATM   25  C   UNL     1      43.891  -9.298   8.424  1.00  0.00     0.048 A 
HETATM   26  H   UNL     1      42.740  -7.894   9.567  1.00  0.00     0.169 HD
HETATM   27  C   UNL     1      45.175  -9.156   8.913  1.00  0.00     0.030 A 
HETATM   28  C   UNL     1      46.186  -9.905   8.305  1.00  0.00     0.002 A 
HETATM   29  C   UNL     1      45.900 -10.752   7.219  1.00  0.00     0.001 A 
HETATM   30  C   UNL     1      44.594 -10.881   6.734  1.00  0.00     0.016 A 
ENDBRANCH   2  19
TORSDOF 4
ENDMDL
MODEL 4
REMARK VINA RESULT:      -8.6      3.106      9.132
REMARK  4 active torsions:
REMARK  status: ('A' for Active; 'I' for Inactive)
REMARK    1  A    between atoms: O_2  and  C_3 
REMARK    2  A    between atoms: C_6  and  C_7 
REMARK    3  A    between atoms: C_11  and  C_12 
REMARK       I    between atoms: C_12  and  N_13 
REMARK    4  A    between atoms: N_13  and  N_14 
ROOT
HETATM    1  C   UNL     1      43.991 -11.642   5.274  1.00  0.00     0.289 C 
HETATM    2  N   UNL     1      42.867 -12.435   5.101  1.00  0.00    -0.241 N 
HETATM    3  O   UNL     1      44.728 -11.256   4.373  1.00  0.00    -0.264 OA
HETATM    4  H   UNL     1      42.450 -12.862   5.914  1.00  0.00     0.192 HD
ENDROOT
BRANCH   1   5
HETATM    5  C   UNL     1      44.220 -11.268   6.650  1.00  0.00     0.121 A 
HETATM    6  N   UNL     1      45.455 -11.351   7.230  1.00  0.00    -0.272 N 
HETATM    7  N   UNL     1      45.488 -10.942   8.510  1.00  0.00    -0.174 NA
HETATM    8  H   UNL     1      46.312 -11.676   6.792  1.00  0.00     0.189 HD
HETATM    9  C   UNL     1      44.233 -10.550   8.775  1.00  0.00     0.089 A 
HETATM   10  C   UNL     1      43.403 -10.761   7.640  1.00  0.00     0.071 A 
BRANCH   9  11
HETATM   11  C   UNL     1      43.836  -9.997  10.073  1.00  0.00    -0.005 A 
HETATM   12  C   UNL     1      43.744  -8.612  10.265  1.00  0.00     0.016 A 
HETATM   13  C   UNL     1      43.338  -8.088  11.496  1.00  0.00     0.037 A 
HETATM   14  C   UNL     1      43.013  -8.935  12.556  1.00  0.00     0.068 A 
HETATM   15  C   UNL     1      43.122 -10.314  12.383  1.00  0.00     0.037 A 
HETATM   16  C   UNL     1      43.533 -10.840  11.150  1.00  0.00     0.016 A 
BRANCH  14  17
HETATM   17  O   UNL     1      42.616  -8.292  13.695  1.00  0.00    -0.356 OA
HETATM   18  C   UNL     1      41.485  -8.828  14.368  1.00  0.00     0.210 C 
ENDBRANCH  14  17
ENDBRANCH   9  11
ENDBRANCH   1   5
BRANCH   2  19
HETATM   19  N   UNL     1      42.528 -12.940   3.883  1.00  0.00    -0.165 NA
HETATM   20  C   UNL     1      42.748 -14.200   3.663  1.00  0.00     0.157 A 
HETATM   21  C   UNL     1      42.605 -14.810   2.252  1.00  0.00     0.277 A 
HETATM   22  C   UNL     1      43.177 -15.310   4.530  1.00  0.00     0.027 A 
HETATM   23  O   UNL     1      42.218 -14.246   1.254  1.00  0.00    -0.266 OA
HETATM   24  N   UNL     1      43.033 -16.114   2.374  1.00  0.00    -0.321 N 
HETATM   25  C   UNL     1      43.359 -16.412   3.691  1.00  0.00     0.048 A 
HETATM   26  H   UNL     1      43.047 -16.754   1.595  1.00  0.00     0.169 HD
HETATM   27  C   UNL     1      43.775 -17.637   4.173  1.00  0.00     0.030 A 
HETATM   28  C   UNL     1      43.994 -17.751   5.547  1.00  0.00     0.002 A 
HETATM   29  C   UNL     1      43.772 -16.659   6.405  1.00  0.00     0.001 A 
HETATM   30  C   UNL     1      43.347 -15.425   5.899  1.00  0.00     0.016 A 
ENDBRANCH   2  19
TORSDOF 4
ENDMDL
MODEL 5
REMARK VINA RESULT:      -8.5      4.775      7.717
REMARK  4 active torsions:
REMARK  status: ('A' for Active; 'I' for Inactive)
REMARK    1  A    between atoms: O_2  and  C_3 
REMARK    2  A    between atoms: C_6  and  C_7 
REMARK    3  A    between atoms: C_11  and  C_12 
REMARK       I    between atoms: C_12  and  N_13 
REMARK    4  A    between atoms: N_13  and  N_14 
ROOT
HETATM    1  C   UNL     1      41.572 -11.862   1.823  1.00  0.00     0.289 C 
HETATM    2  N   UNL     1      40.246 -12.055   1.466  1.00  0.00    -0.241 N 
HETATM    3  O   UNL     1      42.230 -10.858   1.577  1.00  0.00    -0.264 OA
HETATM    4  H   UNL     1      39.860 -12.984   1.533  1.00  0.00     0.192 HD
ENDROOT
BRANCH   1   5
HETATM    5  C   UNL     1      42.132 -12.971   2.560  1.00  0.00     0.121 A 
HETATM    6  N   UNL     1      42.499 -12.861   3.872  1.00  0.00    -0.272 N 
HETATM    7  N   UNL     1      42.982 -13.997   4.404  1.00  0.00    -0.174 NA
HETATM    8  H   UNL     1      42.435 -12.030   4.454  1.00  0.00     0.189 HD
HETATM    9  C   UNL     1      42.905 -14.897   3.412  1.00  0.00     0.089 A 
HETATM   10  C   UNL     1      42.400 -14.284   2.233  1.00  0.00     0.071 A 
BRANCH   9  11
HETATM   11  C   UNL     1      43.309 -16.295   3.581  1.00  0.00    -0.005 A 
HETATM   12  C   UNL     1      43.865 -16.740   4.789  1.00  0.00     0.016 A 
HETATM   13  C   UNL     1      44.223 -18.081   4.957  1.00  0.00     0.037 A 
HETATM   14  C   UNL     1      44.031 -19.002   3.929  1.00  0.00     0.068 A 
HETATM   15  C   UNL     1      43.499 -18.567   2.715  1.00  0.00     0.037 A 
HETATM   16  C   UNL     1      43.143 -17.222   2.544  1.00  0.00     0.016 A 
BRANCH  14  17
HETATM   17  O   UNL     1      44.408 -20.280   4.233  1.00  0.00    -0.356 OA
HETATM   18  C   UNL     1      43.865 -20.839   5.422  1.00  0.00     0.210 C 
ENDBRANCH  14  17
ENDBRANCH   9  11
ENDBRANCH   1   5
BRANCH   2  19
HETATM   19  N   UNL     1      39.569 -11.147   0.711  1.00  0.00    -0.165 NA
HETATM   20  C   UNL     1      39.151 -11.519  -0.460  1.00  0.00     0.157 A 
HETATM   21  C   UNL     1      38.574 -10.505  -1.470  1.00  0.00     0.277 A 
HETATM   22  C   UNL     1      39.115 -12.822  -1.145  1.00  0.00     0.027 A 
HETATM   23  O   UNL     1      38.378  -9.326  -1.283  1.00  0.00    -0.266 OA
HETATM   24  N   UNL     1      38.358 -11.225  -2.625  1.00  0.00    -0.321 N 
HETATM   25  C   UNL     1      38.662 -12.567  -2.442  1.00  0.00     0.048 A 
HETATM   26  H   UNL     1      37.980 -10.806  -3.462  1.00  0.00     0.169 HD
HETATM   27  C   UNL     1      38.516 -13.574  -3.376  1.00  0.00     0.030 A 
HETATM   28  C   UNL     1      38.818 -14.877  -2.975  1.00  0.00     0.002 A 
HETATM   29  C   UNL     1      39.234 -15.148  -1.659  1.00  0.00     0.001 A 
HETATM   30  C   UNL     1      39.373 -14.116  -0.724  1.00  0.00     0.016 A 
ENDBRANCH   2  19
TORSDOF 4
ENDMDL
MODEL 6
REMARK VINA RESULT:      -8.4      1.274      1.742
REMARK  4 active torsions:
REMARK  status: ('A' for Active; 'I' for Inactive)
REMARK    1  A    between atoms: O_2  and  C_3 
REMARK    2  A    between atoms: C_6  and  C_7 
REMARK    3  A    between atoms: C_11  and  C_12 
REMARK       I    between atoms: C_12  and  N_13 
REMARK    4  A    between atoms: N_13  and  N_14 
ROOT
HETATM    1  C   UNL     1      40.574 -11.845   6.258  1.00  0.00     0.289 C 
HETATM    2  N   UNL     1      41.301 -10.735   6.656  1.00  0.00    -0.241 N 
HETATM    3  O   UNL     1      39.396 -12.052   6.529  1.00  0.00    -0.264 OA
HETATM    4  H   UNL     1      42.305 -10.756   6.557  1.00  0.00     0.192 HD
ENDROOT
BRANCH   1   5
HETATM    5  C   UNL     1      41.334 -12.765   5.445  1.00  0.00     0.121 A 
HETATM    6  N   UNL     1      42.233 -12.337   4.510  1.00  0.00    -0.272 N 
HETATM    7  N   UNL     1      42.865 -13.330   3.860  1.00  0.00    -0.174 NA
HETATM    8  H   UNL     1      42.459 -11.374   4.278  1.00  0.00     0.189 HD
HETATM    9  C   UNL     1      42.382 -14.456   4.408  1.00  0.00     0.089 A 
HETATM   10  C   UNL     1      41.402 -14.143   5.389  1.00  0.00     0.071 A 
BRANCH   9  11
HETATM   11  C   UNL     1      42.836 -15.789   4.003  1.00  0.00    -0.005 A 
HETATM   12  C   UNL     1      43.571 -16.595   4.883  1.00  0.00     0.016 A 
HETATM   13  C   UNL     1      43.979 -17.877   4.503  1.00  0.00     0.037 A 
HETATM   14  C   UNL     1      43.659 -18.380   3.243  1.00  0.00     0.068 A 
HETATM   15  C   UNL     1      42.946 -17.580   2.350  1.00  0.00     0.037 A 
HETATM   16  C   UNL     1      42.541 -16.292   2.729  1.00  0.00     0.016 A 
BRANCH  14  17
HETATM   17  O   UNL     1      44.104 -19.651   3.009  1.00  0.00    -0.356 OA
HETATM   18  C   UNL     1      43.541 -20.329   1.893  1.00  0.00     0.210 C 
ENDBRANCH  14  17
ENDBRANCH   9  11
ENDBRANCH   1   5
BRANCH   2  19
HETATM   19  N   UNL     1      40.773  -9.791   7.482  1.00  0.00    -0.165 NA
HETATM   20  C   UNL     1      41.488  -9.392   8.489  1.00  0.00     0.157 A 
HETATM   21  C   UNL     1      40.893  -8.498   9.597  1.00  0.00     0.277 A 
HETATM   22  C   UNL     1      42.884  -9.639   8.888  1.00  0.00     0.027 A 
HETATM   23  O   UNL     1      39.782  -8.020   9.626  1.00  0.00    -0.266 OA
HETATM   24  N   UNL     1      41.886  -8.385  10.546  1.00  0.00    -0.321 N 
HETATM   25  C   UNL     1      43.043  -9.037  10.139  1.00  0.00     0.048 A 
HETATM   26  H   UNL     1      41.769  -7.849  11.392  1.00  0.00     0.169 HD
HETATM   27  C   UNL     1      44.241  -9.082  10.824  1.00  0.00     0.030 A 
HETATM   28  C   UNL     1      45.311  -9.739  10.214  1.00  0.00     0.002 A 
HETATM   29  C   UNL     1      45.172 -10.311   8.937  1.00  0.00     0.001 A 
HETATM   30  C   UNL     1      43.951 -10.253   8.255  1.00  0.00     0.016 A 
ENDBRANCH   2  19
TORSDOF 4
ENDMDL
MODEL 7
REMARK VINA RESULT:      -8.1      8.856     12.367
REMARK  4 active torsions:
REMARK  status: ('A' for Active; 'I' for Inactive)
REMARK    1  A    between atoms: O_2  and  C_3 
REMARK    2  A    between atoms: C_6  and  C_7 
REMARK    3  A    between atoms: C_11  and  C_12 
REMARK       I    between atoms: C_12  and  N_13 
REMARK    4  A    between atoms: N_13  and  N_14 
ROOT
HETATM    1  C   UNL     1      40.745  -7.160  16.813  1.00  0.00     0.289 C 
HETATM    2  N   UNL     1      40.718  -8.204  17.724  1.00  0.00    -0.241 N 
HETATM    3  O   UNL     1      40.156  -6.093  16.944  1.00  0.00    -0.264 OA
HETATM    4  H   UNL     1      41.064  -9.106  17.433  1.00  0.00     0.192 HD
ENDROOT
BRANCH   1   5
HETATM    5  C   UNL     1      41.573  -7.428  15.660  1.00  0.00     0.121 A 
HETATM    6  N   UNL     1      42.687  -6.688  15.377  1.00  0.00    -0.272 N 
HETATM    7  N   UNL     1      43.349  -7.091  14.279  1.00  0.00    -0.174 NA
HETATM    8  H   UNL     1      43.043  -5.898  15.907  1.00  0.00     0.189 HD
HETATM    9  C   UNL     1      42.659  -8.154  13.837  1.00  0.00     0.089 A 
HETATM   10  C   UNL     1      41.526  -8.382  14.664  1.00  0.00     0.071 A 
BRANCH   9  11
HETATM   11  C   UNL     1      43.066  -8.923  12.658  1.00  0.00    -0.005 A 
HETATM   12  C   UNL     1      43.479  -8.276  11.486  1.00  0.00     0.016 A 
HETATM   13  C   UNL     1      43.893  -9.012  10.372  1.00  0.00     0.037 A 
HETATM   14  C   UNL     1      43.907 -10.406  10.408  1.00  0.00     0.068 A 
HETATM   15  C   UNL     1      43.477 -11.063  11.561  1.00  0.00     0.037 A 
HETATM   16  C   UNL     1      43.058 -10.324  12.676  1.00  0.00     0.016 A 
BRANCH  14  17
HETATM   17  O   UNL     1      44.349 -10.999   9.259  1.00  0.00    -0.356 OA
HETATM   18  C   UNL     1      45.499 -10.428   8.648  1.00  0.00     0.210 C 
ENDBRANCH  14  17
ENDBRANCH   9  11
ENDBRANCH   1   5
BRANCH   2  19
HETATM   19  N   UNL     1      39.940  -8.161  18.840  1.00  0.00    -0.165 NA
HETATM   20  C   UNL     1      40.518  -7.923  19.978  1.00  0.00     0.157 A 
HETATM   21  C   UNL     1      39.760  -8.073  21.314  1.00  0.00     0.277 A 
HETATM   22  C   UNL     1      41.887  -7.525  20.343  1.00  0.00     0.027 A 
HETATM   23  O   UNL     1      38.588  -8.336  21.458  1.00  0.00    -0.266 OA
HETATM   24  N   UNL     1      40.707  -7.868  22.294  1.00  0.00    -0.321 N 
HETATM   25  C   UNL     1      41.938  -7.544  21.739  1.00  0.00     0.048 A 
HETATM   26  H   UNL     1      40.486  -7.908  23.278  1.00  0.00     0.169 HD
HETATM   27  C   UNL     1      43.090  -7.229  22.433  1.00  0.00     0.030 A 
HETATM   28  C   UNL     1      44.215  -6.867  21.689  1.00  0.00     0.002 A 
HETATM   29  C   UNL     1      44.160  -6.804  20.285  1.00  0.00     0.001 A 
HETATM   30  C   UNL     1      42.983  -7.123  19.598  1.00  0.00     0.016 A 
ENDBRANCH   2  19
TORSDOF 4
ENDMDL
MODEL 8
REMARK VINA RESULT:      -7.9     17.523     18.980
REMARK  4 active torsions:
REMARK  status: ('A' for Active; 'I' for Inactive)
REMARK    1  A    between atoms: O_2  and  C_3 
REMARK    2  A    between atoms: C_6  and  C_7 
REMARK    3  A    between atoms: C_11  and  C_12 
REMARK       I    between atoms: C_12  and  N_13 
REMARK    4  A    between atoms: N_13  and  N_14 
ROOT
HETATM    1  C   UNL     1      45.615 -29.214   0.196  1.00  0.00     0.289 C 
HETATM    2  N   UNL     1      46.352 -30.379   0.048  1.00  0.00    -0.241 N 
HETATM    3  O   UNL     1      45.981 -28.098  -0.156  1.00  0.00    -0.264 OA
HETATM    4  H   UNL     1      46.054 -31.203   0.548  1.00  0.00     0.192 HD
ENDROOT
BRANCH   1   5
HETATM    5  C   UNL     1      44.320 -29.429   0.796  1.00  0.00     0.121 A 
HETATM    6  N   UNL     1      43.214 -28.724   0.412  1.00  0.00    -0.272 N 
HETATM    7  N   UNL     1      42.089 -29.069   1.063  1.00  0.00    -0.174 NA
HETATM    8  H   UNL     1      43.171 -27.997  -0.296  1.00  0.00     0.189 HD
HETATM    9  C   UNL     1      42.464 -30.058   1.888  1.00  0.00     0.089 A 
HETATM   10  C   UNL     1      43.860 -30.296   1.767  1.00  0.00     0.071 A 
BRANCH   9  11
HETATM   11  C   UNL     1      41.520 -30.750   2.771  1.00  0.00    -0.005 A 
HETATM   12  C   UNL     1      41.471 -30.456   4.140  1.00  0.00     0.016 A 
HETATM   13  C   UNL     1      40.550 -31.097   4.974  1.00  0.00     0.037 A 
HETATM   14  C   UNL     1      39.660 -32.039   4.459  1.00  0.00     0.068 A 
HETATM   15  C   UNL     1      39.714 -32.356   3.102  1.00  0.00     0.037 A 
HETATM   16  C   UNL     1      40.640 -31.716   2.266  1.00  0.00     0.016 A 
BRANCH  14  17
HETATM   17  O   UNL     1      38.805 -32.575   5.380  1.00  0.00    -0.356 OA
HETATM   18  C   UNL     1      37.735 -33.363   4.874  1.00  0.00     0.210 C 
ENDBRANCH  14  17
ENDBRANCH   9  11
ENDBRANCH   1   5
BRANCH   2  19
HETATM   19  N   UNL     1      47.623 -30.366  -0.438  1.00  0.00    -0.165 NA
HETATM   20  C   UNL     1      48.602 -30.324   0.414  1.00  0.00     0.157 A 
HETATM   21  C   UNL     1      50.057 -30.084  -0.040  1.00  0.00     0.277 A 
HETATM   22  C   UNL     1      48.659 -30.439   1.881  1.00  0.00     0.027 A 
HETATM   23  O   UNL     1      50.455 -29.989  -1.179  1.00  0.00    -0.266 OA
HETATM   24  N   UNL     1      50.788 -29.978   1.123  1.00  0.00    -0.321 N 
HETATM   25  C   UNL     1      49.987 -30.189   2.238  1.00  0.00     0.048 A 
HETATM   26  H   UNL     1      51.784 -29.816   1.124  1.00  0.00     0.169 HD
HETATM   27  C   UNL     1      50.405 -30.204   3.554  1.00  0.00     0.030 A 
HETATM   28  C   UNL     1      49.453 -30.499   4.532  1.00  0.00     0.002 A 
HETATM   29  C   UNL     1      48.124 -30.793   4.177  1.00  0.00     0.001 A 
HETATM   30  C   UNL     1      47.718 -30.777   2.838  1.00  0.00     0.016 A 
ENDBRANCH   2  19
TORSDOF 4
ENDMDL
MODEL 9
REMARK VINA RESULT:      -7.8      5.177      7.049
REMARK  4 active torsions:
REMARK  status: ('A' for Active; 'I' for Inactive)
REMARK    1  A    between atoms: O_2  and  C_3 
REMARK    2  A    between atoms: C_6  and  C_7 
REMARK    3  A    between atoms: C_11  and  C_12 
REMARK       I    between atoms: C_12  and  N_13 
REMARK    4  A    between atoms: N_13  and  N_14 
ROOT
HETATM    1  C   UNL     1      39.328 -12.349   2.374  1.00  0.00     0.289 C 
HETATM    2  N   UNL     1      38.391 -12.299   1.354  1.00  0.00    -0.241 N 
HETATM    3  O   UNL     1      39.710 -11.386   3.030  1.00  0.00    -0.264 OA
HETATM    4  H   UNL     1      38.296 -13.099   0.748  1.00  0.00     0.192 HD
ENDROOT
BRANCH   1   5
HETATM    5  C   UNL     1      39.819 -13.682   2.633  1.00  0.00     0.121 A 
HETATM    6  N   UNL     1      39.100 -14.798   2.310  1.00  0.00    -0.272 N 
HETATM    7  N   UNL     1      39.719 -15.955   2.604  1.00  0.00    -0.174 NA
HETATM    8  H   UNL     1      38.179 -14.826   1.881  1.00  0.00     0.189 HD
HETATM    9  C   UNL     1      40.904 -15.586   3.115  1.00  0.00     0.089 A 
HETATM   10  C   UNL     1      40.993 -14.168   3.172  1.00  0.00     0.071 A 
BRANCH   9  11
HETATM   11  C   UNL     1      41.915 -16.556   3.543  1.00  0.00    -0.005 A 
HETATM   12  C   UNL     1      42.501 -17.435   2.622  1.00  0.00     0.016 A 
HETATM   13  C   UNL     1      43.486 -18.340   3.028  1.00  0.00     0.037 A 
HETATM   14  C   UNL     1      43.907 -18.383   4.357  1.00  0.00     0.068 A 
HETATM   15  C   UNL     1      43.316 -17.528   5.287  1.00  0.00     0.037 A 
HETATM   16  C   UNL     1      42.326 -16.623   4.881  1.00  0.00     0.016 A 
BRANCH  14  17
HETATM   17  O   UNL     1      44.886 -19.302   4.613  1.00  0.00    -0.356 OA
HETATM   18  C   UNL     1      44.457 -20.599   5.006  1.00  0.00     0.210 C 
ENDBRANCH  14  17
ENDBRANCH   9  11
ENDBRANCH   1   5
BRANCH   2  19
HETATM   19  N   UNL     1      37.864 -11.120   0.924  1.00  0.00    -0.165 NA
HETATM   20  C   UNL     1      38.342 -10.599  -0.165  1.00  0.00     0.157 A 
HETATM   21  C   UNL     1      37.967  -9.169  -0.607  1.00  0.00     0.277 A 
HETATM   22  C   UNL     1      39.286 -11.092  -1.181  1.00  0.00     0.027 A 
HETATM   23  O   UNL     1      37.171  -8.430  -0.075  1.00  0.00    -0.266 OA
HETATM   24  N   UNL     1      38.748  -8.915  -1.714  1.00  0.00    -0.321 N 
HETATM   25  C   UNL     1      39.508 -10.026  -2.056  1.00  0.00     0.048 A 
HETATM   26  H   UNL     1      38.708  -8.040  -2.215  1.00  0.00     0.169 HD
HETATM   27  C   UNL     1      40.361 -10.132  -3.137  1.00  0.00     0.030 A 
HETATM   28  C   UNL     1      40.990 -11.361  -3.346  1.00  0.00     0.002 A 
HETATM   29  C   UNL     1      40.739 -12.452  -2.496  1.00  0.00     0.001 A 
HETATM   30  C   UNL     1      39.869 -12.328  -1.406  1.00  0.00     0.016 A 
ENDBRANCH   2  19
TORSDOF 4
ENDMDL
MODEL 10
REMARK VINA RESULT:      -7.6      8.627     12.327
REMARK  4 active torsions:
REMARK  status: ('A' for Active; 'I' for Inactive)
REMARK    1  A    between atoms: O_2  and  C_3 
REMARK    2  A    between atoms: C_6  and  C_7 
REMARK    3  A    between atoms: C_11  and  C_12 
REMARK       I    between atoms: C_12  and  N_13 
REMARK    4  A    between atoms: N_13  and  N_14 
ROOT
HETATM    1  C   UNL     1      41.648  -5.866  16.224  1.00  0.00     0.289 C 
HETATM    2  N   UNL     1      42.322  -6.035  17.423  1.00  0.00    -0.241 N 
HETATM    3  O   UNL     1      40.958  -4.895  15.932  1.00  0.00    -0.264 OA
HETATM    4  H   UNL     1      42.690  -6.948  17.643  1.00  0.00     0.192 HD
ENDROOT
BRANCH   1   5
HETATM    5  C   UNL     1      41.849  -6.955  15.296  1.00  0.00     0.121 A 
HETATM    6  N   UNL     1      41.033  -8.051  15.272  1.00  0.00    -0.272 N 
HETATM    7  N   UNL     1      41.355  -8.955  14.331  1.00  0.00    -0.174 NA
HETATM    8  H   UNL     1      40.235  -8.229  15.876  1.00  0.00     0.189 HD
HETATM    9  C   UNL     1      42.408  -8.421  13.693  1.00  0.00     0.089 A 
HETATM   10  C   UNL     1      42.762  -7.178  14.285  1.00  0.00     0.071 A 
BRANCH   9  11
HETATM   11  C   UNL     1      43.060  -9.081  12.558  1.00  0.00    -0.005 A 
HETATM   12  C   UNL     1      43.574  -8.331  11.492  1.00  0.00     0.016 A 
HETATM   13  C   UNL     1      44.221  -8.961  10.424  1.00  0.00     0.037 A 
HETATM   14  C   UNL     1      44.370 -10.348  10.402  1.00  0.00     0.068 A 
HETATM   15  C   UNL     1      43.843 -11.106  11.448  1.00  0.00     0.037 A 
HETATM   16  C   UNL     1      43.191 -10.475  12.516  1.00  0.00     0.016 A 
BRANCH  14  17
HETATM   17  O   UNL     1      45.035 -10.830   9.310  1.00  0.00    -0.356 OA
HETATM   18  C   UNL     1      44.613 -10.346   8.041  1.00  0.00     0.210 C 
ENDBRANCH  14  17
ENDBRANCH   9  11
ENDBRANCH   1   5
BRANCH   2  19
HETATM   19  N   UNL     1      42.200  -5.145  18.445  1.00  0.00    -0.165 NA
HETATM   20  C   UNL     1      41.505  -5.499  19.482  1.00  0.00     0.157 A 
HETATM   21  C   UNL     1      41.127  -4.486  20.584  1.00  0.00     0.277 A 
HETATM   22  C   UNL     1      40.897  -6.775  19.894  1.00  0.00     0.027 A 
HETATM   23  O   UNL     1      41.475  -3.329  20.656  1.00  0.00    -0.266 OA
HETATM   24  N   UNL     1      40.297  -5.174  21.441  1.00  0.00    -0.321 N 
HETATM   25  C   UNL     1      40.165  -6.501  21.052  1.00  0.00     0.048 A 
HETATM   26  H   UNL     1      39.895  -4.750  22.263  1.00  0.00     0.169 HD
HETATM   27  C   UNL     1      39.449  -7.480  21.712  1.00  0.00     0.030 A 
HETATM   28  C   UNL     1      39.492  -8.775  21.192  1.00  0.00     0.002 A 
HETATM   29  C   UNL     1      40.260  -9.068  20.051  1.00  0.00     0.001 A 
HETATM   30  C   UNL     1      40.984  -8.064  19.397  1.00  0.00     0.016 A 
ENDBRANCH   2  19
TORSDOF 4
ENDMDL
