MODEL 1
REMARK VINA RESULT:      -8.1      0.000      0.000
REMARK  4 active torsions:
REMARK  status: ('A' for Active; 'I' for Inactive)
REMARK    1  A    between atoms: C_2  and  O_3 
REMARK    2  A    between atoms: O_3  and  C_4 
REMARK    3  A    between atoms: C_7  and  C_8 
REMARK       I    between atoms: C_8  and  N_9 
REMARK    4  A    between atoms: N_9  and  C_10 
ROOT
HETATM    1  C   UNL     1      41.317 -15.844   2.611  1.00  0.00     0.262 C 
HETATM    2  N   UNL     1      42.566 -16.434   2.511  1.00  0.00    -0.321 N 
HETATM    3  O   UNL     1      40.468 -16.167   3.435  1.00  0.00    -0.267 OA
HETATM    4  H   UNL     1      43.168 -16.114   1.760  1.00  0.00     0.169 HD
ENDROOT
BRANCH   1   5
HETATM    5  C   UNL     1      41.010 -14.745   1.646  1.00  0.00     0.112 A 
HETATM    6  C   UNL     1      40.092 -14.892   0.595  1.00  0.00     0.168 A 
HETATM    7  C   UNL     1      39.832 -13.843  -0.300  1.00  0.00     0.108 A 
HETATM    8  F   UNL     1      39.461 -16.068   0.437  1.00  0.00    -0.202 F 
HETATM    9  C   UNL     1      40.513 -12.633  -0.147  1.00  0.00     0.043 A 
HETATM   10  C   UNL     1      41.422 -12.466   0.893  1.00  0.00     0.046 A 
HETATM   11  C   UNL     1      41.663 -13.514   1.779  1.00  0.00     0.135 A 
HETATM   12  F   UNL     1      42.559 -13.293   2.751  1.00  0.00    -0.205 F 
BRANCH   7  13
HETATM   13  O   UNL     1      38.973 -13.859  -1.365  1.00  0.00    -0.348 OA
BRANCH  13  14
HETATM   14  C   UNL     1      39.491 -14.260  -2.632  1.00  0.00     0.171 C 
HETATM   15  C   UNL     1      38.351 -14.877  -3.421  1.00  0.00     0.034 C 
ENDBRANCH  13  14
ENDBRANCH   7  13
ENDBRANCH   1   5
BRANCH   2  16
HETATM   16  C   UNL     1      43.125 -17.442   3.328  1.00  0.00     0.064 A 
HETATM   17  C   UNL     1      43.373 -18.779   2.981  1.00  0.00     0.088 A 
HETATM   18  C   UNL     1      43.911 -19.709   3.871  1.00  0.00     0.014 A 
HETATM   19  N   UNL     1      43.186 -19.489   1.821  1.00  0.00    -0.275 N 
HETATM   20  C   UNL     1      43.987 -20.915   3.139  1.00  0.00     0.152 A 
HETATM   21  C   UNL     1      44.236 -19.314   5.179  1.00  0.00     0.015 A 
HETATM   22  N   UNL     1      43.543 -20.786   1.888  1.00  0.00    -0.186 NA
HETATM   23  C   UNL     1      44.007 -17.990   5.553  1.00  0.00     0.003 A 
HETATM   24  C   UNL     1      43.462 -17.079   4.647  1.00  0.00     0.032 A 
HETATM   25  H   UNL     1      42.813 -19.117   0.949  1.00  0.00     0.189 HD
ENDBRANCH   2  16
TORSDOF 4
ENDMDL
MODEL 2
REMARK VINA RESULT:      -7.8      1.492      2.447
REMARK  4 active torsions:
REMARK  status: ('A' for Active; 'I' for Inactive)
REMARK    1  A    between atoms: C_2  and  O_3 
REMARK    2  A    between atoms: O_3  and  C_4 
REMARK    3  A    between atoms: C_7  and  C_8 
REMARK       I    between atoms: C_8  and  N_9 
REMARK    4  A    between atoms: N_9  and  C_10 
ROOT
HETATM    1  C   UNL     1      41.272 -15.344   2.233  1.00  0.00     0.262 C 
HETATM    2  N   UNL     1      42.378 -16.150   2.027  1.00  0.00    -0.321 N 
HETATM    3  O   UNL     1      40.639 -15.300   3.283  1.00  0.00    -0.267 OA
HETATM    4  H   UNL     1      42.792 -16.136   1.101  1.00  0.00     0.169 HD
ENDROOT
BRANCH   1   5
HETATM    5  C   UNL     1      40.842 -14.480   1.091  1.00  0.00     0.112 A 
HETATM    6  C   UNL     1      39.939 -14.914   0.109  1.00  0.00     0.168 A 
HETATM    7  C   UNL     1      39.563 -14.081  -0.956  1.00  0.00     0.108 A 
HETATM    8  F   UNL     1      39.437 -16.158   0.185  1.00  0.00    -0.202 F 
HETATM    9  C   UNL     1      40.111 -12.799  -1.044  1.00  0.00     0.043 A 
HETATM   10  C   UNL     1      41.002 -12.349  -0.075  1.00  0.00     0.046 A 
HETATM   11  C   UNL     1      41.360 -13.184   0.981  1.00  0.00     0.135 A 
HETATM   12  F   UNL     1      42.233 -12.695   1.872  1.00  0.00    -0.205 F 
BRANCH   7  13
HETATM   13  O   UNL     1      38.704 -14.382  -1.977  1.00  0.00    -0.348 OA
BRANCH  13  14
HETATM   14  C   UNL     1      38.384 -13.347  -2.905  1.00  0.00     0.171 C 
HETATM   15  C   UNL     1      36.881 -13.138  -2.863  1.00  0.00     0.034 C 
ENDBRANCH  13  14
ENDBRANCH   7  13
ENDBRANCH   1   5
BRANCH   2  16
HETATM   16  C   UNL     1      43.020 -17.008   2.948  1.00  0.00     0.064 A 
HETATM   17  C   UNL     1      43.417 -16.705   4.259  1.00  0.00     0.088 A 
HETATM   18  C   UNL     1      44.068 -17.620   5.087  1.00  0.00     0.014 A 
HETATM   19  N   UNL     1      43.307 -15.572   5.026  1.00  0.00    -0.275 N 
HETATM   20  C   UNL     1      44.296 -16.923   6.295  1.00  0.00     0.152 A 
HETATM   21  C   UNL     1      44.344 -18.914   4.615  1.00  0.00     0.015 A 
HETATM   22  N   UNL     1      43.835 -15.672   6.261  1.00  0.00    -0.186 NA
HETATM   23  C   UNL     1      43.957 -19.248   3.317  1.00  0.00     0.003 A 
HETATM   24  C   UNL     1      43.312 -18.313   2.505  1.00  0.00     0.032 A 
HETATM   25  H   UNL     1      42.870 -14.699   4.737  1.00  0.00     0.189 HD
ENDBRANCH   2  16
TORSDOF 4
ENDMDL
MODEL 3
REMARK VINA RESULT:      -7.7      1.828      3.518
REMARK  4 active torsions:
REMARK  status: ('A' for Active; 'I' for Inactive)
REMARK    1  A    between atoms: C_2  and  O_3 
REMARK    2  A    between atoms: O_3  and  C_4 
REMARK    3  A    between atoms: C_7  and  C_8 
REMARK       I    between atoms: C_8  and  N_9 
REMARK    4  A    between atoms: N_9  and  C_10 
ROOT
HETATM    1  C   UNL     1      41.116 -15.435   1.969  1.00  0.00     0.262 C 
HETATM    2  N   UNL     1      42.378 -15.998   1.885  1.00  0.00    -0.321 N 
HETATM    3  O   UNL     1      40.296 -15.711   2.839  1.00  0.00    -0.267 OA
HETATM    4  H   UNL     1      42.952 -15.726   1.094  1.00  0.00     0.169 HD
ENDROOT
BRANCH   1   5
HETATM    5  C   UNL     1      40.753 -14.429   0.925  1.00  0.00     0.112 A 
HETATM    6  C   UNL     1      41.250 -13.117   0.928  1.00  0.00     0.168 A 
HETATM    7  C   UNL     1      40.882 -12.194  -0.062  1.00  0.00     0.108 A 
HETATM    8  F   UNL     1      42.085 -12.737   1.910  1.00  0.00    -0.202 F 
HETATM    9  C   UNL     1      39.992 -12.588  -1.063  1.00  0.00     0.043 A 
HETATM   10  C   UNL     1      39.493 -13.887  -1.087  1.00  0.00     0.046 A 
HETATM   11  C   UNL     1      39.874 -14.795  -0.102  1.00  0.00     0.135 A 
HETATM   12  F   UNL     1      39.348 -16.025  -0.174  1.00  0.00    -0.205 F 
BRANCH   7  13
HETATM   13  O   UNL     1      41.286 -10.891  -0.169  1.00  0.00    -0.348 OA
BRANCH  13  14
HETATM   14  C   UNL     1      41.360 -10.322  -1.474  1.00  0.00     0.171 C 
HETATM   15  C   UNL     1      42.239  -9.087  -1.390  1.00  0.00     0.034 C 
ENDBRANCH  13  14
ENDBRANCH   7  13
ENDBRANCH   1   5
BRANCH   2  16
HETATM   16  C   UNL     1      42.986 -16.919   2.766  1.00  0.00     0.064 A 
HETATM   17  C   UNL     1      43.401 -16.687   4.087  1.00  0.00     0.088 A 
HETATM   18  C   UNL     1      44.016 -17.661   4.873  1.00  0.00     0.014 A 
HETATM   19  N   UNL     1      43.342 -15.583   4.900  1.00  0.00    -0.275 N 
HETATM   20  C   UNL     1      44.278 -17.024   6.107  1.00  0.00     0.152 A 
HETATM   21  C   UNL     1      44.235 -18.945   4.347  1.00  0.00     0.015 A 
HETATM   22  N   UNL     1      43.870 -15.755   6.127  1.00  0.00    -0.186 NA
HETATM   23  C   UNL     1      43.829 -19.209   3.040  1.00  0.00     0.003 A 
HETATM   24  C   UNL     1      43.222 -18.216   2.269  1.00  0.00     0.032 A 
HETATM   25  H   UNL     1      42.941 -14.680   4.649  1.00  0.00     0.189 HD
ENDBRANCH   2  16
TORSDOF 4
ENDMDL
MODEL 4
REMARK VINA RESULT:      -7.6      2.864      7.153
REMARK  4 active torsions:
REMARK  status: ('A' for Active; 'I' for Inactive)
REMARK    1  A    between atoms: C_2  and  O_3 
REMARK    2  A    between atoms: O_3  and  C_4 
REMARK    3  A    between atoms: C_7  and  C_8 
REMARK       I    between atoms: C_8  and  N_9 
REMARK    4  A    between atoms: N_9  and  C_10 
ROOT
HETATM    1  C   UNL     1      41.780 -14.108   2.039  1.00  0.00     0.262 C 
HETATM    2  N   UNL     1      40.615 -14.308   1.319  1.00  0.00    -0.321 N 
HETATM    3  O   UNL     1      42.428 -13.066   2.025  1.00  0.00    -0.267 OA
HETATM    4  H   UNL     1      40.192 -15.227   1.374  1.00  0.00     0.169 HD
ENDROOT
BRANCH   1   5
HETATM    5  C   UNL     1      42.259 -15.247   2.882  1.00  0.00     0.112 A 
HETATM    6  C   UNL     1      43.086 -16.264   2.384  1.00  0.00     0.168 A 
HETATM    7  C   UNL     1      43.509 -17.325   3.199  1.00  0.00     0.108 A 
HETATM    8  F   UNL     1      43.466 -16.228   1.095  1.00  0.00    -0.202 F 
HETATM    9  C   UNL     1      43.087 -17.373   4.529  1.00  0.00     0.043 A 
HETATM   10  C   UNL     1      42.272 -16.368   5.043  1.00  0.00     0.046 A 
HETATM   11  C   UNL     1      41.866 -15.317   4.224  1.00  0.00     0.135 A 
HETATM   12  F   UNL     1      41.072 -14.390   4.775  1.00  0.00    -0.205 F 
BRANCH   7  13
HETATM   13  O   UNL     1      44.305 -18.378   2.837  1.00  0.00    -0.348 OA
BRANCH  13  14
HETATM   14  C   UNL     1      43.848 -19.693   3.148  1.00  0.00     0.171 C 
HETATM   15  C   UNL     1      43.120 -20.229   1.929  1.00  0.00     0.034 C 
ENDBRANCH  13  14
ENDBRANCH   7  13
ENDBRANCH   1   5
BRANCH   2  16
HETATM   16  C   UNL     1      39.923 -13.387   0.501  1.00  0.00     0.064 A 
HETATM   17  C   UNL     1      39.971 -13.288  -0.898  1.00  0.00     0.088 A 
HETATM   18  C   UNL     1      39.264 -12.324  -1.617  1.00  0.00     0.014 A 
HETATM   19  N   UNL     1      40.638 -14.006  -1.859  1.00  0.00    -0.275 N 
HETATM   20  C   UNL     1      39.593 -12.562  -2.970  1.00  0.00     0.152 A 
HETATM   21  C   UNL     1      38.453 -11.402  -0.935  1.00  0.00     0.015 A 
HETATM   22  N   UNL     1      40.433 -13.587  -3.123  1.00  0.00    -0.186 NA
HETATM   23  C   UNL     1      38.380 -11.477   0.455  1.00  0.00     0.003 A 
HETATM   24  C   UNL     1      39.101 -12.447   1.154  1.00  0.00     0.032 A 
HETATM   25  H   UNL     1      41.250 -14.803  -1.689  1.00  0.00     0.189 HD
ENDBRANCH   2  16
TORSDOF 4
ENDMDL
MODEL 5
REMARK VINA RESULT:      -7.6      1.253      2.754
REMARK  4 active torsions:
REMARK  status: ('A' for Active; 'I' for Inactive)
REMARK    1  A    between atoms: C_2  and  O_3 
REMARK    2  A    between atoms: O_3  and  C_4 
REMARK    3  A    between atoms: C_7  and  C_8 
REMARK       I    between atoms: C_8  and  N_9 
REMARK    4  A    between atoms: N_9  and  C_10 
ROOT
HETATM    1  C   UNL     1      41.212 -15.647   2.176  1.00  0.00     0.262 C 
HETATM    2  N   UNL     1      42.472 -16.214   2.090  1.00  0.00    -0.321 N 
HETATM    3  O   UNL     1      40.409 -15.886   3.072  1.00  0.00    -0.267 OA
HETATM    4  H   UNL     1      43.030 -15.976   1.278  1.00  0.00     0.169 HD
ENDROOT
BRANCH   1   5
HETATM    5  C   UNL     1      40.829 -14.684   1.098  1.00  0.00     0.112 A 
HETATM    6  C   UNL     1      41.344 -13.382   1.026  1.00  0.00     0.168 A 
HETATM    7  C   UNL     1      40.957 -12.499   0.006  1.00  0.00     0.108 A 
HETATM    8  F   UNL     1      42.215 -12.969   1.962  1.00  0.00    -0.202 F 
HETATM    9  C   UNL     1      40.029 -12.925  -0.947  1.00  0.00     0.043 A 
HETATM   10  C   UNL     1      39.513 -14.216  -0.896  1.00  0.00     0.046 A 
HETATM   11  C   UNL     1      39.912 -15.084   0.117  1.00  0.00     0.135 A 
HETATM   12  F   UNL     1      39.368 -16.308   0.118  1.00  0.00    -0.205 F 
BRANCH   7  13
HETATM   13  O   UNL     1      41.375 -11.208  -0.173  1.00  0.00    -0.348 OA
BRANCH  13  14
HETATM   14  C   UNL     1      40.492 -10.162   0.226  1.00  0.00     0.171 C 
HETATM   15  C   UNL     1      40.932  -9.684   1.598  1.00  0.00     0.034 C 
ENDBRANCH  13  14
ENDBRANCH   7  13
ENDBRANCH   1   5
BRANCH   2  16
HETATM   16  C   UNL     1      43.096 -17.099   2.998  1.00  0.00     0.064 A 
HETATM   17  C   UNL     1      43.299 -18.479   2.839  1.00  0.00     0.088 A 
HETATM   18  C   UNL     1      43.910 -19.274   3.807  1.00  0.00     0.014 A 
HETATM   19  N   UNL     1      42.998 -19.352   1.823  1.00  0.00    -0.275 N 
HETATM   20  C   UNL     1      43.906 -20.579   3.265  1.00  0.00     0.152 A 
HETATM   21  C   UNL     1      44.360 -18.693   5.005  1.00  0.00     0.015 A 
HETATM   22  N   UNL     1      43.348 -20.632   2.055  1.00  0.00    -0.186 NA
HETATM   23  C   UNL     1      44.178 -17.323   5.191  1.00  0.00     0.003 A 
HETATM   24  C   UNL     1      43.558 -16.548   4.209  1.00  0.00     0.032 A 
HETATM   25  H   UNL     1      42.548 -19.108   0.942  1.00  0.00     0.189 HD
ENDBRANCH   2  16
TORSDOF 4
ENDMDL
MODEL 6
REMARK VINA RESULT:      -7.6      5.146      8.204
REMARK  4 active torsions:
REMARK  status: ('A' for Active; 'I' for Inactive)
REMARK    1  A    between atoms: C_2  and  O_3 
REMARK    2  A    between atoms: O_3  and  C_4 
REMARK    3  A    between atoms: C_7  and  C_8 
REMARK       I    between atoms: C_8  and  N_9 
REMARK    4  A    between atoms: N_9  and  C_10 
ROOT
HETATM    1  C   UNL     1      43.416 -14.266   6.506  1.00  0.00     0.262 C 
HETATM    2  N   UNL     1      43.903 -13.058   6.037  1.00  0.00    -0.321 N 
HETATM    3  O   UNL     1      43.100 -14.474   7.672  1.00  0.00    -0.267 OA
HETATM    4  H   UNL     1      44.175 -13.018   5.061  1.00  0.00     0.169 HD
ENDROOT
BRANCH   1   5
HETATM    5  C   UNL     1      43.272 -15.370   5.508  1.00  0.00     0.112 A 
HETATM    6  C   UNL     1      44.140 -16.470   5.463  1.00  0.00     0.168 A 
HETATM    7  C   UNL     1      43.983 -17.485   4.507  1.00  0.00     0.108 A 
HETATM    8  F   UNL     1      45.151 -16.543   6.345  1.00  0.00    -0.202 F 
HETATM    9  C   UNL     1      42.948 -17.389   3.575  1.00  0.00     0.043 A 
HETATM   10  C   UNL     1      42.072 -16.309   3.609  1.00  0.00     0.046 A 
HETATM   11  C   UNL     1      42.235 -15.312   4.568  1.00  0.00     0.135 A 
HETATM   12  F   UNL     1      41.366 -14.292   4.539  1.00  0.00    -0.205 F 
BRANCH   7  13
HETATM   13  O   UNL     1      44.761 -18.600   4.350  1.00  0.00    -0.348 OA
BRANCH  13  14
HETATM   14  C   UNL     1      44.101 -19.848   4.146  1.00  0.00     0.171 C 
HETATM   15  C   UNL     1      43.931 -20.507   5.503  1.00  0.00     0.034 C 
ENDBRANCH  13  14
ENDBRANCH   7  13
ENDBRANCH   1   5
BRANCH   2  16
HETATM   16  C   UNL     1      44.079 -11.850   6.748  1.00  0.00     0.064 A 
HETATM   17  C   UNL     1      43.090 -10.925   7.115  1.00  0.00     0.088 A 
HETATM   18  C   UNL     1      43.369  -9.744   7.802  1.00  0.00     0.014 A 
HETATM   19  N   UNL     1      41.729 -10.898   6.934  1.00  0.00    -0.275 N 
HETATM   20  C   UNL     1      42.117  -9.108   7.960  1.00  0.00     0.152 A 
HETATM   21  C   UNL     1      44.693  -9.444   8.162  1.00  0.00     0.015 A 
HETATM   22  N   UNL     1      41.114  -9.808   7.430  1.00  0.00    -0.186 NA
HETATM   23  C   UNL     1      45.699 -10.345   7.817  1.00  0.00     0.003 A 
HETATM   24  C   UNL     1      45.397 -11.519   7.124  1.00  0.00     0.032 A 
HETATM   25  H   UNL     1      41.176 -11.619   6.471  1.00  0.00     0.189 HD
ENDBRANCH   2  16
TORSDOF 4
ENDMDL
MODEL 7
REMARK VINA RESULT:      -7.6      1.789      2.159
REMARK  4 active torsions:
REMARK  status: ('A' for Active; 'I' for Inactive)
REMARK    1  A    between atoms: C_2  and  O_3 
REMARK    2  A    between atoms: O_3  and  C_4 
REMARK    3  A    between atoms: C_7  and  C_8 
REMARK       I    between atoms: C_8  and  N_9 
REMARK    4  A    between atoms: N_9  and  C_10 
ROOT
HETATM    1  C   UNL     1      40.726 -14.993   2.886  1.00  0.00     0.262 C 
HETATM    2  N   UNL     1      41.964 -14.635   3.393  1.00  0.00    -0.321 N 
HETATM    3  O   UNL     1      40.182 -16.072   3.094  1.00  0.00    -0.267 OA
HETATM    4  H   UNL     1      42.333 -13.733   3.115  1.00  0.00     0.169 HD
ENDROOT
BRANCH   1   5
HETATM    5  C   UNL     1      40.026 -13.981   2.036  1.00  0.00     0.112 A 
HETATM    6  C   UNL     1      40.084 -13.996   0.635  1.00  0.00     0.168 A 
HETATM    7  C   UNL     1      39.424 -13.026  -0.134  1.00  0.00     0.108 A 
HETATM    8  F   UNL     1      40.800 -14.953   0.019  1.00  0.00    -0.202 F 
HETATM    9  C   UNL     1      38.705 -12.018   0.512  1.00  0.00     0.043 A 
HETATM   10  C   UNL     1      38.630 -11.990   1.902  1.00  0.00     0.046 A 
HETATM   11  C   UNL     1      39.284 -12.965   2.652  1.00  0.00     0.135 A 
HETATM   12  F   UNL     1      39.185 -12.874   3.985  1.00  0.00    -0.205 F 
BRANCH   7  13
HETATM   13  O   UNL     1      39.407 -12.923  -1.499  1.00  0.00    -0.348 OA
BRANCH  13  14
HETATM   14  C   UNL     1      38.316 -13.520  -2.197  1.00  0.00     0.171 C 
HETATM   15  C   UNL     1      38.818 -14.809  -2.822  1.00  0.00     0.034 C 
ENDBRANCH  13  14
ENDBRANCH   7  13
ENDBRANCH   1   5
BRANCH   2  16
HETATM   16  C   UNL     1      42.800 -15.374   4.261  1.00  0.00     0.064 A 
HETATM   17  C   UNL     1      43.326 -16.657   4.049  1.00  0.00     0.088 A 
HETATM   18  C   UNL     1      44.129 -17.314   4.981  1.00  0.00     0.014 A 
HETATM   19  N   UNL     1      43.228 -17.542   3.004  1.00  0.00    -0.275 N 
HETATM   20  C   UNL     1      44.431 -18.561   4.391  1.00  0.00     0.152 A 
HETATM   21  C   UNL     1      44.446 -16.682   6.196  1.00  0.00     0.015 A 
HETATM   22  N   UNL     1      43.881 -18.705   3.184  1.00  0.00    -0.186 NA
HETATM   23  C   UNL     1      43.942 -15.404   6.435  1.00  0.00     0.003 A 
HETATM   24  C   UNL     1      43.136 -14.769   5.488  1.00  0.00     0.032 A 
HETATM   25  H   UNL     1      42.717 -17.383   2.136  1.00  0.00     0.189 HD
ENDBRANCH   2  16
TORSDOF 4
ENDMDL
MODEL 8
REMARK VINA RESULT:      -7.5      6.248      8.958
REMARK  4 active torsions:
REMARK  status: ('A' for Active; 'I' for Inactive)
REMARK    1  A    between atoms: C_2  and  O_3 
REMARK    2  A    between atoms: O_3  and  C_4 
REMARK    3  A    between atoms: C_7  and  C_8 
REMARK       I    between atoms: C_8  and  N_9 
REMARK    4  A    between atoms: N_9  and  C_10 
ROOT
HETATM    1  C   UNL     1      43.068 -12.709   6.345  1.00  0.00     0.262 C 
HETATM    2  N   UNL     1      43.593 -12.372   7.581  1.00  0.00    -0.321 N 
HETATM    3  O   UNL     1      43.053 -11.959   5.375  1.00  0.00    -0.267 OA
HETATM    4  H   UNL     1      43.508 -13.060   8.321  1.00  0.00     0.169 HD
ENDROOT
BRANCH   1   5
HETATM    5  C   UNL     1      42.492 -14.082   6.207  1.00  0.00     0.112 A 
HETATM    6  C   UNL     1      43.276 -15.244   6.260  1.00  0.00     0.168 A 
HETATM    7  C   UNL     1      42.705 -16.517   6.117  1.00  0.00     0.108 A 
HETATM    8  F   UNL     1      44.604 -15.130   6.436  1.00  0.00    -0.202 F 
HETATM    9  C   UNL     1      41.329 -16.627   5.905  1.00  0.00     0.043 A 
HETATM   10  C   UNL     1      40.534 -15.486   5.857  1.00  0.00     0.046 A 
HETATM   11  C   UNL     1      41.113 -14.229   6.008  1.00  0.00     0.135 A 
HETATM   12  F   UNL     1      40.295 -13.170   5.938  1.00  0.00    -0.205 F 
BRANCH   7  13
HETATM   13  O   UNL     1      43.354 -17.722   6.141  1.00  0.00    -0.348 OA
BRANCH  13  14
HETATM   14  C   UNL     1      43.983 -18.163   4.939  1.00  0.00     0.171 C 
HETATM   15  C   UNL     1      44.171 -19.666   5.041  1.00  0.00     0.034 C 
ENDBRANCH  13  14
ENDBRANCH   7  13
ENDBRANCH   1   5
BRANCH   2  16
HETATM   16  C   UNL     1      44.242 -11.175   7.958  1.00  0.00     0.064 A 
HETATM   17  C   UNL     1      43.718 -10.131   8.736  1.00  0.00     0.088 A 
HETATM   18  C   UNL     1      44.435  -8.974   9.038  1.00  0.00     0.014 A 
HETATM   19  N   UNL     1      42.506  -9.949   9.352  1.00  0.00    -0.275 N 
HETATM   20  C   UNL     1      43.555  -8.190   9.817  1.00  0.00     0.152 A 
HETATM   21  C   UNL     1      45.748  -8.822   8.559  1.00  0.00     0.015 A 
HETATM   22  N   UNL     1      42.375  -8.781  10.011  1.00  0.00    -0.186 NA
HETATM   23  C   UNL     1      46.299  -9.845   7.788  1.00  0.00     0.003 A 
HETATM   24  C   UNL     1      45.560 -10.992   7.494  1.00  0.00     0.032 A 
HETATM   25  H   UNL     1      41.731 -10.611   9.349  1.00  0.00     0.189 HD
ENDBRANCH   2  16
TORSDOF 4
ENDMDL
MODEL 9
REMARK VINA RESULT:      -7.3      9.859     12.085
REMARK  4 active torsions:
REMARK  status: ('A' for Active; 'I' for Inactive)
REMARK    1  A    between atoms: C_2  and  O_3 
REMARK    2  A    between atoms: O_3  and  C_4 
REMARK    3  A    between atoms: C_7  and  C_8 
REMARK       I    between atoms: C_8  and  N_9 
REMARK    4  A    between atoms: N_9  and  C_10 
ROOT
HETATM    1  C   UNL     1      42.609  -9.377   9.967  1.00  0.00     0.262 C 
HETATM    2  N   UNL     1      43.327 -10.520   9.659  1.00  0.00    -0.321 N 
HETATM    3  O   UNL     1      42.567  -8.378   9.257  1.00  0.00    -0.267 OA
HETATM    4  H   UNL     1      43.323 -11.266  10.346  1.00  0.00     0.169 HD
ENDROOT
BRANCH   1   5
HETATM    5  C   UNL     1      41.841  -9.386  11.250  1.00  0.00     0.112 A 
HETATM    6  C   UNL     1      42.420  -9.048  12.483  1.00  0.00     0.168 A 
HETATM    7  C   UNL     1      41.674  -9.077  13.671  1.00  0.00     0.108 A 
HETATM    8  F   UNL     1      43.718  -8.706  12.525  1.00  0.00    -0.202 F 
HETATM    9  C   UNL     1      40.332  -9.462  13.625  1.00  0.00     0.043 A 
HETATM   10  C   UNL     1      39.739  -9.793  12.410  1.00  0.00     0.046 A 
HETATM   11  C   UNL     1      40.490  -9.753  11.237  1.00  0.00     0.135 A 
HETATM   12  F   UNL     1      39.864 -10.097  10.104  1.00  0.00    -0.205 F 
BRANCH   7  13
HETATM   13  O   UNL     1      42.116  -8.780  14.932  1.00  0.00    -0.348 OA
BRANCH  13  14
HETATM   14  C   UNL     1      41.290  -7.953  15.749  1.00  0.00     0.171 C 
HETATM   15  C   UNL     1      42.141  -6.798  16.245  1.00  0.00     0.034 C 
ENDBRANCH  13  14
ENDBRANCH   7  13
ENDBRANCH   1   5
BRANCH   2  16
HETATM   16  C   UNL     1      44.081 -10.792   8.495  1.00  0.00     0.064 A 
HETATM   17  C   UNL     1      43.617 -11.332   7.287  1.00  0.00     0.088 A 
HETATM   18  C   UNL     1      44.449 -11.585   6.197  1.00  0.00     0.014 A 
HETATM   19  N   UNL     1      42.373 -11.727   6.861  1.00  0.00    -0.275 N 
HETATM   20  C   UNL     1      43.601 -12.128   5.206  1.00  0.00     0.152 A 
HETATM   21  C   UNL     1      45.820 -11.289   6.283  1.00  0.00     0.015 A 
HETATM   22  N   UNL     1      42.332 -12.218   5.608  1.00  0.00    -0.186 NA
HETATM   23  C   UNL     1      46.312 -10.746   7.469  1.00  0.00     0.003 A 
HETATM   24  C   UNL     1      45.460 -10.506   8.549  1.00  0.00     0.032 A 
HETATM   25  H   UNL     1      41.513 -11.673   7.406  1.00  0.00     0.189 HD
ENDBRANCH   2  16
TORSDOF 4
ENDMDL
MODEL 10
REMARK VINA RESULT:      -7.3      4.109      7.578
REMARK  4 active torsions:
REMARK  status: ('A' for Active; 'I' for Inactive)
REMARK    1  A    between atoms: C_2  and  O_3 
REMARK    2  A    between atoms: O_3  and  C_4 
REMARK    3  A    between atoms: C_7  and  C_8 
REMARK       I    between atoms: C_8  and  N_9 
REMARK    4  A    between atoms: N_9  and  C_10 
ROOT
HETATM    1  C   UNL     1      42.228 -14.790   4.956  1.00  0.00     0.262 C 
HETATM    2  N   UNL     1      42.813 -13.598   4.566  1.00  0.00    -0.321 N 
HETATM    3  O   UNL     1      41.476 -14.905   5.918  1.00  0.00    -0.267 OA
HETATM    4  H   UNL     1      43.455 -13.635   3.782  1.00  0.00     0.169 HD
ENDROOT
BRANCH   1   5
HETATM    5  C   UNL     1      42.547 -16.000   4.137  1.00  0.00     0.112 A 
HETATM    6  C   UNL     1      43.495 -16.956   4.532  1.00  0.00     0.168 A 
HETATM    7  C   UNL     1      43.778 -18.075   3.735  1.00  0.00     0.108 A 
HETATM    8  F   UNL     1      44.155 -16.785   5.690  1.00  0.00    -0.202 F 
HETATM    9  C   UNL     1      43.110 -18.232   2.519  1.00  0.00     0.043 A 
HETATM   10  C   UNL     1      42.161 -17.298   2.114  1.00  0.00     0.046 A 
HETATM   11  C   UNL     1      41.884 -16.196   2.919  1.00  0.00     0.135 A 
HETATM   12  F   UNL     1      40.971 -15.327   2.466  1.00  0.00    -0.205 F 
BRANCH   7  13
HETATM   13  O   UNL     1      44.679 -19.071   3.998  1.00  0.00    -0.348 OA
BRANCH  13  14
HETATM   14  C   UNL     1      44.179 -20.396   4.162  1.00  0.00     0.171 C 
HETATM   15  C   UNL     1      43.873 -20.595   5.635  1.00  0.00     0.034 C 
ENDBRANCH  13  14
ENDBRANCH   7  13
ENDBRANCH   1   5
BRANCH   2  16
HETATM   16  C   UNL     1      42.636 -12.312   5.124  1.00  0.00     0.064 A 
HETATM   17  C   UNL     1      43.206 -11.810   6.304  1.00  0.00     0.088 A 
HETATM   18  C   UNL     1      42.950 -10.526   6.786  1.00  0.00     0.014 A 
HETATM   19  N   UNL     1      44.069 -12.351   7.224  1.00  0.00    -0.275 N 
HETATM   20  C   UNL     1      43.698 -10.428   7.981  1.00  0.00     0.152 A 
HETATM   21  C   UNL     1      42.091  -9.673   6.074  1.00  0.00     0.015 A 
HETATM   22  N   UNL     1      44.382 -11.540   8.253  1.00  0.00    -0.186 NA
HETATM   23  C   UNL     1      41.513 -10.140   4.895  1.00  0.00     0.003 A 
HETATM   24  C   UNL     1      41.779 -11.431   4.435  1.00  0.00     0.032 A 
HETATM   25  H   UNL     1      44.476 -13.285   7.181  1.00  0.00     0.189 HD
ENDBRANCH   2  16
TORSDOF 4
ENDMDL
