MODEL 1
REMARK VINA RESULT:      -8.1      0.000      0.000
REMARK  9 active torsions:
REMARK  status: ('A' for Active; 'I' for Inactive)
REMARK    1  A    between atoms: C_2  and  O_3 
REMARK    2  A    between atoms: O_3  and  C_4 
REMARK    3  A    between atoms: C_7  and  N_8 
REMARK       I    between atoms: N_8  and  C_9 
REMARK    4  A    between atoms: C_9  and  C_10 
REMARK    5  A    between atoms: C_11  and  N_12 
REMARK       I    between atoms: N_12  and  C_13 
REMARK    6  A    between atoms: C_13  and  C_14 
REMARK    7  A    between atoms: C_14  and  N_15 
REMARK    8  A    between atoms: N_15  and  C_18 
REMARK    9  A    between atoms: C_18  and  C_19 
ROOT
HETATM    1  C   UNL     1      43.154 -10.824   6.810  1.00  0.00     0.073 A 
HETATM    2  C   UNL     1      42.080 -10.036   6.371  1.00  0.00     0.093 A 
HETATM    3  S   UNL     1      41.982  -8.521   7.158  1.00  0.00    -0.075 SA
HETATM    4  C   UNL     1      43.297  -8.900   8.107  1.00  0.00    -0.008 A 
HETATM    5  C   UNL     1      43.832 -10.135   7.862  1.00  0.00    -0.026 A 
HETATM    6  C   UNL     1      44.973 -10.386   8.791  1.00  0.00     0.041 C 
HETATM    7  C   UNL     1      44.804  -9.261   9.857  1.00  0.00     0.010 C 
HETATM    8  C   UNL     1      43.971  -8.134   9.182  1.00  0.00     0.047 C 
ENDROOT
BRANCH   2   9
HETATM    9  N   UNL     1      41.146 -10.410   5.413  1.00  0.00    -0.319 N 
HETATM   10  C   UNL     1      40.200 -11.403   5.518  1.00  0.00     0.248 C 
HETATM   11  O   UNL     1      39.916 -12.102   6.490  1.00  0.00    -0.271 OA
HETATM   12  H   UNL     1      41.193  -9.834   4.569  1.00  0.00     0.169 HD
BRANCH  10  13
HETATM   13  C   UNL     1      39.391 -11.625   4.239  1.00  0.00     0.335 C 
BRANCH  13  14
HETATM   14  N   UNL     1      39.265 -13.112   3.996  1.00  0.00    -0.059 N 
HETATM   15  H   UNL     1      39.892 -13.548   4.697  1.00  0.00     0.278 HD
HETATM   16  H   UNL     1      38.333 -13.418   4.300  1.00  0.00     0.278 HD
BRANCH  14  17
HETATM   17  C   UNL     1      39.589 -13.658   2.645  1.00  0.00     0.215 C 
HETATM   18  C   UNL     1      39.666 -12.514   1.635  1.00  0.00     0.045 C 
BRANCH  17  19
HETATM   19  C   UNL     1      40.772 -14.602   2.690  1.00  0.00    -0.028 A 
HETATM   20  C   UNL     1      40.652 -15.987   2.500  1.00  0.00     0.009 A 
HETATM   21  C   UNL     1      41.782 -16.811   2.525  1.00  0.00     0.001 A 
HETATM   22  C   UNL     1      43.043 -16.265   2.737  1.00  0.00     0.000 A 
HETATM   23  C   UNL     1      43.183 -14.893   2.926  1.00  0.00     0.001 A 
HETATM   24  C   UNL     1      42.058 -14.068   2.900  1.00  0.00     0.009 A 
ENDBRANCH  17  19
ENDBRANCH  14  17
ENDBRANCH  13  14
ENDBRANCH  10  13
ENDBRANCH   2   9
BRANCH   1  25
HETATM   25  C   UNL     1      43.433 -12.140   6.202  1.00  0.00     0.259 C 
HETATM   26  N   UNL     1      42.941 -13.217   6.909  1.00  0.00    -0.323 N 
HETATM   27  H   UNL     1      42.466 -13.013   7.774  1.00  0.00     0.169 HD
HETATM   28  O   UNL     1      44.113 -12.202   5.178  1.00  0.00    -0.267 OA
BRANCH  26  29
HETATM   29  C   UNL     1      43.118 -14.590   6.645  1.00  0.00     0.035 A 
HETATM   30  C   UNL     1      44.358 -15.224   6.553  1.00  0.00     0.032 A 
HETATM   31  C   UNL     1      44.437 -16.609   6.342  1.00  0.00     0.039 A 
HETATM   32  C   UNL     1      43.276 -17.371   6.222  1.00  0.00     0.068 A 
HETATM   33  C   UNL     1      42.039 -16.734   6.273  1.00  0.00     0.039 A 
HETATM   34  C   UNL     1      41.958 -15.356   6.486  1.00  0.00     0.032 A 
BRANCH  32  35
HETATM   35  O   UNL     1      43.219 -18.723   6.041  1.00  0.00    -0.352 OA
BRANCH  35  36
HETATM   36  C   UNL     1      44.010 -19.263   4.983  1.00  0.00     0.171 C 
HETATM   37  C   UNL     1      44.254 -20.731   5.284  1.00  0.00     0.034 C 
ENDBRANCH  35  36
ENDBRANCH  32  35
ENDBRANCH  26  29
ENDBRANCH   1  25
TORSDOF 9
ENDMDL
MODEL 2
REMARK VINA RESULT:      -8.1      3.000      6.674
REMARK  9 active torsions:
REMARK  status: ('A' for Active; 'I' for Inactive)
REMARK    1  A    between atoms: C_2  and  O_3 
REMARK    2  A    between atoms: O_3  and  C_4 
REMARK    3  A    between atoms: C_7  and  N_8 
REMARK       I    between atoms: N_8  and  C_9 
REMARK    4  A    between atoms: C_9  and  C_10 
REMARK    5  A    between atoms: C_11  and  N_12 
REMARK       I    between atoms: N_12  and  C_13 
REMARK    6  A    between atoms: C_13  and  C_14 
REMARK    7  A    between atoms: C_14  and  N_15 
REMARK    8  A    between atoms: N_15  and  C_18 
REMARK    9  A    between atoms: C_18  and  C_19 
ROOT
HETATM    1  C   UNL     1      40.507 -13.994   0.303  1.00  0.00     0.073 A 
HETATM    2  C   UNL     1      40.928 -12.662   0.415  1.00  0.00     0.093 A 
HETATM    3  S   UNL     1      40.390 -11.668  -0.870  1.00  0.00    -0.075 SA
HETATM    4  C   UNL     1      39.656 -12.971  -1.604  1.00  0.00    -0.008 A 
HETATM    5  C   UNL     1      39.786 -14.150  -0.922  1.00  0.00    -0.026 A 
HETATM    6  C   UNL     1      39.130 -15.252  -1.684  1.00  0.00     0.041 C 
HETATM    7  C   UNL     1      38.902 -14.612  -3.088  1.00  0.00     0.010 C 
HETATM    8  C   UNL     1      38.904 -13.071  -2.876  1.00  0.00     0.047 C 
ENDROOT
BRANCH   2   9
HETATM    9  N   UNL     1      41.722 -12.151   1.434  1.00  0.00    -0.319 N 
HETATM   10  C   UNL     1      41.310 -11.728   2.676  1.00  0.00     0.248 C 
HETATM   11  O   UNL     1      40.190 -11.790   3.183  1.00  0.00    -0.271 OA
HETATM   12  H   UNL     1      42.716 -12.137   1.191  1.00  0.00     0.169 HD
BRANCH  10  13
HETATM   13  C   UNL     1      42.429 -11.126   3.528  1.00  0.00     0.335 C 
BRANCH  13  14
HETATM   14  N   UNL     1      42.103 -11.351   4.987  1.00  0.00    -0.059 N 
HETATM   15  H   UNL     1      41.988 -10.399   5.380  1.00  0.00     0.278 HD
HETATM   16  H   UNL     1      41.157 -11.745   5.057  1.00  0.00     0.278 HD
BRANCH  14  17
HETATM   17  C   UNL     1      43.062 -12.116   5.836  1.00  0.00     0.215 C 
HETATM   18  C   UNL     1      43.567 -11.226   6.971  1.00  0.00     0.045 C 
BRANCH  17  19
HETATM   19  C   UNL     1      42.506 -13.467   6.233  1.00  0.00    -0.028 A 
HETATM   20  C   UNL     1      41.261 -13.941   5.790  1.00  0.00     0.009 A 
HETATM   21  C   UNL     1      40.806 -15.209   6.166  1.00  0.00     0.001 A 
HETATM   22  C   UNL     1      41.585 -16.020   6.984  1.00  0.00     0.000 A 
HETATM   23  C   UNL     1      42.823 -15.568   7.432  1.00  0.00     0.001 A 
HETATM   24  C   UNL     1      43.281 -14.305   7.058  1.00  0.00     0.009 A 
ENDBRANCH  17  19
ENDBRANCH  14  17
ENDBRANCH  13  14
ENDBRANCH  10  13
ENDBRANCH   2   9
BRANCH   1  25
HETATM   25  C   UNL     1      40.825 -14.986   1.350  1.00  0.00     0.259 C 
HETATM   26  N   UNL     1      42.133 -15.423   1.350  1.00  0.00    -0.323 N 
HETATM   27  H   UNL     1      42.736 -15.053   0.633  1.00  0.00     0.169 HD
HETATM   28  O   UNL     1      39.930 -15.393   2.089  1.00  0.00    -0.267 OA
BRANCH  26  29
HETATM   29  C   UNL     1      42.719 -16.422   2.153  1.00  0.00     0.035 A 
HETATM   30  C   UNL     1      42.805 -17.770   1.802  1.00  0.00     0.032 A 
HETATM   31  C   UNL     1      43.457 -18.685   2.642  1.00  0.00     0.039 A 
HETATM   32  C   UNL     1      44.030 -18.260   3.838  1.00  0.00     0.068 A 
HETATM   33  C   UNL     1      43.911 -16.923   4.210  1.00  0.00     0.039 A 
HETATM   34  C   UNL     1      43.264 -16.010   3.375  1.00  0.00     0.032 A 
BRANCH  32  35
HETATM   35  O   UNL     1      44.711 -19.044   4.726  1.00  0.00    -0.352 OA
BRANCH  35  36
HETATM   36  C   UNL     1      44.009 -20.165   5.262  1.00  0.00     0.171 C 
HETATM   37  C   UNL     1      43.343 -19.724   6.553  1.00  0.00     0.034 C 
ENDBRANCH  35  36
ENDBRANCH  32  35
ENDBRANCH  26  29
ENDBRANCH   1  25
TORSDOF 9
ENDMDL
MODEL 3
REMARK VINA RESULT:      -8.1      3.185      8.361
REMARK  9 active torsions:
REMARK  status: ('A' for Active; 'I' for Inactive)
REMARK    1  A    between atoms: C_2  and  O_3 
REMARK    2  A    between atoms: O_3  and  C_4 
REMARK    3  A    between atoms: C_7  and  N_8 
REMARK       I    between atoms: N_8  and  C_9 
REMARK    4  A    between atoms: C_9  and  C_10 
REMARK    5  A    between atoms: C_11  and  N_12 
REMARK       I    between atoms: N_12  and  C_13 
REMARK    6  A    between atoms: C_13  and  C_14 
REMARK    7  A    between atoms: C_14  and  N_15 
REMARK    8  A    between atoms: N_15  and  C_18 
REMARK    9  A    between atoms: C_18  and  C_19 
ROOT
HETATM    1  C   UNL     1      43.327 -16.855   3.329  1.00  0.00     0.073 A 
HETATM    2  C   UNL     1      43.405 -16.471   4.675  1.00  0.00     0.093 A 
HETATM    3  S   UNL     1      43.824 -17.755   5.725  1.00  0.00    -0.075 SA
HETATM    4  C   UNL     1      43.854 -18.823   4.448  1.00  0.00    -0.008 A 
HETATM    5  C   UNL     1      43.564 -18.261   3.235  1.00  0.00    -0.026 A 
HETATM    6  C   UNL     1      43.579 -19.310   2.174  1.00  0.00     0.041 C 
HETATM    7  C   UNL     1      43.571 -20.634   2.997  1.00  0.00     0.010 C 
HETATM    8  C   UNL     1      44.122 -20.280   4.407  1.00  0.00     0.047 C 
ENDROOT
BRANCH   2   9
HETATM    9  N   UNL     1      43.154 -15.195   5.165  1.00  0.00    -0.319 N 
HETATM   10  C   UNL     1      41.978 -14.727   5.701  1.00  0.00     0.248 C 
HETATM   11  O   UNL     1      40.940 -15.342   5.945  1.00  0.00    -0.271 OA
HETATM   12  H   UNL     1      43.977 -14.587   5.123  1.00  0.00     0.169 HD
BRANCH  10  13
HETATM   13  C   UNL     1      42.006 -13.239   6.053  1.00  0.00     0.335 C 
BRANCH  13  14
HETATM   14  N   UNL     1      43.187 -12.977   6.961  1.00  0.00    -0.059 N 
HETATM   15  H   UNL     1      42.785 -12.492   7.783  1.00  0.00     0.278 HD
HETATM   16  H   UNL     1      43.505 -13.871   7.354  1.00  0.00     0.278 HD
BRANCH  14  17
HETATM   17  C   UNL     1      44.341 -12.185   6.442  1.00  0.00     0.215 C 
HETATM   18  C   UNL     1      44.018 -11.666   5.042  1.00  0.00     0.045 C 
BRANCH  17  19
HETATM   19  C   UNL     1      44.816 -11.160   7.450  1.00  0.00    -0.028 A 
HETATM   20  C   UNL     1      45.982 -10.399   7.274  1.00  0.00     0.009 A 
HETATM   21  C   UNL     1      46.362  -9.446   8.225  1.00  0.00     0.001 A 
HETATM   22  C   UNL     1      45.585  -9.239   9.359  1.00  0.00     0.000 A 
HETATM   23  C   UNL     1      44.424  -9.982   9.551  1.00  0.00     0.001 A 
HETATM   24  C   UNL     1      44.041 -10.933   8.604  1.00  0.00     0.009 A 
ENDBRANCH  17  19
ENDBRANCH  14  17
ENDBRANCH  13  14
ENDBRANCH  10  13
ENDBRANCH   2   9
BRANCH   1  25
HETATM   25  C   UNL     1      43.037 -15.868   2.270  1.00  0.00     0.259 C 
HETATM   26  N   UNL     1      41.722 -15.456   2.212  1.00  0.00    -0.323 N 
HETATM   27  H   UNL     1      41.085 -15.877   2.869  1.00  0.00     0.169 HD
HETATM   28  O   UNL     1      43.931 -15.532   1.494  1.00  0.00    -0.267 OA
BRANCH  26  29
HETATM   29  C   UNL     1      41.114 -14.604   1.268  1.00  0.00     0.035 A 
HETATM   30  C   UNL     1      41.375 -13.238   1.151  1.00  0.00     0.032 A 
HETATM   31  C   UNL     1      40.763 -12.478   0.143  1.00  0.00     0.039 A 
HETATM   32  C   UNL     1      39.886 -13.079  -0.757  1.00  0.00     0.068 A 
HETATM   33  C   UNL     1      39.592 -14.433  -0.617  1.00  0.00     0.039 A 
HETATM   34  C   UNL     1      40.202 -15.192   0.383  1.00  0.00     0.032 A 
BRANCH  32  35
HETATM   35  O   UNL     1      39.248 -12.456  -1.793  1.00  0.00    -0.352 OA
BRANCH  35  36
HETATM   36  C   UNL     1      38.254 -13.213  -2.482  1.00  0.00     0.171 C 
HETATM   37  C   UNL     1      37.019 -12.341  -2.624  1.00  0.00     0.034 C 
ENDBRANCH  35  36
ENDBRANCH  32  35
ENDBRANCH  26  29
ENDBRANCH   1  25
TORSDOF 9
ENDMDL
MODEL 4
REMARK VINA RESULT:      -7.6      3.337      7.856
REMARK  9 active torsions:
REMARK  status: ('A' for Active; 'I' for Inactive)
REMARK    1  A    between atoms: C_2  and  O_3 
REMARK    2  A    between atoms: O_3  and  C_4 
REMARK    3  A    between atoms: C_7  and  N_8 
REMARK       I    between atoms: N_8  and  C_9 
REMARK    4  A    between atoms: C_9  and  C_10 
REMARK    5  A    between atoms: C_11  and  N_12 
REMARK       I    between atoms: N_12  and  C_13 
REMARK    6  A    between atoms: C_13  and  C_14 
REMARK    7  A    between atoms: C_14  and  N_15 
REMARK    8  A    between atoms: N_15  and  C_18 
REMARK    9  A    between atoms: C_18  and  C_19 
ROOT
HETATM    1  C   UNL     1      43.314 -16.793   3.293  1.00  0.00     0.073 A 
HETATM    2  C   UNL     1      43.367 -16.279   4.597  1.00  0.00     0.093 A 
HETATM    3  S   UNL     1      43.816 -17.441   5.769  1.00  0.00    -0.075 SA
HETATM    4  C   UNL     1      43.893 -18.626   4.601  1.00  0.00    -0.008 A 
HETATM    5  C   UNL     1      43.598 -18.193   3.337  1.00  0.00    -0.026 A 
HETATM    6  C   UNL     1      43.657 -19.338   2.383  1.00  0.00     0.041 C 
HETATM    7  C   UNL     1      43.683 -20.576   3.329  1.00  0.00     0.010 C 
HETATM    8  C   UNL     1      44.208 -20.070   4.703  1.00  0.00     0.047 C 
ENDROOT
BRANCH   2   9
HETATM    9  N   UNL     1      43.070 -14.971   4.959  1.00  0.00    -0.319 N 
HETATM   10  C   UNL     1      41.901 -14.507   5.514  1.00  0.00     0.248 C 
HETATM   11  O   UNL     1      40.916 -15.143   5.888  1.00  0.00    -0.271 OA
HETATM   12  H   UNL     1      43.852 -14.329   4.800  1.00  0.00     0.169 HD
BRANCH  10  13
HETATM   13  C   UNL     1      41.863 -12.989   5.699  1.00  0.00     0.335 C 
BRANCH  13  14
HETATM   14  N   UNL     1      41.238 -12.365   4.472  1.00  0.00    -0.059 N 
HETATM   15  H   UNL     1      41.642 -11.412   4.427  1.00  0.00     0.278 HD
HETATM   16  H   UNL     1      41.626 -12.819   3.637  1.00  0.00     0.278 HD
BRANCH  14  17
HETATM   17  C   UNL     1      39.751 -12.269   4.382  1.00  0.00     0.215 C 
HETATM   18  C   UNL     1      39.178 -11.899   5.750  1.00  0.00     0.045 C 
BRANCH  17  19
HETATM   19  C   UNL     1      39.314 -11.414   3.212  1.00  0.00    -0.028 A 
HETATM   20  C   UNL     1      39.986 -10.243   2.827  1.00  0.00     0.009 A 
HETATM   21  C   UNL     1      39.555  -9.505   1.720  1.00  0.00     0.001 A 
HETATM   22  C   UNL     1      38.452  -9.925   0.983  1.00  0.00     0.000 A 
HETATM   23  C   UNL     1      37.774 -11.084   1.348  1.00  0.00     0.001 A 
HETATM   24  C   UNL     1      38.202 -11.824   2.450  1.00  0.00     0.009 A 
ENDBRANCH  17  19
ENDBRANCH  14  17
ENDBRANCH  13  14
ENDBRANCH  10  13
ENDBRANCH   2   9
BRANCH   1  25
HETATM   25  C   UNL     1      43.003 -15.923   2.142  1.00  0.00     0.259 C 
HETATM   26  N   UNL     1      41.693 -15.496   2.081  1.00  0.00    -0.323 N 
HETATM   27  H   UNL     1      41.073 -15.831   2.801  1.00  0.00     0.169 HD
HETATM   28  O   UNL     1      43.875 -15.690   1.306  1.00  0.00    -0.267 OA
BRANCH  26  29
HETATM   29  C   UNL     1      41.067 -14.741   1.069  1.00  0.00     0.035 A 
HETATM   30  C   UNL     1      40.056 -15.221   0.236  1.00  0.00     0.032 A 
HETATM   31  C   UNL     1      39.450 -14.379  -0.710  1.00  0.00     0.039 A 
HETATM   32  C   UNL     1      39.851 -13.050  -0.828  1.00  0.00     0.068 A 
HETATM   33  C   UNL     1      40.889 -12.580  -0.026  1.00  0.00     0.039 A 
HETATM   34  C   UNL     1      41.490 -13.415   0.917  1.00  0.00     0.032 A 
BRANCH  32  35
HETATM   35  O   UNL     1      39.326 -12.127  -1.688  1.00  0.00    -0.352 OA
BRANCH  35  36
HETATM   36  C   UNL     1      38.016 -12.387  -2.187  1.00  0.00     0.171 C 
HETATM   37  C   UNL     1      37.336 -11.052  -2.431  1.00  0.00     0.034 C 
ENDBRANCH  35  36
ENDBRANCH  32  35
ENDBRANCH  26  29
ENDBRANCH   1  25
TORSDOF 9
ENDMDL
MODEL 5
REMARK VINA RESULT:      -7.5      2.476      6.815
REMARK  9 active torsions:
REMARK  status: ('A' for Active; 'I' for Inactive)
REMARK    1  A    between atoms: C_2  and  O_3 
REMARK    2  A    between atoms: O_3  and  C_4 
REMARK    3  A    between atoms: C_7  and  N_8 
REMARK       I    between atoms: N_8  and  C_9 
REMARK    4  A    between atoms: C_9  and  C_10 
REMARK    5  A    between atoms: C_11  and  N_12 
REMARK       I    between atoms: N_12  and  C_13 
REMARK    6  A    between atoms: C_13  and  C_14 
REMARK    7  A    between atoms: C_14  and  N_15 
REMARK    8  A    between atoms: N_15  and  C_18 
REMARK    9  A    between atoms: C_18  and  C_19 
ROOT
HETATM    1  C   UNL     1      40.524 -13.385   0.905  1.00  0.00     0.073 A 
HETATM    2  C   UNL     1      40.073 -12.207   1.517  1.00  0.00     0.093 A 
HETATM    3  S   UNL     1      38.757 -11.479   0.702  1.00  0.00    -0.075 SA
HETATM    4  C   UNL     1      38.801 -12.657  -0.475  1.00  0.00    -0.008 A 
HETATM    5  C   UNL     1      39.771 -13.603  -0.290  1.00  0.00    -0.026 A 
HETATM    6  C   UNL     1      39.747 -14.580  -1.417  1.00  0.00     0.041 C 
HETATM    7  C   UNL     1      38.851 -13.866  -2.474  1.00  0.00     0.010 C 
HETATM    8  C   UNL     1      37.980 -12.841  -1.694  1.00  0.00     0.047 C 
ENDROOT
BRANCH   2   9
HETATM    9  N   UNL     1      40.620 -11.632   2.657  1.00  0.00    -0.319 N 
HETATM   10  C   UNL     1      40.542 -12.107   3.946  1.00  0.00     0.248 C 
HETATM   11  O   UNL     1      40.063 -13.165   4.354  1.00  0.00    -0.271 OA
HETATM   12  H   UNL     1      41.151 -10.781   2.456  1.00  0.00     0.169 HD
BRANCH  10  13
HETATM   13  C   UNL     1      41.169 -11.178   4.986  1.00  0.00     0.335 C 
BRANCH  13  14
HETATM   14  N   UNL     1      42.616 -11.572   5.180  1.00  0.00    -0.059 N 
HETATM   15  H   UNL     1      42.773 -12.339   4.501  1.00  0.00     0.278 HD
HETATM   16  H   UNL     1      43.214 -10.819   4.817  1.00  0.00     0.278 HD
BRANCH  14  17
HETATM   17  C   UNL     1      43.076 -12.012   6.529  1.00  0.00     0.215 C 
HETATM   18  C   UNL     1      43.470 -13.488   6.480  1.00  0.00     0.045 C 
BRANCH  17  19
HETATM   19  C   UNL     1      44.097 -11.059   7.113  1.00  0.00    -0.028 A 
HETATM   20  C   UNL     1      43.742  -9.897   7.817  1.00  0.00     0.009 A 
HETATM   21  C   UNL     1      44.726  -9.064   8.359  1.00  0.00     0.001 A 
HETATM   22  C   UNL     1      46.072  -9.379   8.210  1.00  0.00     0.000 A 
HETATM   23  C   UNL     1      46.444 -10.528   7.517  1.00  0.00     0.001 A 
HETATM   24  C   UNL     1      45.465 -11.362   6.977  1.00  0.00     0.009 A 
ENDBRANCH  17  19
ENDBRANCH  14  17
ENDBRANCH  13  14
ENDBRANCH  10  13
ENDBRANCH   2   9
BRANCH   1  25
HETATM   25  C   UNL     1      41.614 -14.185   1.499  1.00  0.00     0.259 C 
HETATM   26  N   UNL     1      41.214 -15.385   2.047  1.00  0.00    -0.323 N 
HETATM   27  H   UNL     1      40.228 -15.593   2.016  1.00  0.00     0.169 HD
HETATM   28  O   UNL     1      42.755 -13.727   1.527  1.00  0.00    -0.267 OA
BRANCH  26  29
HETATM   29  C   UNL     1      41.988 -16.321   2.762  1.00  0.00     0.035 A 
HETATM   30  C   UNL     1      42.773 -17.313   2.173  1.00  0.00     0.032 A 
HETATM   31  C   UNL     1      43.556 -18.167   2.965  1.00  0.00     0.039 A 
HETATM   32  C   UNL     1      43.562 -18.034   4.352  1.00  0.00     0.068 A 
HETATM   33  C   UNL     1      42.748 -17.071   4.944  1.00  0.00     0.039 A 
HETATM   34  C   UNL     1      41.970 -16.219   4.158  1.00  0.00     0.032 A 
BRANCH  32  35
HETATM   35  O   UNL     1      44.296 -18.783   5.227  1.00  0.00    -0.352 OA
BRANCH  35  36
HETATM   36  C   UNL     1      44.659 -20.095   4.802  1.00  0.00     0.171 C 
HETATM   37  C   UNL     1      43.581 -21.054   5.274  1.00  0.00     0.034 C 
ENDBRANCH  35  36
ENDBRANCH  32  35
ENDBRANCH  26  29
ENDBRANCH   1  25
TORSDOF 9
ENDMDL
MODEL 6
REMARK VINA RESULT:      -7.2      2.731      6.345
REMARK  9 active torsions:
REMARK  status: ('A' for Active; 'I' for Inactive)
REMARK    1  A    between atoms: C_2  and  O_3 
REMARK    2  A    between atoms: O_3  and  C_4 
REMARK    3  A    between atoms: C_7  and  N_8 
REMARK       I    between atoms: N_8  and  C_9 
REMARK    4  A    between atoms: C_9  and  C_10 
REMARK    5  A    between atoms: C_11  and  N_12 
REMARK       I    between atoms: N_12  and  C_13 
REMARK    6  A    between atoms: C_13  and  C_14 
REMARK    7  A    between atoms: C_14  and  N_15 
REMARK    8  A    between atoms: N_15  and  C_18 
REMARK    9  A    between atoms: C_18  and  C_19 
ROOT
HETATM    1  C   UNL     1      39.002 -11.187   3.000  1.00  0.00     0.073 A 
HETATM    2  C   UNL     1      38.716 -12.098   1.975  1.00  0.00     0.093 A 
HETATM    3  S   UNL     1      37.807 -11.419   0.695  1.00  0.00    -0.075 SA
HETATM    4  C   UNL     1      37.736  -9.956   1.488  1.00  0.00    -0.008 A 
HETATM    5  C   UNL     1      38.378  -9.937   2.696  1.00  0.00    -0.026 A 
HETATM    6  C   UNL     1      38.218  -8.599   3.335  1.00  0.00     0.041 C 
HETATM    7  C   UNL     1      37.087  -7.944   2.485  1.00  0.00     0.010 C 
HETATM    8  C   UNL     1      37.081  -8.680   1.115  1.00  0.00     0.047 C 
ENDROOT
BRANCH   2   9
HETATM    9  N   UNL     1      39.088 -13.437   1.960  1.00  0.00    -0.319 N 
HETATM   10  C   UNL     1      40.008 -14.035   1.132  1.00  0.00     0.248 C 
HETATM   11  O   UNL     1      40.755 -13.517   0.302  1.00  0.00    -0.271 OA
HETATM   12  H   UNL     1      38.616 -13.986   2.684  1.00  0.00     0.169 HD
BRANCH  10  13
HETATM   13  C   UNL     1      40.109 -15.550   1.311  1.00  0.00     0.335 C 
BRANCH  13  14
HETATM   14  N   UNL     1      41.158 -15.847   2.359  1.00  0.00    -0.059 N 
HETATM   15  H   UNL     1      41.199 -14.990   2.940  1.00  0.00     0.278 HD
HETATM   16  H   UNL     1      40.783 -16.548   3.011  1.00  0.00     0.278 HD
BRANCH  14  17
HETATM   17  C   UNL     1      42.538 -16.210   1.925  1.00  0.00     0.215 C 
HETATM   18  C   UNL     1      43.408 -14.954   1.878  1.00  0.00     0.045 C 
BRANCH  17  19
HETATM   19  C   UNL     1      43.085 -17.382   2.712  1.00  0.00    -0.028 A 
HETATM   20  C   UNL     1      43.157 -18.685   2.193  1.00  0.00     0.009 A 
HETATM   21  C   UNL     1      43.696 -19.726   2.954  1.00  0.00     0.001 A 
HETATM   22  C   UNL     1      44.171 -19.484   4.239  1.00  0.00     0.000 A 
HETATM   23  C   UNL     1      44.109 -18.199   4.770  1.00  0.00     0.001 A 
HETATM   24  C   UNL     1      43.574 -17.157   4.013  1.00  0.00     0.009 A 
ENDBRANCH  17  19
ENDBRANCH  14  17
ENDBRANCH  13  14
ENDBRANCH  10  13
ENDBRANCH   2   9
BRANCH   1  25
HETATM   25  C   UNL     1      39.828 -11.577   4.160  1.00  0.00     0.259 C 
HETATM   26  N   UNL     1      41.033 -10.913   4.259  1.00  0.00    -0.323 N 
HETATM   27  H   UNL     1      41.248 -10.252   3.529  1.00  0.00     0.169 HD
HETATM   28  O   UNL     1      39.440 -12.478   4.904  1.00  0.00    -0.267 OA
BRANCH  26  29
HETATM   29  C   UNL     1      42.072 -11.123   5.187  1.00  0.00     0.035 A 
HETATM   30  C   UNL     1      43.123 -12.022   5.008  1.00  0.00     0.032 A 
HETATM   31  C   UNL     1      44.146 -12.124   5.964  1.00  0.00     0.039 A 
HETATM   32  C   UNL     1      44.126 -11.325   7.105  1.00  0.00     0.068 A 
HETATM   33  C   UNL     1      43.057 -10.456   7.306  1.00  0.00     0.039 A 
HETATM   34  C   UNL     1      42.039 -10.351   6.355  1.00  0.00     0.032 A 
BRANCH  32  35
HETATM   35  O   UNL     1      45.070 -11.312   8.092  1.00  0.00    -0.352 OA
BRANCH  35  36
HETATM   36  C   UNL     1      46.273 -10.594   7.820  1.00  0.00     0.171 C 
HETATM   37  C   UNL     1      46.111  -9.188   8.367  1.00  0.00     0.034 C 
ENDBRANCH  35  36
ENDBRANCH  32  35
ENDBRANCH  26  29
ENDBRANCH   1  25
TORSDOF 9
ENDMDL
MODEL 7
REMARK VINA RESULT:      -7.0     16.932     19.008
REMARK  9 active torsions:
REMARK  status: ('A' for Active; 'I' for Inactive)
REMARK    1  A    between atoms: C_2  and  O_3 
REMARK    2  A    between atoms: O_3  and  C_4 
REMARK    3  A    between atoms: C_7  and  N_8 
REMARK       I    between atoms: N_8  and  C_9 
REMARK    4  A    between atoms: C_9  and  C_10 
REMARK    5  A    between atoms: C_11  and  N_12 
REMARK       I    between atoms: N_12  and  C_13 
REMARK    6  A    between atoms: C_13  and  C_14 
REMARK    7  A    between atoms: C_14  and  N_15 
REMARK    8  A    between atoms: N_15  and  C_18 
REMARK    9  A    between atoms: C_18  and  C_19 
ROOT
HETATM    1  C   UNL     1      45.019 -29.942  -0.420  1.00  0.00     0.073 A 
HETATM    2  C   UNL     1      46.313 -29.512  -0.092  1.00  0.00     0.093 A 
HETATM    3  S   UNL     1      47.048 -28.570  -1.316  1.00  0.00    -0.075 SA
HETATM    4  C   UNL     1      45.715 -28.760  -2.298  1.00  0.00    -0.008 A 
HETATM    5  C   UNL     1      44.711 -29.508  -1.747  1.00  0.00    -0.026 A 
HETATM    6  C   UNL     1      43.590 -29.647  -2.721  1.00  0.00     0.041 C 
HETATM    7  C   UNL     1      44.233 -29.168  -4.058  1.00  0.00     0.010 C 
HETATM    8  C   UNL     1      45.443 -28.271  -3.670  1.00  0.00     0.047 C 
ENDROOT
BRANCH   2   9
HETATM    9  N   UNL     1      46.986 -29.812   1.086  1.00  0.00    -0.319 N 
HETATM   10  C   UNL     1      47.383 -28.930   2.064  1.00  0.00     0.248 C 
HETATM   11  O   UNL     1      47.156 -27.724   2.157  1.00  0.00    -0.271 OA
HETATM   12  H   UNL     1      47.155 -30.815   1.200  1.00  0.00     0.169 HD
BRANCH  10  13
HETATM   13  C   UNL     1      48.193 -29.577   3.188  1.00  0.00     0.335 C 
BRANCH  13  14
HETATM   14  N   UNL     1      49.603 -29.032   3.146  1.00  0.00    -0.059 N 
HETATM   15  H   UNL     1      49.657 -28.509   2.253  1.00  0.00     0.278 HD
HETATM   16  H   UNL     1      49.691 -28.291   3.851  1.00  0.00     0.278 HD
BRANCH  14  17
HETATM   17  C   UNL     1      50.752 -29.981   3.226  1.00  0.00     0.215 C 
HETATM   18  C   UNL     1      50.798 -30.614   4.616  1.00  0.00     0.045 C 
BRANCH  17  19
HETATM   19  C   UNL     1      50.778 -30.932   2.048  1.00  0.00    -0.028 A 
HETATM   20  C   UNL     1      50.773 -32.328   2.193  1.00  0.00     0.009 A 
HETATM   21  C   UNL     1      50.770 -33.161   1.070  1.00  0.00     0.001 A 
HETATM   22  C   UNL     1      50.771 -32.615  -0.209  1.00  0.00     0.000 A 
HETATM   23  C   UNL     1      50.774 -31.233  -0.373  1.00  0.00     0.001 A 
HETATM   24  C   UNL     1      50.774 -30.398   0.745  1.00  0.00     0.009 A 
ENDBRANCH  17  19
ENDBRANCH  14  17
ENDBRANCH  13  14
ENDBRANCH  10  13
ENDBRANCH   2   9
BRANCH   1  25
HETATM   25  C   UNL     1      44.206 -30.715   0.539  1.00  0.00     0.259 C 
HETATM   26  N   UNL     1      43.042 -30.094   0.938  1.00  0.00    -0.323 N 
HETATM   27  H   UNL     1      42.867 -29.174   0.566  1.00  0.00     0.169 HD
HETATM   28  O   UNL     1      44.625 -31.794   0.956  1.00  0.00    -0.267 OA
BRANCH  26  29
HETATM   29  C   UNL     1      42.108 -30.525   1.902  1.00  0.00     0.035 A 
HETATM   30  C   UNL     1      41.103 -31.464   1.666  1.00  0.00     0.032 A 
HETATM   31  C   UNL     1      40.252 -31.874   2.703  1.00  0.00     0.039 A 
HETATM   32  C   UNL     1      40.400 -31.350   3.985  1.00  0.00     0.068 A 
HETATM   33  C   UNL     1      41.376 -30.383   4.214  1.00  0.00     0.039 A 
HETATM   34  C   UNL     1      42.226 -29.975   3.184  1.00  0.00     0.032 A 
BRANCH  32  35
HETATM   35  O   UNL     1      39.655 -31.685   5.081  1.00  0.00    -0.352 OA
BRANCH  35  36
HETATM   36  C   UNL     1      40.370 -31.950   6.287  1.00  0.00     0.171 C 
HETATM   37  C   UNL     1      39.358 -32.310   7.359  1.00  0.00     0.034 C 
ENDBRANCH  35  36
ENDBRANCH  32  35
ENDBRANCH  26  29
ENDBRANCH   1  25
TORSDOF 9
ENDMDL
MODEL 8
REMARK VINA RESULT:      -7.0      2.681      6.458
REMARK  9 active torsions:
REMARK  status: ('A' for Active; 'I' for Inactive)
REMARK    1  A    between atoms: C_2  and  O_3 
REMARK    2  A    between atoms: O_3  and  C_4 
REMARK    3  A    between atoms: C_7  and  N_8 
REMARK       I    between atoms: N_8  and  C_9 
REMARK    4  A    between atoms: C_9  and  C_10 
REMARK    5  A    between atoms: C_11  and  N_12 
REMARK       I    between atoms: N_12  and  C_13 
REMARK    6  A    between atoms: C_13  and  C_14 
REMARK    7  A    between atoms: C_14  and  N_15 
REMARK    8  A    between atoms: N_15  and  C_18 
REMARK    9  A    between atoms: C_18  and  C_19 
ROOT
HETATM    1  C   UNL     1      39.067 -11.146   2.769  1.00  0.00     0.073 A 
HETATM    2  C   UNL     1      38.816 -12.099   1.772  1.00  0.00     0.093 A 
HETATM    3  S   UNL     1      37.903 -11.487   0.462  1.00  0.00    -0.075 SA
HETATM    4  C   UNL     1      37.784 -10.001   1.205  1.00  0.00    -0.008 A 
HETATM    5  C   UNL     1      38.412  -9.925   2.418  1.00  0.00    -0.026 A 
HETATM    6  C   UNL     1      38.208  -8.571   3.010  1.00  0.00     0.041 C 
HETATM    7  C   UNL     1      37.069  -7.976   2.127  1.00  0.00     0.010 C 
HETATM    8  C   UNL     1      37.098  -8.758   0.783  1.00  0.00     0.047 C 
ENDROOT
BRANCH   2   9
HETATM    9  N   UNL     1      39.224 -13.426   1.806  1.00  0.00    -0.319 N 
HETATM   10  C   UNL     1      40.386 -13.952   1.291  1.00  0.00     0.248 C 
HETATM   11  O   UNL     1      41.341 -13.366   0.780  1.00  0.00    -0.271 OA
HETATM   12  H   UNL     1      38.565 -14.030   2.305  1.00  0.00     0.169 HD
BRANCH  10  13
HETATM   13  C   UNL     1      40.483 -15.473   1.410  1.00  0.00     0.335 C 
BRANCH  13  14
HETATM   14  N   UNL     1      40.667 -15.837   2.866  1.00  0.00    -0.059 N 
HETATM   15  H   UNL     1      40.570 -14.940   3.375  1.00  0.00     0.278 HD
HETATM   16  H   UNL     1      39.846 -16.369   3.179  1.00  0.00     0.278 HD
BRANCH  14  17
HETATM   17  C   UNL     1      41.929 -16.507   3.294  1.00  0.00     0.215 C 
HETATM   18  C   UNL     1      42.922 -16.522   2.133  1.00  0.00     0.045 C 
BRANCH  17  19
HETATM   19  C   UNL     1      42.437 -15.960   4.611  1.00  0.00    -0.028 A 
HETATM   20  C   UNL     1      43.661 -16.348   5.180  1.00  0.00     0.009 A 
HETATM   21  C   UNL     1      44.095 -15.790   6.386  1.00  0.00     0.001 A 
HETATM   22  C   UNL     1      43.318 -14.840   7.040  1.00  0.00     0.000 A 
HETATM   23  C   UNL     1      42.102 -14.441   6.491  1.00  0.00     0.001 A 
HETATM   24  C   UNL     1      41.667 -14.993   5.286  1.00  0.00     0.009 A 
ENDBRANCH  17  19
ENDBRANCH  14  17
ENDBRANCH  13  14
ENDBRANCH  10  13
ENDBRANCH   2   9
BRANCH   1  25
HETATM   25  C   UNL     1      39.891 -11.475   3.949  1.00  0.00     0.259 C 
HETATM   26  N   UNL     1      41.005 -10.679   4.113  1.00  0.00    -0.323 N 
HETATM   27  H   UNL     1      41.167  -9.975   3.411  1.00  0.00     0.169 HD
HETATM   28  O   UNL     1      39.585 -12.437   4.652  1.00  0.00    -0.267 OA
BRANCH  26  29
HETATM   29  C   UNL     1      42.029 -10.796   5.075  1.00  0.00     0.035 A 
HETATM   30  C   UNL     1      41.909 -10.404   6.409  1.00  0.00     0.032 A 
HETATM   31  C   UNL     1      42.964 -10.610   7.311  1.00  0.00     0.039 A 
HETATM   32  C   UNL     1      44.147 -11.210   6.886  1.00  0.00     0.068 A 
HETATM   33  C   UNL     1      44.285 -11.565   5.546  1.00  0.00     0.039 A 
HETATM   34  C   UNL     1      43.235 -11.363   4.647  1.00  0.00     0.032 A 
BRANCH  32  35
HETATM   35  O   UNL     1      45.233 -11.487   7.667  1.00  0.00    -0.352 OA
BRANCH  35  36
HETATM   36  C   UNL     1      45.572 -10.521   8.660  1.00  0.00     0.171 C 
HETATM   37  C   UNL     1      46.335  -9.399   7.979  1.00  0.00     0.034 C 
ENDBRANCH  35  36
ENDBRANCH  32  35
ENDBRANCH  26  29
ENDBRANCH   1  25
TORSDOF 9
ENDMDL
MODEL 9
REMARK VINA RESULT:      -7.0      8.332     12.434
REMARK  9 active torsions:
REMARK  status: ('A' for Active; 'I' for Inactive)
REMARK    1  A    between atoms: C_2  and  O_3 
REMARK    2  A    between atoms: O_3  and  C_4 
REMARK    3  A    between atoms: C_7  and  N_8 
REMARK       I    between atoms: N_8  and  C_9 
REMARK    4  A    between atoms: C_9  and  C_10 
REMARK    5  A    between atoms: C_11  and  N_12 
REMARK       I    between atoms: N_12  and  C_13 
REMARK    6  A    between atoms: C_13  and  C_14 
REMARK    7  A    between atoms: C_14  and  N_15 
REMARK    8  A    between atoms: N_15  and  C_18 
REMARK    9  A    between atoms: C_18  and  C_19 
ROOT
HETATM    1  C   UNL     1      40.720  -6.510  17.551  1.00  0.00     0.073 A 
HETATM    2  C   UNL     1      41.206  -5.236  17.877  1.00  0.00     0.093 A 
HETATM    3  S   UNL     1      41.254  -4.937  19.561  1.00  0.00    -0.075 SA
HETATM    4  C   UNL     1      40.597  -6.435  19.872  1.00  0.00    -0.008 A 
HETATM    5  C   UNL     1      40.336  -7.180  18.754  1.00  0.00    -0.026 A 
HETATM    6  C   UNL     1      39.715  -8.480  19.145  1.00  0.00     0.041 C 
HETATM    7  C   UNL     1      39.323  -8.241  20.635  1.00  0.00     0.010 C 
HETATM    8  C   UNL     1      40.230  -7.088  21.151  1.00  0.00     0.047 C 
ENDROOT
BRANCH   2   9
HETATM    9  N   UNL     1      41.600  -4.267  16.963  1.00  0.00    -0.319 N 
HETATM   10  C   UNL     1      40.827  -3.260  16.435  1.00  0.00     0.248 C 
HETATM   11  O   UNL     1      39.670  -2.944  16.715  1.00  0.00    -0.271 OA
HETATM   12  H   UNL     1      42.589  -4.340  16.711  1.00  0.00     0.169 HD
BRANCH  10  13
HETATM   13  C   UNL     1      41.542  -2.421  15.375  1.00  0.00     0.335 C 
BRANCH  13  14
HETATM   14  N   UNL     1      42.212  -3.351  14.389  1.00  0.00    -0.059 N 
HETATM   15  H   UNL     1      43.184  -3.444  14.734  1.00  0.00     0.278 HD
HETATM   16  H   UNL     1      41.831  -4.297  14.518  1.00  0.00     0.278 HD
BRANCH  14  17
HETATM   17  C   UNL     1      42.240  -2.981  12.944  1.00  0.00     0.215 C 
HETATM   18  C   UNL     1      43.572  -2.311  12.612  1.00  0.00     0.045 C 
BRANCH  17  19
HETATM   19  C   UNL     1      41.826  -4.138  12.060  1.00  0.00    -0.028 A 
HETATM   20  C   UNL     1      42.479  -4.453  10.858  1.00  0.00     0.009 A 
HETATM   21  C   UNL     1      42.072  -5.550  10.092  1.00  0.00     0.001 A 
HETATM   22  C   UNL     1      41.013  -6.347  10.514  1.00  0.00     0.000 A 
HETATM   23  C   UNL     1      40.354  -6.052  11.704  1.00  0.00     0.001 A 
HETATM   24  C   UNL     1      40.758  -4.959  12.472  1.00  0.00     0.009 A 
ENDBRANCH  17  19
ENDBRANCH  14  17
ENDBRANCH  13  14
ENDBRANCH  10  13
ENDBRANCH   2   9
BRANCH   1  25
HETATM   25  C   UNL     1      40.663  -6.970  16.149  1.00  0.00     0.259 C 
HETATM   26  N   UNL     1      41.707  -7.785  15.768  1.00  0.00    -0.323 N 
HETATM   27  H   UNL     1      42.416  -7.969  16.460  1.00  0.00     0.169 HD
HETATM   28  O   UNL     1      39.760  -6.567  15.417  1.00  0.00    -0.267 OA
BRANCH  26  29
HETATM   29  C   UNL     1      41.987  -8.306  14.488  1.00  0.00     0.035 A 
HETATM   30  C   UNL     1      41.254  -9.319  13.870  1.00  0.00     0.032 A 
HETATM   31  C   UNL     1      41.572  -9.737  12.568  1.00  0.00     0.039 A 
HETATM   32  C   UNL     1      42.624  -9.143  11.875  1.00  0.00     0.068 A 
HETATM   33  C   UNL     1      43.383  -8.160  12.506  1.00  0.00     0.039 A 
HETATM   34  C   UNL     1      43.067  -7.741  13.800  1.00  0.00     0.032 A 
BRANCH  32  35
HETATM   35  O   UNL     1      43.016  -9.442  10.601  1.00  0.00    -0.352 OA
BRANCH  35  36
HETATM   36  C   UNL     1      43.959 -10.502  10.451  1.00  0.00     0.171 C 
HETATM   37  C   UNL     1      45.268  -9.899   9.975  1.00  0.00     0.034 C 
ENDBRANCH  35  36
ENDBRANCH  32  35
ENDBRANCH  26  29
ENDBRANCH   1  25
TORSDOF 9
ENDMDL
MODEL 10
REMARK VINA RESULT:      -7.0      1.562      2.221
REMARK  9 active torsions:
REMARK  status: ('A' for Active; 'I' for Inactive)
REMARK    1  A    between atoms: C_2  and  O_3 
REMARK    2  A    between atoms: O_3  and  C_4 
REMARK    3  A    between atoms: C_7  and  N_8 
REMARK       I    between atoms: N_8  and  C_9 
REMARK    4  A    between atoms: C_9  and  C_10 
REMARK    5  A    between atoms: C_11  and  N_12 
REMARK       I    between atoms: N_12  and  C_13 
REMARK    6  A    between atoms: C_13  and  C_14 
REMARK    7  A    between atoms: C_14  and  N_15 
REMARK    8  A    between atoms: N_15  and  C_18 
REMARK    9  A    between atoms: C_18  and  C_19 
ROOT
HETATM    1  C   UNL     1      43.237 -10.740   7.242  1.00  0.00     0.073 A 
HETATM    2  C   UNL     1      42.016 -10.058   7.134  1.00  0.00     0.093 A 
HETATM    3  S   UNL     1      41.823  -8.821   8.298  1.00  0.00    -0.075 SA
HETATM    4  C   UNL     1      43.296  -9.197   8.980  1.00  0.00    -0.008 A 
HETATM    5  C   UNL     1      43.954 -10.227   8.367  1.00  0.00    -0.026 A 
HETATM    6  C   UNL     1      45.235 -10.505   9.079  1.00  0.00     0.041 C 
HETATM    7  C   UNL     1      45.065  -9.720  10.415  1.00  0.00     0.010 C 
HETATM    8  C   UNL     1      44.001  -8.617  10.147  1.00  0.00     0.047 C 
ENDROOT
BRANCH   2   9
HETATM    9  N   UNL     1      41.019 -10.336   6.208  1.00  0.00    -0.319 N 
HETATM   10  C   UNL     1      40.979  -9.951   4.888  1.00  0.00     0.248 C 
HETATM   11  O   UNL     1      41.837  -9.368   4.226  1.00  0.00    -0.271 OA
HETATM   12  H   UNL     1      40.270 -10.918   6.595  1.00  0.00     0.169 HD
BRANCH  10  13
HETATM   13  C   UNL     1      39.686 -10.338   4.169  1.00  0.00     0.335 C 
BRANCH  13  14
HETATM   14  N   UNL     1      40.006 -10.635   2.721  1.00  0.00    -0.059 N 
HETATM   15  H   UNL     1      40.230  -9.712   2.307  1.00  0.00     0.278 HD
HETATM   16  H   UNL     1      40.904 -11.131   2.677  1.00  0.00     0.278 HD
BRANCH  14  17
HETATM   17  C   UNL     1      38.981 -11.314   1.875  1.00  0.00     0.215 C 
HETATM   18  C   UNL     1      38.620 -10.419   0.690  1.00  0.00     0.045 C 
BRANCH  17  19
HETATM   19  C   UNL     1      39.376 -12.739   1.550  1.00  0.00    -0.028 A 
HETATM   20  C   UNL     1      39.714 -13.163   0.255  1.00  0.00     0.009 A 
HETATM   21  C   UNL     1      40.097 -14.486   0.016  1.00  0.00     0.001 A 
HETATM   22  C   UNL     1      40.150 -15.401   1.061  1.00  0.00     0.000 A 
HETATM   23  C   UNL     1      39.821 -15.000   2.352  1.00  0.00     0.001 A 
HETATM   24  C   UNL     1      39.440 -13.680   2.596  1.00  0.00     0.009 A 
ENDBRANCH  17  19
ENDBRANCH  14  17
ENDBRANCH  13  14
ENDBRANCH  10  13
ENDBRANCH   2   9
BRANCH   1  25
HETATM   25  C   UNL     1      43.606 -11.801   6.284  1.00  0.00     0.259 C 
HETATM   26  N   UNL     1      42.962 -13.004   6.482  1.00  0.00    -0.323 N 
HETATM   27  H   UNL     1      42.329 -13.057   7.264  1.00  0.00     0.169 HD
HETATM   28  O   UNL     1      44.474 -11.580   5.441  1.00  0.00    -0.267 OA
BRANCH  26  29
HETATM   29  C   UNL     1      43.162 -14.224   5.804  1.00  0.00     0.035 A 
HETATM   30  C   UNL     1      42.759 -14.474   4.492  1.00  0.00     0.032 A 
HETATM   31  C   UNL     1      43.050 -15.702   3.878  1.00  0.00     0.039 A 
HETATM   32  C   UNL     1      43.747 -16.689   4.572  1.00  0.00     0.068 A 
HETATM   33  C   UNL     1      44.114 -16.457   5.895  1.00  0.00     0.039 A 
HETATM   34  C   UNL     1      43.828 -15.234   6.507  1.00  0.00     0.032 A 
BRANCH  32  35
HETATM   35  O   UNL     1      44.111 -17.910   4.080  1.00  0.00    -0.352 OA
BRANCH  35  36
HETATM   36  C   UNL     1      43.540 -18.296   2.831  1.00  0.00     0.171 C 
HETATM   37  C   UNL     1      43.816 -19.775   2.628  1.00  0.00     0.034 C 
ENDBRANCH  35  36
ENDBRANCH  32  35
ENDBRANCH  26  29
ENDBRANCH   1  25
TORSDOF 9
ENDMDL
