MODEL 1
REMARK VINA RESULT:      -8.9      0.000      0.000
REMARK  5 active torsions:
REMARK  status: ('A' for Active; 'I' for Inactive)
REMARK    1  A    between atoms: C_2  and  O_3 
REMARK    2  A    between atoms: O_3  and  C_4 
REMARK    3  A    between atoms: C_7  and  C_8 
REMARK       I    between atoms: N_11  and  C_12 
REMARK    4  A    between atoms: C_12  and  C_13 
REMARK    5  A    between atoms: C_15  and  C_16 
ROOT
HETATM    1  C   UNL     1      43.476  -9.333  11.067  1.00  0.00    -0.049 C 
HETATM    2  C   UNL     1      44.972  -9.365  10.862  1.00  0.00     0.059 C 
HETATM    3  C   UNL     1      45.355  -9.384   9.385  1.00  0.00     0.131 C 
HETATM    4  N   UNL     1      44.570 -10.355   8.629  1.00  0.00    -0.344 N 
HETATM    5  C   UNL     1      45.206 -10.934   7.524  1.00  0.00     0.254 C 
HETATM    6  O   UNL     1      46.396 -10.766   7.266  1.00  0.00    -0.267 OA
HETATM    7  C   UNL     1      43.119 -10.205   8.712  1.00  0.00     0.154 C 
HETATM    8  C   UNL     1      42.665  -9.725  10.064  1.00  0.00     0.001 C 
ENDROOT
BRANCH   5   9
HETATM    9  C   UNL     1      44.433 -11.773   6.585  1.00  0.00     0.033 A 
HETATM   10  C   UNL     1      44.325 -13.142   6.861  1.00  0.00     0.032 A 
HETATM   11  C   UNL     1      43.551 -13.973   6.040  1.00  0.00     0.014 A 
HETATM   12  C   UNL     1      42.888 -13.406   4.941  1.00  0.00     0.015 A 
HETATM   13  C   UNL     1      42.977 -12.035   4.678  1.00  0.00     0.002 A 
HETATM   14  C   UNL     1      43.738 -11.213   5.509  1.00  0.00     0.017 A 
BRANCH  11  15
HETATM   15  C   UNL     1      43.415 -15.397   6.336  1.00  0.00     0.181 A 
HETATM   16  N   UNL     1      42.848 -15.881   7.451  1.00  0.00    -0.152 NA
HETATM   17  N   UNL     1      42.922 -17.204   7.256  1.00  0.00    -0.263 N 
HETATM   18  H   UNL     1      42.544 -17.830   7.956  1.00  0.00     0.190 HD
HETATM   19  C   UNL     1      43.528 -17.501   6.071  1.00  0.00     0.118 A 
HETATM   20  C   UNL     1      43.750 -18.882   5.599  1.00  0.00     0.093 C 
HETATM   21  N   UNL     1      43.858 -16.378   5.472  1.00  0.00    -0.212 NA
ENDBRANCH  11  15
ENDBRANCH   5   9
BRANCH   1  22
HETATM   22  C   UNL     1      42.963  -8.873  12.385  1.00  0.00    -0.030 A 
HETATM   23  C   UNL     1      43.526  -7.756  13.026  1.00  0.00     0.014 A 
HETATM   24  C   UNL     1      43.020  -7.276  14.243  1.00  0.00     0.037 A 
HETATM   25  C   UNL     1      41.938  -7.908  14.849  1.00  0.00     0.068 A 
HETATM   26  C   UNL     1      41.379  -9.026  14.234  1.00  0.00     0.037 A 
HETATM   27  C   UNL     1      41.878  -9.498  13.013  1.00  0.00     0.014 A 
BRANCH  25  28
HETATM   28  O   UNL     1      41.347  -7.540  16.026  1.00  0.00    -0.352 OA
BRANCH  28  29
HETATM   29  C   UNL     1      41.999  -6.521  16.783  1.00  0.00     0.171 C 
HETATM   30  C   UNL     1      42.196  -7.040  18.197  1.00  0.00     0.034 C 
ENDBRANCH  28  29
ENDBRANCH  25  28
ENDBRANCH   1  22
TORSDOF 5
ENDMDL
MODEL 2
REMARK VINA RESULT:      -8.9      5.339     11.507
REMARK  5 active torsions:
REMARK  status: ('A' for Active; 'I' for Inactive)
REMARK    1  A    between atoms: C_2  and  O_3 
REMARK    2  A    between atoms: O_3  and  C_4 
REMARK    3  A    between atoms: C_7  and  C_8 
REMARK       I    between atoms: N_11  and  C_12 
REMARK    4  A    between atoms: C_12  and  C_13 
REMARK    5  A    between atoms: C_15  and  C_16 
ROOT
HETATM    1  C   UNL     1      42.070  -8.064  13.110  1.00  0.00    -0.049 C 
HETATM    2  C   UNL     1      40.621  -7.735  12.836  1.00  0.00     0.059 C 
HETATM    3  C   UNL     1      40.100  -6.620  13.738  1.00  0.00     0.131 C 
HETATM    4  N   UNL     1      40.471  -6.827  15.135  1.00  0.00    -0.344 N 
HETATM    5  C   UNL     1      39.579  -6.325  16.089  1.00  0.00     0.254 C 
HETATM    6  O   UNL     1      38.475  -5.864  15.806  1.00  0.00    -0.267 OA
HETATM    7  C   UNL     1      41.900  -6.982  15.398  1.00  0.00     0.154 C 
HETATM    8  C   UNL     1      42.615  -7.707  14.289  1.00  0.00     0.001 C 
ENDROOT
BRANCH   5   9
HETATM    9  C   UNL     1      39.960  -6.309  17.518  1.00  0.00     0.033 A 
HETATM   10  C   UNL     1      40.137  -7.537  18.166  1.00  0.00     0.032 A 
HETATM   11  C   UNL     1      40.561  -7.581  19.501  1.00  0.00     0.014 A 
HETATM   12  C   UNL     1      40.805  -6.372  20.171  1.00  0.00     0.015 A 
HETATM   13  C   UNL     1      40.650  -5.146  19.517  1.00  0.00     0.002 A 
HETATM   14  C   UNL     1      40.242  -5.112  18.183  1.00  0.00     0.017 A 
BRANCH  11  15
HETATM   15  C   UNL     1      40.770  -8.859  20.176  1.00  0.00     0.181 A 
HETATM   16  N   UNL     1      39.779  -9.629  20.652  1.00  0.00    -0.152 NA
HETATM   17  N   UNL     1      40.446 -10.683  21.137  1.00  0.00    -0.263 N 
HETATM   18  H   UNL     1      39.929 -11.448  21.554  1.00  0.00     0.190 HD
HETATM   19  C   UNL     1      41.792 -10.543  20.970  1.00  0.00     0.118 A 
HETATM   20  C   UNL     1      42.773 -11.553  21.416  1.00  0.00     0.093 C 
HETATM   21  N   UNL     1      42.026  -9.395  20.373  1.00  0.00    -0.212 NA
ENDBRANCH  11  15
ENDBRANCH   5   9
BRANCH   1  22
HETATM   22  C   UNL     1      42.831  -8.785  12.055  1.00  0.00    -0.030 A 
HETATM   23  C   UNL     1      43.357  -8.096  10.950  1.00  0.00     0.014 A 
HETATM   24  C   UNL     1      44.123  -8.750   9.974  1.00  0.00     0.037 A 
HETATM   25  C   UNL     1      44.378 -10.114  10.081  1.00  0.00     0.068 A 
HETATM   26  C   UNL     1      43.849 -10.815  11.163  1.00  0.00     0.037 A 
HETATM   27  C   UNL     1      43.094 -10.159  12.143  1.00  0.00     0.014 A 
BRANCH  25  28
HETATM   28  O   UNL     1      45.110 -10.867   9.207  1.00  0.00    -0.352 OA
BRANCH  28  29
HETATM   29  C   UNL     1      45.642 -10.195   8.066  1.00  0.00     0.171 C 
HETATM   30  C   UNL     1      45.795 -11.213   6.950  1.00  0.00     0.034 C 
ENDBRANCH  28  29
ENDBRANCH  25  28
ENDBRANCH   1  22
TORSDOF 5
ENDMDL
MODEL 3
REMARK VINA RESULT:      -8.8      3.153     10.497
REMARK  5 active torsions:
REMARK  status: ('A' for Active; 'I' for Inactive)
REMARK    1  A    between atoms: C_2  and  O_3 
REMARK    2  A    between atoms: O_3  and  C_4 
REMARK    3  A    between atoms: C_7  and  C_8 
REMARK       I    between atoms: N_11  and  C_12 
REMARK    4  A    between atoms: C_12  and  C_13 
REMARK    5  A    between atoms: C_15  and  C_16 
ROOT
HETATM    1  C   UNL     1      43.019 -13.337   5.141  1.00  0.00    -0.049 C 
HETATM    2  C   UNL     1      42.095 -12.205   4.756  1.00  0.00     0.059 C 
HETATM    3  C   UNL     1      42.609 -10.850   5.234  1.00  0.00     0.131 C 
HETATM    4  N   UNL     1      43.049 -10.892   6.625  1.00  0.00    -0.344 N 
HETATM    5  C   UNL     1      42.909  -9.702   7.351  1.00  0.00     0.254 C 
HETATM    6  O   UNL     1      42.323  -8.712   6.917  1.00  0.00    -0.267 OA
HETATM    7  C   UNL     1      44.067 -11.891   6.943  1.00  0.00     0.154 C 
HETATM    8  C   UNL     1      43.901 -13.155   6.143  1.00  0.00     0.001 C 
ENDROOT
BRANCH   5   9
HETATM    9  C   UNL     1      43.505  -9.586   8.699  1.00  0.00     0.033 A 
HETATM   10  C   UNL     1      42.640  -9.484   9.795  1.00  0.00     0.032 A 
HETATM   11  C   UNL     1      43.149  -9.436  11.099  1.00  0.00     0.014 A 
HETATM   12  C   UNL     1      44.539  -9.495  11.283  1.00  0.00     0.015 A 
HETATM   13  C   UNL     1      45.402  -9.621  10.190  1.00  0.00     0.002 A 
HETATM   14  C   UNL     1      44.886  -9.682   8.895  1.00  0.00     0.017 A 
BRANCH  11  15
HETATM   15  C   UNL     1      42.251  -9.352  12.248  1.00  0.00     0.181 A 
HETATM   16  N   UNL     1      41.071  -9.987  12.327  1.00  0.00    -0.152 NA
HETATM   17  N   UNL     1      40.645  -9.642  13.548  1.00  0.00    -0.263 N 
HETATM   18  H   UNL     1      39.760 -10.003  13.885  1.00  0.00     0.190 HD
HETATM   19  C   UNL     1      41.531  -8.816  14.173  1.00  0.00     0.118 A 
HETATM   20  C   UNL     1      41.316  -8.273  15.529  1.00  0.00     0.093 C 
HETATM   21  N   UNL     1      42.553  -8.609  13.371  1.00  0.00    -0.212 NA
ENDBRANCH  11  15
ENDBRANCH   5   9
BRANCH   1  22
HETATM   22  C   UNL     1      42.901 -14.616   4.391  1.00  0.00    -0.030 A 
HETATM   23  C   UNL     1      42.693 -14.619   3.002  1.00  0.00     0.014 A 
HETATM   24  C   UNL     1      42.634 -15.816   2.272  1.00  0.00     0.037 A 
HETATM   25  C   UNL     1      42.779 -17.040   2.919  1.00  0.00     0.068 A 
HETATM   26  C   UNL     1      42.971 -17.054   4.299  1.00  0.00     0.037 A 
HETATM   27  C   UNL     1      43.041 -15.858   5.025  1.00  0.00     0.014 A 
BRANCH  25  28
HETATM   28  O   UNL     1      42.748 -18.271   2.327  1.00  0.00    -0.352 OA
BRANCH  28  29
HETATM   29  C   UNL     1      43.775 -19.190   2.698  1.00  0.00     0.171 C 
HETATM   30  C   UNL     1      43.575 -20.465   1.897  1.00  0.00     0.034 C 
ENDBRANCH  28  29
ENDBRANCH  25  28
ENDBRANCH   1  22
TORSDOF 5
ENDMDL
MODEL 4
REMARK VINA RESULT:      -8.3      9.292     12.189
REMARK  5 active torsions:
REMARK  status: ('A' for Active; 'I' for Inactive)
REMARK    1  A    between atoms: C_2  and  O_3 
REMARK    2  A    between atoms: O_3  and  C_4 
REMARK    3  A    between atoms: C_7  and  C_8 
REMARK       I    between atoms: N_11  and  C_12 
REMARK    4  A    between atoms: C_12  and  C_13 
REMARK    5  A    between atoms: C_15  and  C_16 
ROOT
HETATM    1  C   UNL     1      41.400 -15.426   2.445  1.00  0.00    -0.049 C 
HETATM    2  C   UNL     1      40.641 -14.549   3.413  1.00  0.00     0.059 C 
HETATM    3  C   UNL     1      39.442 -13.868   2.759  1.00  0.00     0.131 C 
HETATM    4  N   UNL     1      39.785 -13.276   1.469  1.00  0.00    -0.344 N 
HETATM    5  C   UNL     1      39.059 -12.136   1.103  1.00  0.00     0.254 C 
HETATM    6  O   UNL     1      38.278 -11.561   1.858  1.00  0.00    -0.267 OA
HETATM    7  C   UNL     1      40.373 -14.184   0.486  1.00  0.00     0.154 C 
HETATM    8  C   UNL     1      41.253 -15.227   1.120  1.00  0.00     0.001 C 
ENDROOT
BRANCH   5   9
HETATM    9  C   UNL     1      39.194 -11.584  -0.262  1.00  0.00     0.033 A 
HETATM   10  C   UNL     1      40.184 -10.620  -0.488  1.00  0.00     0.032 A 
HETATM   11  C   UNL     1      40.398 -10.109  -1.775  1.00  0.00     0.014 A 
HETATM   12  C   UNL     1      39.603 -10.585  -2.829  1.00  0.00     0.015 A 
HETATM   13  C   UNL     1      38.630 -11.565  -2.609  1.00  0.00     0.002 A 
HETATM   14  C   UNL     1      38.433 -12.078  -1.326  1.00  0.00     0.017 A 
BRANCH  11  15
HETATM   15  C   UNL     1      41.445  -9.121  -2.021  1.00  0.00     0.181 A 
HETATM   16  N   UNL     1      42.491  -8.916  -1.206  1.00  0.00    -0.152 NA
HETATM   17  N   UNL     1      43.173  -7.964  -1.855  1.00  0.00    -0.263 N 
HETATM   18  H   UNL     1      44.041  -7.620  -1.461  1.00  0.00     0.190 HD
HETATM   19  C   UNL     1      42.549  -7.601  -3.011  1.00  0.00     0.118 A 
HETATM   20  C   UNL     1      43.074  -6.568  -3.926  1.00  0.00     0.093 C 
HETATM   21  N   UNL     1      41.449  -8.310  -3.138  1.00  0.00    -0.212 NA
ENDBRANCH  11  15
ENDBRANCH   5   9
BRANCH   1  22
HETATM   22  C   UNL     1      42.292 -16.474   3.009  1.00  0.00    -0.030 A 
HETATM   23  C   UNL     1      42.545 -17.661   2.301  1.00  0.00     0.014 A 
HETATM   24  C   UNL     1      43.426 -18.635   2.794  1.00  0.00     0.037 A 
HETATM   25  C   UNL     1      44.072 -18.445   4.012  1.00  0.00     0.068 A 
HETATM   26  C   UNL     1      43.819 -17.280   4.734  1.00  0.00     0.037 A 
HETATM   27  C   UNL     1      42.948 -16.303   4.235  1.00  0.00     0.014 A 
BRANCH  25  28
HETATM   28  O   UNL     1      44.954 -19.309   4.598  1.00  0.00    -0.352 OA
BRANCH  28  29
HETATM   29  C   UNL     1      44.443 -20.579   4.997  1.00  0.00     0.171 C 
HETATM   30  C   UNL     1      43.481 -20.357   6.152  1.00  0.00     0.034 C 
ENDBRANCH  28  29
ENDBRANCH  25  28
ENDBRANCH   1  22
TORSDOF 5
ENDMDL
MODEL 5
REMARK VINA RESULT:      -8.1      4.354     11.052
REMARK  5 active torsions:
REMARK  status: ('A' for Active; 'I' for Inactive)
REMARK    1  A    between atoms: C_2  and  O_3 
REMARK    2  A    between atoms: O_3  and  C_4 
REMARK    3  A    between atoms: C_7  and  C_8 
REMARK       I    between atoms: N_11  and  C_12 
REMARK    4  A    between atoms: C_12  and  C_13 
REMARK    5  A    between atoms: C_15  and  C_16 
ROOT
HETATM    1  C   UNL     1      41.828 -12.807   2.944  1.00  0.00    -0.049 C 
HETATM    2  C   UNL     1      42.386 -14.106   3.477  1.00  0.00     0.059 C 
HETATM    3  C   UNL     1      42.573 -14.077   4.991  1.00  0.00     0.131 C 
HETATM    4  N   UNL     1      43.228 -12.851   5.438  1.00  0.00    -0.344 N 
HETATM    5  C   UNL     1      44.019 -12.960   6.588  1.00  0.00     0.254 C 
HETATM    6  O   UNL     1      44.284 -14.033   7.127  1.00  0.00    -0.267 OA
HETATM    7  C   UNL     1      42.578 -11.602   5.046  1.00  0.00     0.154 C 
HETATM    8  C   UNL     1      41.937 -11.689   3.687  1.00  0.00     0.001 C 
ENDROOT
BRANCH   5   9
HETATM    9  C   UNL     1      44.559 -11.742   7.230  1.00  0.00     0.033 A 
HETATM   10  C   UNL     1      43.818 -11.160   8.266  1.00  0.00     0.032 A 
HETATM   11  C   UNL     1      44.313 -10.043   8.951  1.00  0.00     0.014 A 
HETATM   12  C   UNL     1      45.562  -9.523   8.580  1.00  0.00     0.015 A 
HETATM   13  C   UNL     1      46.313 -10.118   7.561  1.00  0.00     0.002 A 
HETATM   14  C   UNL     1      45.819 -11.239   6.894  1.00  0.00     0.017 A 
BRANCH  11  15
HETATM   15  C   UNL     1      43.556  -9.445  10.048  1.00  0.00     0.181 A 
HETATM   16  N   UNL     1      42.218  -9.348  10.072  1.00  0.00    -0.152 NA
HETATM   17  N   UNL     1      41.996  -8.778  11.263  1.00  0.00    -0.263 N 
HETATM   18  H   UNL     1      41.044  -8.596  11.556  1.00  0.00     0.190 HD
HETATM   19  C   UNL     1      43.163  -8.528  11.923  1.00  0.00     0.118 A 
HETATM   20  C   UNL     1      43.220  -7.899  13.258  1.00  0.00     0.093 C 
HETATM   21  N   UNL     1      44.166  -8.932  11.175  1.00  0.00    -0.212 NA
ENDBRANCH  11  15
ENDBRANCH   5   9
BRANCH   1  22
HETATM   22  C   UNL     1      41.186 -12.825   1.603  1.00  0.00    -0.030 A 
HETATM   23  C   UNL     1      41.271 -11.713   0.749  1.00  0.00     0.014 A 
HETATM   24  C   UNL     1      40.717 -11.733  -0.540  1.00  0.00     0.037 A 
HETATM   25  C   UNL     1      40.060 -12.869  -1.003  1.00  0.00     0.068 A 
HETATM   26  C   UNL     1      39.952 -13.975  -0.162  1.00  0.00     0.037 A 
HETATM   27  C   UNL     1      40.516 -13.958   1.121  1.00  0.00     0.014 A 
BRANCH  25  28
HETATM   28  O   UNL     1      39.484 -13.020  -2.233  1.00  0.00    -0.352 OA
BRANCH  28  29
HETATM   29  C   UNL     1      38.259 -13.749  -2.286  1.00  0.00     0.171 C 
HETATM   30  C   UNL     1      38.397 -14.825  -3.349  1.00  0.00     0.034 C 
ENDBRANCH  28  29
ENDBRANCH  25  28
ENDBRANCH   1  22
TORSDOF 5
ENDMDL
MODEL 6
REMARK VINA RESULT:      -7.9      3.636     10.569
REMARK  5 active torsions:
REMARK  status: ('A' for Active; 'I' for Inactive)
REMARK    1  A    between atoms: C_2  and  O_3 
REMARK    2  A    between atoms: O_3  and  C_4 
REMARK    3  A    between atoms: C_7  and  C_8 
REMARK       I    between atoms: N_11  and  C_12 
REMARK    4  A    between atoms: C_12  and  C_13 
REMARK    5  A    between atoms: C_15  and  C_16 
ROOT
HETATM    1  C   UNL     1      41.811 -13.585   5.240  1.00  0.00    -0.049 C 
HETATM    2  C   UNL     1      40.335 -13.558   5.560  1.00  0.00     0.059 C 
HETATM    3  C   UNL     1      39.773 -12.139   5.580  1.00  0.00     0.131 C 
HETATM    4  N   UNL     1      40.624 -11.224   6.336  1.00  0.00    -0.344 N 
HETATM    5  C   UNL     1      39.971 -10.163   6.974  1.00  0.00     0.254 C 
HETATM    6  O   UNL     1      38.748 -10.061   7.034  1.00  0.00    -0.267 OA
HETATM    7  C   UNL     1      42.017 -11.146   5.903  1.00  0.00     0.154 C 
HETATM    8  C   UNL     1      42.543 -12.467   5.411  1.00  0.00     0.001 C 
ENDROOT
BRANCH   5   9
HETATM    9  C   UNL     1      40.761  -9.078   7.594  1.00  0.00     0.033 A 
HETATM   10  C   UNL     1      41.118  -9.210   8.941  1.00  0.00     0.032 A 
HETATM   11  C   UNL     1      41.920  -8.244   9.562  1.00  0.00     0.014 A 
HETATM   12  C   UNL     1      42.359  -7.145   8.806  1.00  0.00     0.015 A 
HETATM   13  C   UNL     1      42.022  -7.024   7.454  1.00  0.00     0.002 A 
HETATM   14  C   UNL     1      41.235  -7.999   6.840  1.00  0.00     0.017 A 
BRANCH  11  15
HETATM   15  C   UNL     1      42.315  -8.388  10.960  1.00  0.00     0.181 A 
HETATM   16  N   UNL     1      42.516  -9.568  11.567  1.00  0.00    -0.152 NA
HETATM   17  N   UNL     1      42.887  -9.195  12.798  1.00  0.00    -0.263 N 
HETATM   18  H   UNL     1      43.122  -9.905  13.481  1.00  0.00     0.190 HD
HETATM   19  C   UNL     1      42.893  -7.838  12.929  1.00  0.00     0.118 A 
HETATM   20  C   UNL     1      43.258  -7.147  14.182  1.00  0.00     0.093 C 
HETATM   21  N   UNL     1      42.527  -7.302  11.785  1.00  0.00    -0.212 NA
ENDBRANCH  11  15
ENDBRANCH   5   9
BRANCH   1  22
HETATM   22  C   UNL     1      42.394 -14.864   4.753  1.00  0.00    -0.030 A 
HETATM   23  C   UNL     1      43.316 -15.578   5.536  1.00  0.00     0.014 A 
HETATM   24  C   UNL     1      43.834 -16.812   5.116  1.00  0.00     0.037 A 
HETATM   25  C   UNL     1      43.442 -17.359   3.898  1.00  0.00     0.068 A 
HETATM   26  C   UNL     1      42.540 -16.655   3.102  1.00  0.00     0.037 A 
HETATM   27  C   UNL     1      42.015 -15.429   3.528  1.00  0.00     0.014 A 
BRANCH  25  28
HETATM   28  O   UNL     1      43.865 -18.550   3.377  1.00  0.00    -0.352 OA
BRANCH  28  29
HETATM   29  C   UNL     1      43.194 -19.016   2.207  1.00  0.00     0.171 C 
HETATM   30  C   UNL     1      43.601 -20.461   1.976  1.00  0.00     0.034 C 
ENDBRANCH  28  29
ENDBRANCH  25  28
ENDBRANCH   1  22
TORSDOF 5
ENDMDL
MODEL 7
REMARK VINA RESULT:      -7.8      8.987     12.343
REMARK  5 active torsions:
REMARK  status: ('A' for Active; 'I' for Inactive)
REMARK    1  A    between atoms: C_2  and  O_3 
REMARK    2  A    between atoms: O_3  and  C_4 
REMARK    3  A    between atoms: C_7  and  C_8 
REMARK       I    between atoms: N_11  and  C_12 
REMARK    4  A    between atoms: C_12  and  C_13 
REMARK    5  A    between atoms: C_15  and  C_16 
ROOT
HETATM    1  C   UNL     1      41.173 -10.650  -1.414  1.00  0.00    -0.049 C 
HETATM    2  C   UNL     1      40.626 -11.785  -2.248  1.00  0.00     0.059 C 
HETATM    3  C   UNL     1      39.791 -12.760  -1.422  1.00  0.00     0.131 C 
HETATM    4  N   UNL     1      40.453 -13.125  -0.173  1.00  0.00    -0.344 N 
HETATM    5  C   UNL     1      40.175 -14.406   0.319  1.00  0.00     0.254 C 
HETATM    6  O   UNL     1      39.536 -15.247  -0.310  1.00  0.00    -0.267 OA
HETATM    7  C   UNL     1      40.830 -12.013   0.697  1.00  0.00     0.154 C 
HETATM    8  C   UNL     1      41.252 -10.793  -0.077  1.00  0.00     0.001 C 
ENDROOT
BRANCH   5   9
HETATM    9  C   UNL     1      40.636 -14.793   1.669  1.00  0.00     0.033 A 
HETATM   10  C   UNL     1      41.457 -15.921   1.787  1.00  0.00     0.032 A 
HETATM   11  C   UNL     1      41.975 -16.296   3.034  1.00  0.00     0.014 A 
HETATM   12  C   UNL     1      41.656 -15.518   4.157  1.00  0.00     0.015 A 
HETATM   13  C   UNL     1      40.854 -14.379   4.037  1.00  0.00     0.002 A 
HETATM   14  C   UNL     1      40.355 -14.005   2.789  1.00  0.00     0.017 A 
BRANCH  11  15
HETATM   15  C   UNL     1      42.851 -17.457   3.159  1.00  0.00     0.181 A 
HETATM   16  N   UNL     1      43.726 -17.634   4.162  1.00  0.00    -0.152 NA
HETATM   17  N   UNL     1      44.257 -18.828   3.869  1.00  0.00    -0.263 N 
HETATM   18  H   UNL     1      44.955 -19.224   4.486  1.00  0.00     0.190 HD
HETATM   19  C   UNL     1      43.730 -19.341   2.721  1.00  0.00     0.118 A 
HETATM   20  C   UNL     1      44.135 -20.643   2.154  1.00  0.00     0.093 C 
HETATM   21  N   UNL     1      42.845 -18.492   2.246  1.00  0.00    -0.212 NA
ENDBRANCH  11  15
ENDBRANCH   5   9
BRANCH   1  22
HETATM   22  C   UNL     1      41.613  -9.418  -2.121  1.00  0.00    -0.030 A 
HETATM   23  C   UNL     1      42.553  -8.551  -1.539  1.00  0.00     0.014 A 
HETATM   24  C   UNL     1      43.019  -7.413  -2.214  1.00  0.00     0.037 A 
HETATM   25  C   UNL     1      42.549  -7.114  -3.490  1.00  0.00     0.068 A 
HETATM   26  C   UNL     1      41.604  -7.955  -4.074  1.00  0.00     0.037 A 
HETATM   27  C   UNL     1      41.148  -9.097  -3.403  1.00  0.00     0.014 A 
BRANCH  25  28
HETATM   28  O   UNL     1      42.924  -6.045  -4.255  1.00  0.00    -0.352 OA
BRANCH  28  29
HETATM   29  C   UNL     1      42.864  -6.215  -5.671  1.00  0.00     0.171 C 
HETATM   30  C   UNL     1      42.161  -5.003  -6.259  1.00  0.00     0.034 C 
ENDBRANCH  28  29
ENDBRANCH  25  28
ENDBRANCH   1  22
TORSDOF 5
ENDMDL
MODEL 8
REMARK VINA RESULT:      -7.8     20.049     22.014
REMARK  5 active torsions:
REMARK  status: ('A' for Active; 'I' for Inactive)
REMARK    1  A    between atoms: C_2  and  O_3 
REMARK    2  A    between atoms: O_3  and  C_4 
REMARK    3  A    between atoms: C_7  and  C_8 
REMARK       I    between atoms: N_11  and  C_12 
REMARK    4  A    between atoms: C_12  and  C_13 
REMARK    5  A    between atoms: C_15  and  C_16 
ROOT
HETATM    1  C   UNL     1      42.933 -30.914   3.288  1.00  0.00    -0.049 C 
HETATM    2  C   UNL     1      42.894 -29.527   2.691  1.00  0.00     0.059 C 
HETATM    3  C   UNL     1      44.082 -29.258   1.772  1.00  0.00     0.131 C 
HETATM    4  N   UNL     1      45.345 -29.677   2.374  1.00  0.00    -0.344 N 
HETATM    5  C   UNL     1      46.478 -28.943   2.000  1.00  0.00     0.254 C 
HETATM    6  O   UNL     1      46.425 -27.917   1.325  1.00  0.00    -0.267 OA
HETATM    7  C   UNL     1      45.417 -31.073   2.798  1.00  0.00     0.154 C 
HETATM    8  C   UNL     1      44.101 -31.585   3.320  1.00  0.00     0.001 C 
ENDROOT
BRANCH   5   9
HETATM    9  C   UNL     1      47.823 -29.411   2.397  1.00  0.00     0.033 A 
HETATM   10  C   UNL     1      48.633 -29.997   1.417  1.00  0.00     0.032 A 
HETATM   11  C   UNL     1      49.939 -30.399   1.722  1.00  0.00     0.014 A 
HETATM   12  C   UNL     1      50.418 -30.201   3.026  1.00  0.00     0.015 A 
HETATM   13  C   UNL     1      49.618 -29.595   4.000  1.00  0.00     0.002 A 
HETATM   14  C   UNL     1      48.323 -29.184   3.683  1.00  0.00     0.017 A 
BRANCH  11  15
HETATM   15  C   UNL     1      50.797 -30.990   0.698  1.00  0.00     0.181 A 
HETATM   16  N   UNL     1      51.478 -32.135   0.857  1.00  0.00    -0.152 NA
HETATM   17  N   UNL     1      52.072 -32.279  -0.334  1.00  0.00    -0.263 N 
HETATM   18  H   UNL     1      52.655 -33.091  -0.502  1.00  0.00     0.190 HD
HETATM   19  C   UNL     1      51.770 -31.248  -1.172  1.00  0.00     0.118 A 
HETATM   20  C   UNL     1      52.291 -31.144  -2.550  1.00  0.00     0.093 C 
HETATM   21  N   UNL     1      50.972 -30.413  -0.544  1.00  0.00    -0.212 NA
ENDBRANCH  11  15
ENDBRANCH   5   9
BRANCH   1  22
HETATM   22  C   UNL     1      41.666 -31.476   3.826  1.00  0.00    -0.030 A 
HETATM   23  C   UNL     1      41.345 -31.354   5.188  1.00  0.00     0.014 A 
HETATM   24  C   UNL     1      40.130 -31.830   5.702  1.00  0.00     0.037 A 
HETATM   25  C   UNL     1      39.206 -32.445   4.861  1.00  0.00     0.068 A 
HETATM   26  C   UNL     1      39.516 -32.588   3.510  1.00  0.00     0.037 A 
HETATM   27  C   UNL     1      40.725 -32.102   2.996  1.00  0.00     0.014 A 
BRANCH  25  28
HETATM   28  O   UNL     1      37.989 -32.944   5.231  1.00  0.00    -0.352 OA
BRANCH  28  29
HETATM   29  C   UNL     1      37.243 -33.631   4.227  1.00  0.00     0.171 C 
HETATM   30  C   UNL     1      35.867 -32.993   4.147  1.00  0.00     0.034 C 
ENDBRANCH  28  29
ENDBRANCH  25  28
ENDBRANCH   1  22
TORSDOF 5
ENDMDL
MODEL 9
REMARK VINA RESULT:      -7.7      9.236     12.567
REMARK  5 active torsions:
REMARK  status: ('A' for Active; 'I' for Inactive)
REMARK    1  A    between atoms: C_2  and  O_3 
REMARK    2  A    between atoms: O_3  and  C_4 
REMARK    3  A    between atoms: C_7  and  C_8 
REMARK       I    between atoms: N_11  and  C_12 
REMARK    4  A    between atoms: C_12  and  C_13 
REMARK    5  A    between atoms: C_15  and  C_16 
ROOT
HETATM    1  C   UNL     1      41.439 -15.175   2.332  1.00  0.00    -0.049 C 
HETATM    2  C   UNL     1      40.774 -14.243   3.317  1.00  0.00     0.059 C 
HETATM    3  C   UNL     1      39.598 -13.491   2.700  1.00  0.00     0.131 C 
HETATM    4  N   UNL     1      39.931 -12.932   1.392  1.00  0.00    -0.344 N 
HETATM    5  C   UNL     1      39.267 -11.751   1.040  1.00  0.00     0.254 C 
HETATM    6  O   UNL     1      38.553 -11.121   1.817  1.00  0.00    -0.267 OA
HETATM    7  C   UNL     1      40.422 -13.885   0.398  1.00  0.00     0.154 C 
HETATM    8  C   UNL     1      41.256 -14.977   1.011  1.00  0.00     0.001 C 
ENDROOT
BRANCH   5   9
HETATM    9  C   UNL     1      39.386 -11.220  -0.335  1.00  0.00     0.033 A 
HETATM   10  C   UNL     1      38.226 -11.147  -1.115  1.00  0.00     0.032 A 
HETATM   11  C   UNL     1      38.269 -10.593  -2.401  1.00  0.00     0.014 A 
HETATM   12  C   UNL     1      39.495 -10.113  -2.887  1.00  0.00     0.015 A 
HETATM   13  C   UNL     1      40.649 -10.164  -2.099  1.00  0.00     0.002 A 
HETATM   14  C   UNL     1      40.594 -10.704  -0.814  1.00  0.00     0.017 A 
BRANCH  11  15
HETATM   15  C   UNL     1      37.059 -10.493  -3.212  1.00  0.00     0.181 A 
HETATM   16  N   UNL     1      36.899  -9.621  -4.220  1.00  0.00    -0.152 NA
HETATM   17  N   UNL     1      35.675  -9.926  -4.668  1.00  0.00    -0.263 N 
HETATM   18  H   UNL     1      35.296  -9.418  -5.458  1.00  0.00     0.190 HD
HETATM   19  C   UNL     1      35.114 -10.936  -3.943  1.00  0.00     0.118 A 
HETATM   20  C   UNL     1      33.766 -11.474  -4.212  1.00  0.00     0.093 C 
HETATM   21  N   UNL     1      35.963 -11.307  -3.010  1.00  0.00    -0.212 NA
ENDBRANCH  11  15
ENDBRANCH   5   9
BRANCH   1  22
HETATM   22  C   UNL     1      42.282 -16.273   2.874  1.00  0.00    -0.030 A 
HETATM   23  C   UNL     1      42.443 -17.474   2.164  1.00  0.00     0.014 A 
HETATM   24  C   UNL     1      43.277 -18.499   2.634  1.00  0.00     0.037 A 
HETATM   25  C   UNL     1      43.967 -18.346   3.833  1.00  0.00     0.068 A 
HETATM   26  C   UNL     1      43.805 -17.167   4.558  1.00  0.00     0.037 A 
HETATM   27  C   UNL     1      42.981 -16.140   4.081  1.00  0.00     0.014 A 
BRANCH  25  28
HETATM   28  O   UNL     1      44.812 -19.260   4.398  1.00  0.00    -0.352 OA
BRANCH  28  29
HETATM   29  C   UNL     1      44.257 -20.533   4.727  1.00  0.00     0.171 C 
HETATM   30  C   UNL     1      43.605 -20.422   6.094  1.00  0.00     0.034 C 
ENDBRANCH  28  29
ENDBRANCH  25  28
ENDBRANCH   1  22
TORSDOF 5
ENDMDL
MODEL 10
REMARK VINA RESULT:      -7.7      3.564     10.442
REMARK  5 active torsions:
REMARK  status: ('A' for Active; 'I' for Inactive)
REMARK    1  A    between atoms: C_2  and  O_3 
REMARK    2  A    between atoms: O_3  and  C_4 
REMARK    3  A    between atoms: C_7  and  C_8 
REMARK       I    between atoms: N_11  and  C_12 
REMARK    4  A    between atoms: C_12  and  C_13 
REMARK    5  A    between atoms: C_15  and  C_16 
ROOT
HETATM    1  C   UNL     1      43.915 -12.574   6.040  1.00  0.00    -0.049 C 
HETATM    2  C   UNL     1      44.923 -11.600   5.478  1.00  0.00     0.059 C 
HETATM    3  C   UNL     1      45.695 -10.869   6.573  1.00  0.00     0.131 C 
HETATM    4  N   UNL     1      44.813 -10.366   7.622  1.00  0.00    -0.344 N 
HETATM    5  C   UNL     1      45.231  -9.198   8.270  1.00  0.00     0.254 C 
HETATM    6  O   UNL     1      46.199  -8.533   7.906  1.00  0.00    -0.267 OA
HETATM    7  C   UNL     1      43.958 -11.361   8.267  1.00  0.00     0.154 C 
HETATM    8  C   UNL     1      43.499 -12.431   7.314  1.00  0.00     0.001 C 
ENDROOT
BRANCH   5   9
HETATM    9  C   UNL     1      44.513  -8.724   9.473  1.00  0.00     0.033 A 
HETATM   10  C   UNL     1      43.566  -7.705   9.315  1.00  0.00     0.032 A 
HETATM   11  C   UNL     1      42.810  -7.262  10.408  1.00  0.00     0.014 A 
HETATM   12  C   UNL     1      43.020  -7.862  11.660  1.00  0.00     0.015 A 
HETATM   13  C   UNL     1      43.949  -8.896  11.813  1.00  0.00     0.002 A 
HETATM   14  C   UNL     1      44.687  -9.340  10.716  1.00  0.00     0.017 A 
BRANCH  11  15
HETATM   15  C   UNL     1      41.805  -6.216  10.246  1.00  0.00     0.181 A 
HETATM   16  N   UNL     1      41.997  -5.092   9.537  1.00  0.00    -0.152 NA
HETATM   17  N   UNL     1      40.812  -4.480   9.649  1.00  0.00    -0.263 N 
HETATM   18  H   UNL     1      40.668  -3.591   9.184  1.00  0.00     0.190 HD
HETATM   19  C   UNL     1      39.945  -5.204  10.411  1.00  0.00     0.118 A 
HETATM   20  C   UNL     1      38.566  -4.766  10.708  1.00  0.00     0.093 C 
HETATM   21  N   UNL     1      40.548  -6.302  10.810  1.00  0.00    -0.212 NA
ENDBRANCH  11  15
ENDBRANCH   5   9
BRANCH   1  22
HETATM   22  C   UNL     1      43.417 -13.653   5.146  1.00  0.00    -0.030 A 
HETATM   23  C   UNL     1      43.149 -13.399   3.791  1.00  0.00     0.014 A 
HETATM   24  C   UNL     1      42.731 -14.417   2.921  1.00  0.00     0.037 A 
HETATM   25  C   UNL     1      42.567 -15.717   3.391  1.00  0.00     0.068 A 
HETATM   26  C   UNL     1      42.814 -15.982   4.737  1.00  0.00     0.037 A 
HETATM   27  C   UNL     1      43.242 -14.967   5.602  1.00  0.00     0.014 A 
BRANCH  25  28
HETATM   28  O   UNL     1      42.173 -16.796   2.652  1.00  0.00    -0.352 OA
BRANCH  28  29
HETATM   29  C   UNL     1      43.183 -17.463   1.896  1.00  0.00     0.171 C 
HETATM   30  C   UNL     1      43.198 -18.922   2.317  1.00  0.00     0.034 C 
ENDBRANCH  28  29
ENDBRANCH  25  28
ENDBRANCH   1  22
TORSDOF 5
ENDMDL
