MODEL 1
REMARK VINA RESULT:      -8.5      0.000      0.000
REMARK  4 active torsions:
REMARK  status: ('A' for Active; 'I' for Inactive)
REMARK    1  A    between atoms: C_2  and  C_3 
REMARK    2  A    between atoms: C_7  and  N_8 
REMARK    3  A    between atoms: C_10  and  C_11 
REMARK    4  A    between atoms: C_21  and  C_22 
ROOT
HETATM    1  C   UNL     1      43.703 -18.742   4.349  1.00  0.00     0.079 A 
HETATM    2  S   UNL     1      43.977 -17.840   5.775  1.00  0.00    -0.064 SA
HETATM    3  C   UNL     1      43.528 -16.381   5.031  1.00  0.00     0.112 A 
HETATM    4  C   UNL     1      43.161 -16.532   3.700  1.00  0.00     0.043 A 
HETATM    5  C   UNL     1      43.281 -17.915   3.319  1.00  0.00     0.060 A 
HETATM    6  N   UNL     1      43.548 -15.241   5.745  1.00  0.00    -0.240 NA
HETATM    7  C   UNL     1      43.147 -14.134   5.093  1.00  0.00     0.069 A 
HETATM    8  C   UNL     1      42.754 -14.154   3.759  1.00  0.00     0.049 A 
HETATM    9  C   UNL     1      42.752 -15.356   3.020  1.00  0.00     0.065 A 
ENDROOT
BRANCH   7  10
HETATM   10  C   UNL     1      43.160 -12.893   5.898  1.00  0.00    -0.004 A 
HETATM   11  C   UNL     1      44.158 -12.687   6.873  1.00  0.00     0.053 A 
HETATM   12  C   UNL     1      44.145 -11.521   7.610  1.00  0.00     0.106 A 
HETATM   13  C   UNL     1      43.186 -10.557   7.425  1.00  0.00     0.105 A 
HETATM   14  O   UNL     1      45.040 -11.181   8.577  1.00  0.00    -0.323 OA
HETATM   15  O   UNL     1      43.351  -9.491   8.250  1.00  0.00    -0.323 OA
HETATM   16  C   UNL     1      42.184 -10.709   6.495  1.00  0.00     0.040 A 
HETATM   17  C   UNL     1      44.525  -9.898   8.986  1.00  0.00     0.352 A 
HETATM   18  C   UNL     1      42.173 -11.884   5.732  1.00  0.00     0.017 A 
ENDBRANCH   7  10
BRANCH   9  19
HETATM   19  C   UNL     1      42.275 -15.339   1.593  1.00  0.00     0.418 C 
HETATM   20  F   UNL     1      43.166 -15.883   0.715  1.00  0.00    -0.166 F 
HETATM   21  F   UNL     1      41.111 -16.020   1.421  1.00  0.00    -0.166 F 
HETATM   22  F   UNL     1      42.035 -14.080   1.126  1.00  0.00    -0.166 F 
ENDBRANCH   9  19
BRANCH   1  23
HETATM   23  C   UNL     1      43.932 -20.184   4.297  1.00  0.00     0.164 C 
HETATM   24  C   UNL     1      44.182 -20.939   5.584  1.00  0.00     0.097 C 
HETATM   25  O   UNL     1      43.936 -20.811   3.233  1.00  0.00    -0.292 OA
ENDBRANCH   1  23
BRANCH   5  26
HETATM   26  N   UNL     1      43.005 -18.386   2.080  1.00  0.00    -0.397 N 
HETATM   27  H   UNL     1      43.066 -19.376   1.842  1.00  0.00     0.156 HD
HETATM   28  H   UNL     1      42.291 -17.911   1.517  1.00  0.00     0.156 HD
ENDBRANCH   5  26
TORSDOF 4
ENDMDL
MODEL 2
REMARK VINA RESULT:      -8.4      4.194      7.659
REMARK  4 active torsions:
REMARK  status: ('A' for Active; 'I' for Inactive)
REMARK    1  A    between atoms: C_2  and  C_3 
REMARK    2  A    between atoms: C_7  and  N_8 
REMARK    3  A    between atoms: C_10  and  C_11 
REMARK    4  A    between atoms: C_21  and  C_22 
ROOT
HETATM    1  C   UNL     1      43.720 -12.329   6.013  1.00  0.00     0.079 A 
HETATM    2  S   UNL     1      43.679 -11.614   4.461  1.00  0.00    -0.064 SA
HETATM    3  C   UNL     1      42.607 -12.788   3.864  1.00  0.00     0.112 A 
HETATM    4  C   UNL     1      42.253 -13.742   4.809  1.00  0.00     0.043 A 
HETATM    5  C   UNL     1      42.923 -13.462   6.052  1.00  0.00     0.060 A 
HETATM    6  N   UNL     1      42.189 -12.713   2.587  1.00  0.00    -0.240 NA
HETATM    7  C   UNL     1      41.316 -13.661   2.200  1.00  0.00     0.069 A 
HETATM    8  C   UNL     1      40.883 -14.671   3.053  1.00  0.00     0.049 A 
HETATM    9  C   UNL     1      41.342 -14.744   4.386  1.00  0.00     0.065 A 
ENDROOT
BRANCH   7  10
HETATM   10  C   UNL     1      40.854 -13.554   0.799  1.00  0.00    -0.004 A 
HETATM   11  C   UNL     1      40.101 -14.595   0.217  1.00  0.00     0.053 A 
HETATM   12  C   UNL     1      39.684 -14.469  -1.093  1.00  0.00     0.106 A 
HETATM   13  C   UNL     1      39.984 -13.362  -1.845  1.00  0.00     0.105 A 
HETATM   14  O   UNL     1      38.950 -15.382  -1.785  1.00  0.00    -0.323 OA
HETATM   15  O   UNL     1      39.483 -13.436  -3.106  1.00  0.00    -0.323 OA
HETATM   16  C   UNL     1      40.722 -12.321  -1.332  1.00  0.00     0.040 A 
HETATM   17  C   UNL     1      38.835 -14.726  -3.064  1.00  0.00     0.352 A 
HETATM   18  C   UNL     1      41.159 -12.423  -0.004  1.00  0.00     0.017 A 
ENDBRANCH   7  10
BRANCH   9  19
HETATM   19  C   UNL     1      40.812 -15.826   5.287  1.00  0.00     0.418 C 
HETATM   20  F   UNL     1      41.785 -16.630   5.802  1.00  0.00    -0.166 F 
HETATM   21  F   UNL     1      40.126 -15.331   6.352  1.00  0.00    -0.166 F 
HETATM   22  F   UNL     1      39.947 -16.670   4.654  1.00  0.00    -0.166 F 
ENDBRANCH   9  19
BRANCH   1  23
HETATM   23  C   UNL     1      44.535 -11.774   7.092  1.00  0.00     0.164 C 
HETATM   24  C   UNL     1      45.884 -11.174   6.765  1.00  0.00     0.097 C 
HETATM   25  O   UNL     1      44.161 -11.784   8.270  1.00  0.00    -0.292 OA
ENDBRANCH   1  23
BRANCH   5  26
HETATM   26  N   UNL     1      42.793 -14.217   7.170  1.00  0.00    -0.397 N 
HETATM   27  H   UNL     1      42.799 -15.236   7.149  1.00  0.00     0.156 HD
HETATM   28  H   UNL     1      43.170 -13.861   8.055  1.00  0.00     0.156 HD
ENDBRANCH   5  26
TORSDOF 4
ENDMDL
MODEL 3
REMARK VINA RESULT:      -8.1      1.944      7.333
REMARK  4 active torsions:
REMARK  status: ('A' for Active; 'I' for Inactive)
REMARK    1  A    between atoms: C_2  and  C_3 
REMARK    2  A    between atoms: C_7  and  N_8 
REMARK    3  A    between atoms: C_10  and  C_11 
REMARK    4  A    between atoms: C_21  and  C_22 
ROOT
HETATM    1  C   UNL     1      43.164 -11.570   6.441  1.00  0.00     0.079 A 
HETATM    2  S   UNL     1      43.632 -13.155   6.878  1.00  0.00    -0.064 SA
HETATM    3  C   UNL     1      43.180 -13.787   5.368  1.00  0.00     0.112 A 
HETATM    4  C   UNL     1      42.670 -12.830   4.500  1.00  0.00     0.043 A 
HETATM    5  C   UNL     1      42.659 -11.546   5.150  1.00  0.00     0.060 A 
HETATM    6  N   UNL     1      43.347 -15.100   5.125  1.00  0.00    -0.240 NA
HETATM    7  C   UNL     1      42.996 -15.517   3.894  1.00  0.00     0.069 A 
HETATM    8  C   UNL     1      42.475 -14.655   2.934  1.00  0.00     0.049 A 
HETATM    9  C   UNL     1      42.293 -13.284   3.210  1.00  0.00     0.065 A 
ENDROOT
BRANCH   7  10
HETATM   10  C   UNL     1      43.202 -16.959   3.638  1.00  0.00    -0.004 A 
HETATM   11  C   UNL     1      43.678 -17.803   4.663  1.00  0.00     0.053 A 
HETATM   12  C   UNL     1      43.862 -19.144   4.397  1.00  0.00     0.106 A 
HETATM   13  C   UNL     1      43.597 -19.680   3.161  1.00  0.00     0.105 A 
HETATM   14  O   UNL     1      44.308 -20.077   5.281  1.00  0.00    -0.323 OA
HETATM   15  O   UNL     1      43.846 -21.015   3.107  1.00  0.00    -0.323 OA
HETATM   16  C   UNL     1      43.140 -18.903   2.123  1.00  0.00     0.040 A 
HETATM   17  C   UNL     1      44.305 -21.258   4.454  1.00  0.00     0.352 A 
HETATM   18  C   UNL     1      42.944 -17.537   2.366  1.00  0.00     0.017 A 
ENDBRANCH   7  10
BRANCH   9  19
HETATM   19  C   UNL     1      41.769 -12.380   2.127  1.00  0.00     0.418 C 
HETATM   20  F   UNL     1      42.565 -11.299   1.888  1.00  0.00    -0.166 F 
HETATM   21  F   UNL     1      41.628 -13.017   0.935  1.00  0.00    -0.166 F 
HETATM   22  F   UNL     1      40.539 -11.863   2.414  1.00  0.00    -0.166 F 
ENDBRANCH   9  19
BRANCH   1  23
HETATM   23  C   UNL     1      43.286 -10.449   7.371  1.00  0.00     0.164 C 
HETATM   24  C   UNL     1      44.267 -10.546   8.518  1.00  0.00     0.097 C 
HETATM   25  O   UNL     1      42.608  -9.423   7.258  1.00  0.00    -0.292 OA
ENDBRANCH   1  23
BRANCH   5  26
HETATM   26  N   UNL     1      42.210 -10.407   4.570  1.00  0.00    -0.397 N 
HETATM   27  H   UNL     1      42.484 -10.123   3.630  1.00  0.00     0.156 HD
HETATM   28  H   UNL     1      41.267 -10.073   4.799  1.00  0.00     0.156 HD
ENDBRANCH   5  26
TORSDOF 4
ENDMDL
MODEL 4
REMARK VINA RESULT:      -8.0      3.869      7.821
REMARK  4 active torsions:
REMARK  status: ('A' for Active; 'I' for Inactive)
REMARK    1  A    between atoms: C_2  and  C_3 
REMARK    2  A    between atoms: C_7  and  N_8 
REMARK    3  A    between atoms: C_10  and  C_11 
REMARK    4  A    between atoms: C_21  and  C_22 
ROOT
HETATM    1  C   UNL     1      41.300 -11.472   1.213  1.00  0.00     0.079 A 
HETATM    2  S   UNL     1      41.243 -13.075   0.624  1.00  0.00    -0.064 SA
HETATM    3  C   UNL     1      42.058 -13.686   1.982  1.00  0.00     0.112 A 
HETATM    4  C   UNL     1      42.392 -12.708   2.910  1.00  0.00     0.043 A 
HETATM    5  C   UNL     1      41.951 -11.422   2.437  1.00  0.00     0.060 A 
HETATM    6  N   UNL     1      42.303 -15.006   2.067  1.00  0.00    -0.240 NA
HETATM    7  C   UNL     1      42.924 -15.415   3.189  1.00  0.00     0.069 A 
HETATM    8  C   UNL     1      43.308 -14.534   4.194  1.00  0.00     0.049 A 
HETATM    9  C   UNL     1      43.056 -13.150   4.083  1.00  0.00     0.065 A 
ENDROOT
BRANCH   7  10
HETATM   10  C   UNL     1      43.171 -16.872   3.274  1.00  0.00    -0.004 A 
HETATM   11  C   UNL     1      43.538 -17.461   4.502  1.00  0.00     0.053 A 
HETATM   12  C   UNL     1      43.764 -18.821   4.552  1.00  0.00     0.106 A 
HETATM   13  C   UNL     1      43.643 -19.616   3.441  1.00  0.00     0.105 A 
HETATM   14  O   UNL     1      44.118 -19.528   5.659  1.00  0.00    -0.323 OA
HETATM   15  O   UNL     1      43.909 -20.923   3.703  1.00  0.00    -0.323 OA
HETATM   16  C   UNL     1      43.296 -19.095   2.216  1.00  0.00     0.040 A 
HETATM   17  C   UNL     1      44.219 -20.858   5.111  1.00  0.00     0.352 A 
HETATM   18  C   UNL     1      43.062 -17.716   2.137  1.00  0.00     0.017 A 
ENDBRANCH   7  10
BRANCH   9  19
HETATM   19  C   UNL     1      43.449 -12.239   5.214  1.00  0.00     0.418 C 
HETATM   20  F   UNL     1      44.061 -12.886   6.247  1.00  0.00    -0.166 F 
HETATM   21  F   UNL     1      44.303 -11.256   4.823  1.00  0.00    -0.166 F 
HETATM   22  F   UNL     1      42.384 -11.596   5.775  1.00  0.00    -0.166 F 
ENDBRANCH   9  19
BRANCH   1  23
HETATM   23  C   UNL     1      40.740 -10.355   0.456  1.00  0.00     0.164 C 
HETATM   24  C   UNL     1      40.980 -10.280  -1.036  1.00  0.00     0.097 C 
HETATM   25  O   UNL     1      40.079  -9.461   0.994  1.00  0.00    -0.292 OA
ENDBRANCH   1  23
BRANCH   5  26
HETATM   26  N   UNL     1      42.136 -10.262   3.111  1.00  0.00    -0.397 N 
HETATM   27  H   UNL     1      41.696 -10.072   4.010  1.00  0.00     0.156 HD
HETATM   28  H   UNL     1      43.039  -9.781   3.030  1.00  0.00     0.156 HD
ENDBRANCH   5  26
TORSDOF 4
ENDMDL
MODEL 5
REMARK VINA RESULT:      -7.7      4.383      6.956
REMARK  4 active torsions:
REMARK  status: ('A' for Active; 'I' for Inactive)
REMARK    1  A    between atoms: C_2  and  C_3 
REMARK    2  A    between atoms: C_7  and  N_8 
REMARK    3  A    between atoms: C_10  and  C_11 
REMARK    4  A    between atoms: C_21  and  C_22 
ROOT
HETATM    1  C   UNL     1      42.896 -17.542   4.938  1.00  0.00     0.079 A 
HETATM    2  S   UNL     1      42.846 -17.653   3.233  1.00  0.00    -0.064 SA
HETATM    3  C   UNL     1      41.897 -16.252   3.092  1.00  0.00     0.112 A 
HETATM    4  C   UNL     1      41.595 -15.665   4.314  1.00  0.00     0.043 A 
HETATM    5  C   UNL     1      42.178 -16.440   5.379  1.00  0.00     0.060 A 
HETATM    6  N   UNL     1      41.530 -15.822   1.871  1.00  0.00    -0.240 NA
HETATM    7  C   UNL     1      40.807 -14.687   1.842  1.00  0.00     0.069 A 
HETATM    8  C   UNL     1      40.441 -14.005   2.998  1.00  0.00     0.049 A 
HETATM    9  C   UNL     1      40.823 -14.476   4.272  1.00  0.00     0.065 A 
ENDROOT
BRANCH   7  10
HETATM   10  C   UNL     1      40.426 -14.221   0.491  1.00  0.00    -0.004 A 
HETATM   11  C   UNL     1      39.665 -15.050  -0.360  1.00  0.00     0.053 A 
HETATM   12  C   UNL     1      39.325 -14.589  -1.616  1.00  0.00     0.106 A 
HETATM   13  C   UNL     1      39.709 -13.350  -2.061  1.00  0.00     0.105 A 
HETATM   14  O   UNL     1      38.595 -15.269  -2.540  1.00  0.00    -0.323 OA
HETATM   15  O   UNL     1      39.274 -13.091  -3.323  1.00  0.00    -0.323 OA
HETATM   16  C   UNL     1      40.459 -12.504  -1.278  1.00  0.00     0.040 A 
HETATM   17  C   UNL     1      38.575 -14.317  -3.624  1.00  0.00     0.352 A 
HETATM   18  C   UNL     1      40.819 -12.946   0.002  1.00  0.00     0.017 A 
ENDBRANCH   7  10
BRANCH   9  19
HETATM   19  C   UNL     1      40.444 -13.682   5.492  1.00  0.00     0.418 C 
HETATM   20  F   UNL     1      39.760 -14.407   6.423  1.00  0.00    -0.166 F 
HETATM   21  F   UNL     1      41.524 -13.163   6.135  1.00  0.00    -0.166 F 
HETATM   22  F   UNL     1      39.641 -12.617   5.207  1.00  0.00    -0.166 F 
ENDBRANCH   9  19
BRANCH   1  23
HETATM   23  C   UNL     1      43.600 -18.531   5.752  1.00  0.00     0.164 C 
HETATM   24  C   UNL     1      44.350 -19.651   5.066  1.00  0.00     0.097 C 
HETATM   25  O   UNL     1      43.598 -18.488   6.986  1.00  0.00    -0.292 OA
ENDBRANCH   1  23
BRANCH   5  26
HETATM   26  N   UNL     1      42.056 -16.135   6.693  1.00  0.00    -0.397 N 
HETATM   27  H   UNL     1      42.841 -15.817   7.259  1.00  0.00     0.156 HD
HETATM   28  H   UNL     1      41.171 -15.739   7.029  1.00  0.00     0.156 HD
ENDBRANCH   5  26
TORSDOF 4
ENDMDL
MODEL 6
REMARK VINA RESULT:      -7.7      2.968      7.893
REMARK  4 active torsions:
REMARK  status: ('A' for Active; 'I' for Inactive)
REMARK    1  A    between atoms: C_2  and  C_3 
REMARK    2  A    between atoms: C_7  and  N_8 
REMARK    3  A    between atoms: C_10  and  C_11 
REMARK    4  A    between atoms: C_21  and  C_22 
ROOT
HETATM    1  C   UNL     1      43.643 -10.187   7.581  1.00  0.00     0.079 A 
HETATM    2  S   UNL     1      44.696 -11.515   7.359  1.00  0.00    -0.064 SA
HETATM    3  C   UNL     1      43.505 -12.423   6.558  1.00  0.00     0.112 A 
HETATM    4  C   UNL     1      42.293 -11.757   6.436  1.00  0.00     0.043 A 
HETATM    5  C   UNL     1      42.392 -10.458   7.049  1.00  0.00     0.060 A 
HETATM    6  N   UNL     1      43.804 -13.657   6.112  1.00  0.00    -0.240 NA
HETATM    7  C   UNL     1      42.817 -14.298   5.459  1.00  0.00     0.069 A 
HETATM    8  C   UNL     1      41.558 -13.737   5.270  1.00  0.00     0.049 A 
HETATM    9  C   UNL     1      41.257 -12.448   5.756  1.00  0.00     0.065 A 
ENDROOT
BRANCH   7  10
HETATM   10  C   UNL     1      43.168 -15.646   4.961  1.00  0.00    -0.004 A 
HETATM   11  C   UNL     1      42.623 -16.121   3.749  1.00  0.00     0.053 A 
HETATM   12  C   UNL     1      42.967 -17.383   3.308  1.00  0.00     0.106 A 
HETATM   13  C   UNL     1      43.820 -18.190   4.017  1.00  0.00     0.105 A 
HETATM   14  O   UNL     1      42.529 -17.971   2.163  1.00  0.00    -0.323 OA
HETATM   15  O   UNL     1      44.026 -19.390   3.413  1.00  0.00    -0.323 OA
HETATM   16  C   UNL     1      44.373 -17.783   5.209  1.00  0.00     0.040 A 
HETATM   17  C   UNL     1      43.195 -19.248   2.241  1.00  0.00     0.352 A 
HETATM   18  C   UNL     1      44.041 -16.506   5.680  1.00  0.00     0.017 A 
ENDBRANCH   7  10
BRANCH   9  19
HETATM   19  C   UNL     1      39.897 -11.861   5.490  1.00  0.00     0.418 C 
HETATM   20  F   UNL     1      39.207 -11.549   6.624  1.00  0.00    -0.166 F 
HETATM   21  F   UNL     1      39.954 -10.720   4.754  1.00  0.00    -0.166 F 
HETATM   22  F   UNL     1      39.080 -12.705   4.794  1.00  0.00    -0.166 F 
ENDBRANCH   9  19
BRANCH   1  23
HETATM   23  C   UNL     1      44.073  -8.974   8.274  1.00  0.00     0.164 C 
HETATM   24  C   UNL     1      45.032  -9.090   9.438  1.00  0.00     0.097 C 
HETATM   25  O   UNL     1      43.674  -7.852   7.945  1.00  0.00    -0.292 OA
ENDBRANCH   1  23
BRANCH   5  26
HETATM   26  N   UNL     1      41.373  -9.567   7.106  1.00  0.00    -0.397 N 
HETATM   27  H   UNL     1      40.971  -9.246   7.986  1.00  0.00     0.156 HD
HETATM   28  H   UNL     1      41.308  -8.843   6.381  1.00  0.00     0.156 HD
ENDBRANCH   5  26
TORSDOF 4
ENDMDL
MODEL 7
REMARK VINA RESULT:      -7.6      4.358      7.089
REMARK  4 active torsions:
REMARK  status: ('A' for Active; 'I' for Inactive)
REMARK    1  A    between atoms: C_2  and  C_3 
REMARK    2  A    between atoms: C_7  and  N_8 
REMARK    3  A    between atoms: C_10  and  C_11 
REMARK    4  A    between atoms: C_21  and  C_22 
ROOT
HETATM    1  C   UNL     1      43.048 -16.197   5.311  1.00  0.00     0.079 A 
HETATM    2  S   UNL     1      42.301 -16.769   3.883  1.00  0.00    -0.064 SA
HETATM    3  C   UNL     1      42.119 -15.200   3.258  1.00  0.00     0.112 A 
HETATM    4  C   UNL     1      42.611 -14.211   4.100  1.00  0.00     0.043 A 
HETATM    5  C   UNL     1      43.138 -14.813   5.297  1.00  0.00     0.060 A 
HETATM    6  N   UNL     1      41.548 -15.032   2.052  1.00  0.00    -0.240 NA
HETATM    7  C   UNL     1      41.470 -13.762   1.613  1.00  0.00     0.069 A 
HETATM    8  C   UNL     1      41.929 -12.683   2.361  1.00  0.00     0.049 A 
HETATM    9  C   UNL     1      42.512 -12.876   3.632  1.00  0.00     0.065 A 
ENDROOT
BRANCH   7  10
HETATM   10  C   UNL     1      40.855 -13.597   0.277  1.00  0.00    -0.004 A 
HETATM   11  C   UNL     1      40.060 -14.625  -0.272  1.00  0.00     0.053 A 
HETATM   12  C   UNL     1      39.500 -14.444  -1.520  1.00  0.00     0.106 A 
HETATM   13  C   UNL     1      39.698 -13.295  -2.243  1.00  0.00     0.105 A 
HETATM   14  O   UNL     1      38.710 -15.338  -2.174  1.00  0.00    -0.323 OA
HETATM   15  O   UNL     1      39.063 -13.319  -3.445  1.00  0.00    -0.323 OA
HETATM   16  C   UNL     1      40.471 -12.265  -1.761  1.00  0.00     0.040 A 
HETATM   17  C   UNL     1      38.445 -14.623  -3.398  1.00  0.00     0.352 A 
HETATM   18  C   UNL     1      41.052 -12.421  -0.496  1.00  0.00     0.017 A 
ENDBRANCH   7  10
BRANCH   9  19
HETATM   19  C   UNL     1      43.037 -11.685   4.387  1.00  0.00     0.418 C 
HETATM   20  F   UNL     1      42.448 -11.511   5.605  1.00  0.00    -0.166 F 
HETATM   21  F   UNL     1      44.374 -11.760   4.620  1.00  0.00    -0.166 F 
HETATM   22  F   UNL     1      42.846 -10.508   3.725  1.00  0.00    -0.166 F 
ENDBRANCH   9  19
BRANCH   1  23
HETATM   23  C   UNL     1      43.478 -17.108   6.370  1.00  0.00     0.164 C 
HETATM   24  C   UNL     1      43.518 -18.594   6.094  1.00  0.00     0.097 C 
HETATM   25  O   UNL     1      43.807 -16.705   7.490  1.00  0.00    -0.292 OA
ENDBRANCH   1  23
BRANCH   5  26
HETATM   26  N   UNL     1      43.683 -14.114   6.320  1.00  0.00    -0.397 N 
HETATM   27  H   UNL     1      43.868 -14.528   7.233  1.00  0.00     0.156 HD
HETATM   28  H   UNL     1      44.355 -13.368   6.108  1.00  0.00     0.156 HD
ENDBRANCH   5  26
TORSDOF 4
ENDMDL
MODEL 8
REMARK VINA RESULT:      -7.6      4.235      5.564
REMARK  4 active torsions:
REMARK  status: ('A' for Active; 'I' for Inactive)
REMARK    1  A    between atoms: C_2  and  C_3 
REMARK    2  A    between atoms: C_7  and  N_8 
REMARK    3  A    between atoms: C_10  and  C_11 
REMARK    4  A    between atoms: C_21  and  C_22 
ROOT
HETATM    1  C   UNL     1      43.618 -18.326   3.892  1.00  0.00     0.079 A 
HETATM    2  S   UNL     1      43.155 -17.692   2.374  1.00  0.00    -0.064 SA
HETATM    3  C   UNL     1      42.872 -16.147   3.018  1.00  0.00     0.112 A 
HETATM    4  C   UNL     1      43.117 -16.066   4.383  1.00  0.00     0.043 A 
HETATM    5  C   UNL     1      43.541 -17.351   4.875  1.00  0.00     0.060 A 
HETATM    6  N   UNL     1      42.460 -15.157   2.205  1.00  0.00    -0.240 NA
HETATM    7  C   UNL     1      42.290 -13.955   2.786  1.00  0.00     0.069 A 
HETATM    8  C   UNL     1      42.504 -13.744   4.144  1.00  0.00     0.049 A 
HETATM    9  C   UNL     1      42.923 -14.796   4.986  1.00  0.00     0.065 A 
ENDROOT
BRANCH   7  10
HETATM   10  C   UNL     1      41.853 -12.874   1.875  1.00  0.00    -0.004 A 
HETATM   11  C   UNL     1      41.279 -13.187   0.625  1.00  0.00     0.053 A 
HETATM   12  C   UNL     1      40.881 -12.159  -0.206  1.00  0.00     0.106 A 
HETATM   13  C   UNL     1      41.033 -10.842   0.148  1.00  0.00     0.105 A 
HETATM   14  O   UNL     1      40.311 -12.303  -1.432  1.00  0.00    -0.323 OA
HETATM   15  O   UNL     1      40.581  -9.989  -0.809  1.00  0.00    -0.323 OA
HETATM   16  C   UNL     1      41.594 -10.479   1.350  1.00  0.00     0.040 A 
HETATM   17  C   UNL     1      40.132 -10.924  -1.813  1.00  0.00     0.352 A 
HETATM   18  C   UNL     1      42.006 -11.503   2.214  1.00  0.00     0.017 A 
ENDBRANCH   7  10
BRANCH   9  19
HETATM   19  C   UNL     1      43.187 -14.513   6.440  1.00  0.00     0.418 C 
HETATM   20  F   UNL     1      42.412 -15.249   7.287  1.00  0.00    -0.166 F 
HETATM   21  F   UNL     1      44.476 -14.759   6.796  1.00  0.00    -0.166 F 
HETATM   22  F   UNL     1      42.955 -13.213   6.780  1.00  0.00    -0.166 F 
ENDBRANCH   9  19
BRANCH   1  23
HETATM   23  C   UNL     1      44.004 -19.726   4.054  1.00  0.00     0.164 C 
HETATM   24  C   UNL     1      43.766 -20.694   2.917  1.00  0.00     0.097 C 
HETATM   25  O   UNL     1      44.514 -20.151   5.096  1.00  0.00    -0.292 OA
ENDBRANCH   1  23
BRANCH   5  26
HETATM   26  N   UNL     1      43.847 -17.603   6.170  1.00  0.00    -0.397 N 
HETATM   27  H   UNL     1      43.538 -18.445   6.655  1.00  0.00     0.156 HD
HETATM   28  H   UNL     1      44.744 -17.269   6.541  1.00  0.00     0.156 HD
ENDBRANCH   5  26
TORSDOF 4
ENDMDL
MODEL 9
REMARK VINA RESULT:      -7.5     22.262     24.132
REMARK  4 active torsions:
REMARK  status: ('A' for Active; 'I' for Inactive)
REMARK    1  A    between atoms: C_2  and  C_3 
REMARK    2  A    between atoms: C_7  and  N_8 
REMARK    3  A    between atoms: C_10  and  C_11 
REMARK    4  A    between atoms: C_21  and  C_22 
ROOT
HETATM    1  C   UNL     1      34.320 -30.744  17.476  1.00  0.00     0.079 A 
HETATM    2  S   UNL     1      34.802 -31.625  16.094  1.00  0.00    -0.064 SA
HETATM    3  C   UNL     1      33.198 -31.865  15.592  1.00  0.00     0.112 A 
HETATM    4  C   UNL     1      32.262 -31.292  16.444  1.00  0.00     0.043 A 
HETATM    5  C   UNL     1      32.937 -30.652  17.543  1.00  0.00     0.060 A 
HETATM    6  N   UNL     1      32.955 -32.549  14.459  1.00  0.00    -0.240 NA
HETATM    7  C   UNL     1      31.660 -32.667  14.112  1.00  0.00     0.069 A 
HETATM    8  C   UNL     1      30.629 -32.136  14.881  1.00  0.00     0.049 A 
HETATM    9  C   UNL     1      30.900 -31.433  16.074  1.00  0.00     0.065 A 
ENDROOT
BRANCH   7  10
HETATM   10  C   UNL     1      31.412 -33.407  12.856  1.00  0.00    -0.004 A 
HETATM   11  C   UNL     1      32.359 -34.338  12.380  1.00  0.00     0.053 A 
HETATM   12  C   UNL     1      32.103 -35.014  11.204  1.00  0.00     0.106 A 
HETATM   13  C   UNL     1      30.954 -34.803  10.483  1.00  0.00     0.105 A 
HETATM   14  O   UNL     1      32.914 -35.940  10.626  1.00  0.00    -0.323 OA
HETATM   15  O   UNL     1      30.897 -35.564   9.359  1.00  0.00    -0.323 OA
HETATM   16  C   UNL     1      30.001 -33.901  10.895  1.00  0.00     0.040 A 
HETATM   17  C   UNL     1      32.149 -36.277   9.451  1.00  0.00     0.352 A 
HETATM   18  C   UNL     1      30.236 -33.201  12.086  1.00  0.00     0.017 A 
ENDBRANCH   7  10
BRANCH   9  19
HETATM   19  C   UNL     1      29.757 -30.837  16.851  1.00  0.00     0.418 C 
HETATM   20  F   UNL     1      29.810 -31.103  18.187  1.00  0.00    -0.166 F 
HETATM   21  F   UNL     1      29.697 -29.483  16.736  1.00  0.00    -0.166 F 
HETATM   22  F   UNL     1      28.539 -31.294  16.441  1.00  0.00    -0.166 F 
ENDBRANCH   9  19
BRANCH   1  23
HETATM   23  C   UNL     1      35.294 -30.214  18.428  1.00  0.00     0.164 C 
HETATM   24  C   UNL     1      36.743 -30.632  18.310  1.00  0.00     0.097 C 
HETATM   25  O   UNL     1      34.974 -29.438  19.334  1.00  0.00    -0.292 OA
ENDBRANCH   1  23
BRANCH   5  26
HETATM   26  N   UNL     1      32.302 -30.010  18.552  1.00  0.00    -0.397 N 
HETATM   27  H   UNL     1      32.609 -30.071  19.522  1.00  0.00     0.156 HD
HETATM   28  H   UNL     1      31.854 -29.107  18.360  1.00  0.00     0.156 HD
ENDBRANCH   5  26
TORSDOF 4
ENDMDL
MODEL 10
REMARK VINA RESULT:      -7.5      1.291      2.042
REMARK  4 active torsions:
REMARK  status: ('A' for Active; 'I' for Inactive)
REMARK    1  A    between atoms: C_2  and  C_3 
REMARK    2  A    between atoms: C_7  and  N_8 
REMARK    3  A    between atoms: C_10  and  C_11 
REMARK    4  A    between atoms: C_21  and  C_22 
ROOT
HETATM    1  C   UNL     1      43.711 -17.656   4.979  1.00  0.00     0.079 A 
HETATM    2  S   UNL     1      44.263 -16.778   6.338  1.00  0.00    -0.064 SA
HETATM    3  C   UNL     1      43.751 -15.296   5.686  1.00  0.00     0.112 A 
HETATM    4  C   UNL     1      43.154 -15.420   4.438  1.00  0.00     0.043 A 
HETATM    5  C   UNL     1      43.151 -16.804   4.039  1.00  0.00     0.060 A 
HETATM    6  N   UNL     1      43.939 -14.165   6.389  1.00  0.00    -0.240 NA
HETATM    7  C   UNL     1      43.476 -13.037   5.819  1.00  0.00     0.069 A 
HETATM    8  C   UNL     1      42.858 -13.029   4.572  1.00  0.00     0.049 A 
HETATM    9  C   UNL     1      42.681 -14.223   3.842  1.00  0.00     0.065 A 
ENDROOT
BRANCH   7  10
HETATM   10  C   UNL     1      43.676 -11.805   6.613  1.00  0.00    -0.004 A 
HETATM   11  C   UNL     1      42.655 -10.835   6.691  1.00  0.00     0.053 A 
HETATM   12  C   UNL     1      42.869  -9.695   7.438  1.00  0.00     0.106 A 
HETATM   13  C   UNL     1      44.049  -9.476   8.103  1.00  0.00     0.105 A 
HETATM   14  O   UNL     1      41.980  -8.679   7.610  1.00  0.00    -0.323 OA
HETATM   15  O   UNL     1      44.057  -8.295   8.776  1.00  0.00    -0.323 OA
HETATM   16  C   UNL     1      45.082 -10.382   8.054  1.00  0.00     0.040 A 
HETATM   17  C   UNL     1      42.744  -7.790   8.451  1.00  0.00     0.352 A 
HETATM   18  C   UNL     1      44.891 -11.550   7.303  1.00  0.00     0.017 A 
ENDBRANCH   7  10
BRANCH   9  19
HETATM   19  C   UNL     1      41.967 -14.175   2.518  1.00  0.00     0.418 C 
HETATM   20  F   UNL     1      40.838 -14.939   2.481  1.00  0.00    -0.166 F 
HETATM   21  F   UNL     1      41.585 -12.917   2.174  1.00  0.00    -0.166 F 
HETATM   22  F   UNL     1      42.735 -14.620   1.482  1.00  0.00    -0.166 F 
ENDBRANCH   9  19
BRANCH   1  23
HETATM   23  C   UNL     1      43.870 -19.105   4.885  1.00  0.00     0.164 C 
HETATM   24  C   UNL     1      43.577 -19.960   6.097  1.00  0.00     0.097 C 
HETATM   25  O   UNL     1      44.245 -19.660   3.846  1.00  0.00    -0.292 OA
ENDBRANCH   1  23
BRANCH   5  26
HETATM   26  N   UNL     1      42.648 -17.253   2.865  1.00  0.00    -0.397 N 
HETATM   27  H   UNL     1      43.238 -17.508   2.074  1.00  0.00     0.156 HD
HETATM   28  H   UNL     1      41.783 -17.805   2.876  1.00  0.00     0.156 HD
ENDBRANCH   5  26
TORSDOF 4
ENDMDL
