MODEL 1
REMARK VINA RESULT:      -8.9      0.000      0.000
REMARK  5 active torsions:
REMARK  status: ('A' for Active; 'I' for Inactive)
REMARK    1  A    between atoms: N_4  and  C_5 
REMARK    2  A    between atoms: C_16  and  N_17 
REMARK       I    between atoms: N_17  and  C_18 
REMARK    3  A    between atoms: C_18  and  C_19 
REMARK       I    between atoms: C_19  and  N_20 
REMARK    4  A    between atoms: N_20  and  C_21 
REMARK    5  A    between atoms: C_21  and  C_22 
ROOT
HETATM    1  C   UNL     1      39.396  -8.488   6.820  1.00  0.00     0.072 C 
HETATM    2  C   UNL     1      39.818  -9.782   6.227  1.00  0.00     0.055 C 
HETATM    3  N   UNL     1      39.197 -10.265   5.147  1.00  0.00    -0.156 NA
HETATM    4  N   UNL     1      39.872 -11.431   4.850  1.00  0.00    -0.045 N 
HETATM    5  C   UNL     1      40.756 -11.762   5.875  1.00  0.00     0.152 C 
HETATM    6  C   UNL     1      40.828 -10.650   6.686  1.00  0.00     0.079 C 
ENDROOT
BRANCH   5   7
HETATM    7  N   UNL     1      41.476 -12.933   6.024  1.00  0.00    -0.303 N 
HETATM    8  C   UNL     1      40.863 -14.124   6.365  1.00  0.00     0.315 C 
HETATM    9  O   UNL     1      39.677 -14.335   6.575  1.00  0.00    -0.262 OA
HETATM   10  H   UNL     1      42.470 -12.890   6.237  1.00  0.00     0.171 HD
BRANCH   8  11
HETATM   11  C   UNL     1      41.894 -15.250   6.605  1.00  0.00     0.310 C 
HETATM   12  N   UNL     1      42.979 -15.204   5.764  1.00  0.00    -0.349 N 
HETATM   13  H   UNL     1      42.967 -14.493   5.038  1.00  0.00     0.163 HD
HETATM   14  O   UNL     1      41.685 -16.092   7.468  1.00  0.00    -0.262 OA
BRANCH  12  15
HETATM   15  C   UNL     1      44.040 -16.176   5.812  1.00  0.00     0.161 C 
BRANCH  15  16
HETATM   16  C   UNL     1      43.890 -17.229   4.744  1.00  0.00    -0.040 A 
HETATM   17  C   UNL     1      44.268 -18.558   4.991  1.00  0.00     0.010 A 
HETATM   18  C   UNL     1      44.107 -19.536   4.006  1.00  0.00     0.024 A 
HETATM   19  C   UNL     1      43.576 -19.189   2.765  1.00  0.00     0.034 A 
HETATM   20 CL   UNL     1      43.365 -20.397   1.557  1.00  0.00    -0.084 Cl
HETATM   21  C   UNL     1      43.213 -17.872   2.498  1.00  0.00     0.024 A 
HETATM   22  C   UNL     1      43.375 -16.894   3.483  1.00  0.00     0.010 A 
ENDBRANCH  15  16
ENDBRANCH  12  15
ENDBRANCH   8  11
ENDBRANCH   5   7
BRANCH   4  23
HETATM   23  C   UNL     1      39.722 -11.963   3.547  1.00  0.00     0.732 A 
HETATM   24  N   UNL     1      40.169 -13.112   3.153  1.00  0.00    -0.067 NA
HETATM   25  C   UNL     1      39.956 -13.432   1.829  1.00  0.00     0.065 A 
HETATM   26  C   UNL     1      39.425 -12.591   0.921  1.00  0.00     0.036 A 
HETATM   27  C   UNL     1      40.356 -14.837   1.440  1.00  0.00     0.060 C 
HETATM   28  C   UNL     1      39.242 -12.909  -0.535  1.00  0.00     0.046 C 
HETATM   29  C   UNL     1      38.990 -11.255   1.388  1.00  0.00     0.268 A 
HETATM   30  C   UNL     1      39.956 -14.193  -0.960  1.00  0.00     0.005 C 
HETATM   31  C   UNL     1      39.787 -15.284   0.091  1.00  0.00     0.006 C 
HETATM   32  O   UNL     1      38.567 -10.398   0.623  1.00  0.00    -0.267 OA
HETATM   33  N   UNL     1      39.105 -11.054   2.726  1.00  0.00    -0.152 N 
HETATM   34  H   UNL     1      38.859 -10.147   3.110  1.00  0.00     0.188 HD
ENDBRANCH   4  23
TORSDOF 5
ENDMDL
MODEL 2
REMARK VINA RESULT:      -8.9      4.203      7.753
REMARK  5 active torsions:
REMARK  status: ('A' for Active; 'I' for Inactive)
REMARK    1  A    between atoms: N_4  and  C_5 
REMARK    2  A    between atoms: C_16  and  N_17 
REMARK       I    between atoms: N_17  and  C_18 
REMARK    3  A    between atoms: C_18  and  C_19 
REMARK       I    between atoms: C_19  and  N_20 
REMARK    4  A    between atoms: N_20  and  C_21 
REMARK    5  A    between atoms: C_21  and  C_22 
ROOT
HETATM    1  C   UNL     1      39.451 -13.908  -0.460  1.00  0.00     0.072 C 
HETATM    2  C   UNL     1      40.548 -14.046   0.529  1.00  0.00     0.055 C 
HETATM    3  N   UNL     1      40.681 -15.169   1.240  1.00  0.00    -0.156 NA
HETATM    4  N   UNL     1      41.812 -14.967   2.002  1.00  0.00    -0.045 N 
HETATM    5  C   UNL     1      42.236 -13.642   1.912  1.00  0.00     0.152 C 
HETATM    6  C   UNL     1      41.522 -13.087   0.873  1.00  0.00     0.079 C 
ENDROOT
BRANCH   5   7
HETATM    7  N   UNL     1      43.220 -13.018   2.657  1.00  0.00    -0.303 N 
HETATM    8  C   UNL     1      42.999 -12.618   3.962  1.00  0.00     0.315 C 
HETATM    9  O   UNL     1      41.983 -12.738   4.631  1.00  0.00    -0.262 OA
HETATM   10  H   UNL     1      43.975 -12.528   2.184  1.00  0.00     0.171 HD
BRANCH   8  11
HETATM   11  C   UNL     1      44.199 -11.824   4.527  1.00  0.00     0.310 C 
HETATM   12  N   UNL     1      44.276 -11.829   5.899  1.00  0.00    -0.349 N 
HETATM   13  H   UNL     1      43.518 -12.285   6.400  1.00  0.00     0.163 HD
HETATM   14  O   UNL     1      44.957 -11.243   3.763  1.00  0.00    -0.262 OA
BRANCH  12  15
HETATM   15  C   UNL     1      45.307 -11.129   6.620  1.00  0.00     0.161 C 
BRANCH  15  16
HETATM   16  C   UNL     1      44.798 -10.549   7.914  1.00  0.00    -0.040 A 
HETATM   17  C   UNL     1      43.473 -10.104   8.028  1.00  0.00     0.010 A 
HETATM   18  C   UNL     1      42.999  -9.588   9.237  1.00  0.00     0.024 A 
HETATM   19  C   UNL     1      43.851  -9.503  10.336  1.00  0.00     0.034 A 
HETATM   20 CL   UNL     1      43.263  -8.880  11.829  1.00  0.00    -0.084 Cl
HETATM   21  C   UNL     1      45.175  -9.923  10.235  1.00  0.00     0.024 A 
HETATM   22  C   UNL     1      45.648 -10.439   9.026  1.00  0.00     0.010 A 
ENDBRANCH  15  16
ENDBRANCH  12  15
ENDBRANCH   8  11
ENDBRANCH   5   7
BRANCH   4  23
HETATM   23  C   UNL     1      42.443 -16.106   2.557  1.00  0.00     0.732 A 
HETATM   24  N   UNL     1      42.383 -17.305   2.071  1.00  0.00    -0.067 NA
HETATM   25  C   UNL     1      43.034 -18.289   2.784  1.00  0.00     0.065 A 
HETATM   26  C   UNL     1      43.614 -18.099   3.984  1.00  0.00     0.036 A 
HETATM   27  C   UNL     1      43.070 -19.644   2.114  1.00  0.00     0.060 C 
HETATM   28  C   UNL     1      44.274 -19.176   4.796  1.00  0.00     0.046 C 
HETATM   29  C   UNL     1      43.601 -16.730   4.549  1.00  0.00     0.268 A 
HETATM   30  C   UNL     1      44.002 -20.581   4.255  1.00  0.00     0.005 C 
HETATM   31  C   UNL     1      44.087 -20.606   2.734  1.00  0.00     0.006 C 
HETATM   32  O   UNL     1      44.037 -16.476   5.665  1.00  0.00    -0.267 OA
HETATM   33  N   UNL     1      43.063 -15.784   3.737  1.00  0.00    -0.152 N 
HETATM   34  H   UNL     1      42.990 -14.830   4.075  1.00  0.00     0.188 HD
ENDBRANCH   4  23
TORSDOF 5
ENDMDL
MODEL 3
REMARK VINA RESULT:      -8.8      4.633      7.193
REMARK  5 active torsions:
REMARK  status: ('A' for Active; 'I' for Inactive)
REMARK    1  A    between atoms: N_4  and  C_5 
REMARK    2  A    between atoms: C_16  and  N_17 
REMARK       I    between atoms: N_17  and  C_18 
REMARK    3  A    between atoms: C_18  and  C_19 
REMARK       I    between atoms: C_19  and  N_20 
REMARK    4  A    between atoms: N_20  and  C_21 
REMARK    5  A    between atoms: C_21  and  C_22 
ROOT
HETATM    1  C   UNL     1      38.281 -10.020   2.957  1.00  0.00     0.072 C 
HETATM    2  C   UNL     1      39.269 -10.840   3.702  1.00  0.00     0.055 C 
HETATM    3  N   UNL     1      39.329 -12.162   3.515  1.00  0.00    -0.156 NA
HETATM    4  N   UNL     1      40.373 -12.579   4.313  1.00  0.00    -0.045 N 
HETATM    5  C   UNL     1      40.801 -11.545   5.144  1.00  0.00     0.152 C 
HETATM    6  C   UNL     1      40.199 -10.402   4.666  1.00  0.00     0.079 C 
ENDROOT
BRANCH   5   7
HETATM    7  N   UNL     1      41.699 -11.620   6.192  1.00  0.00    -0.303 N 
HETATM    8  C   UNL     1      43.029 -11.275   6.036  1.00  0.00     0.315 C 
HETATM    9  O   UNL     1      43.595 -10.873   5.029  1.00  0.00    -0.262 OA
HETATM   10  H   UNL     1      41.512 -12.244   6.974  1.00  0.00     0.171 HD
BRANCH   8  11
HETATM   11  C   UNL     1      43.853 -11.576   7.308  1.00  0.00     0.310 C 
HETATM   12  N   UNL     1      44.286 -10.455   7.973  1.00  0.00    -0.349 N 
HETATM   13  H   UNL     1      44.086  -9.558   7.538  1.00  0.00     0.163 HD
HETATM   14  O   UNL     1      44.084 -12.736   7.621  1.00  0.00    -0.262 OA
BRANCH  12  15
HETATM   15  C   UNL     1      45.086 -10.522   9.167  1.00  0.00     0.161 C 
BRANCH  15  16
HETATM   16  C   UNL     1      44.319 -10.084  10.388  1.00  0.00    -0.040 A 
HETATM   17  C   UNL     1      44.093  -8.723  10.641  1.00  0.00     0.010 A 
HETATM   18  C   UNL     1      43.361  -8.322  11.762  1.00  0.00     0.024 A 
HETATM   19  C   UNL     1      42.861  -9.279  12.642  1.00  0.00     0.034 A 
HETATM   20 CL   UNL     1      41.948  -8.785  14.015  1.00  0.00    -0.084 Cl
HETATM   21  C   UNL     1      43.092 -10.633  12.416  1.00  0.00     0.024 A 
HETATM   22  C   UNL     1      43.824 -11.034  11.295  1.00  0.00     0.010 A 
ENDBRANCH  15  16
ENDBRANCH  12  15
ENDBRANCH   8  11
ENDBRANCH   5   7
BRANCH   4  23
HETATM   23  C   UNL     1      40.945 -13.844   4.039  1.00  0.00     0.732 A 
HETATM   24  N   UNL     1      41.994 -14.333   4.620  1.00  0.00    -0.067 NA
HETATM   25  C   UNL     1      42.419 -15.568   4.180  1.00  0.00     0.065 A 
HETATM   26  C   UNL     1      41.888 -16.225   3.131  1.00  0.00     0.036 A 
HETATM   27  C   UNL     1      43.552 -16.174   4.977  1.00  0.00     0.060 C 
HETATM   28  C   UNL     1      42.381 -17.543   2.608  1.00  0.00     0.046 C 
HETATM   29  C   UNL     1      40.735 -15.604   2.440  1.00  0.00     0.268 A 
HETATM   30  C   UNL     1      43.721 -17.962   3.215  1.00  0.00     0.005 C 
HETATM   31  C   UNL     1      43.759 -17.667   4.710  1.00  0.00     0.006 C 
HETATM   32  O   UNL     1      40.235 -16.089   1.433  1.00  0.00    -0.267 OA
HETATM   33  N   UNL     1      40.283 -14.455   3.005  1.00  0.00    -0.152 N 
HETATM   34  H   UNL     1      39.517 -13.957   2.562  1.00  0.00     0.188 HD
ENDBRANCH   4  23
TORSDOF 5
ENDMDL
MODEL 4
REMARK VINA RESULT:      -8.5      5.228      8.029
REMARK  5 active torsions:
REMARK  status: ('A' for Active; 'I' for Inactive)
REMARK    1  A    between atoms: N_4  and  C_5 
REMARK    2  A    between atoms: C_16  and  N_17 
REMARK       I    between atoms: N_17  and  C_18 
REMARK    3  A    between atoms: C_18  and  C_19 
REMARK       I    between atoms: C_19  and  N_20 
REMARK    4  A    between atoms: N_20  and  C_21 
REMARK    5  A    between atoms: C_21  and  C_22 
ROOT
HETATM    1  C   UNL     1      38.041  -8.586   4.646  1.00  0.00     0.072 C 
HETATM    2  C   UNL     1      39.039  -9.447   5.327  1.00  0.00     0.055 C 
HETATM    3  N   UNL     1      39.037 -10.769   5.134  1.00  0.00    -0.156 NA
HETATM    4  N   UNL     1      40.111 -11.230   5.866  1.00  0.00    -0.045 N 
HETATM    5  C   UNL     1      40.627 -10.217   6.672  1.00  0.00     0.152 C 
HETATM    6  C   UNL     1      40.042  -9.049   6.234  1.00  0.00     0.079 C 
ENDROOT
BRANCH   5   7
HETATM    7  N   UNL     1      41.584 -10.332   7.664  1.00  0.00    -0.303 N 
HETATM    8  C   UNL     1      42.929 -10.448   7.366  1.00  0.00     0.315 C 
HETATM    9  O   UNL     1      43.464 -10.465   6.266  1.00  0.00    -0.262 OA
HETATM   10  H   UNL     1      41.320 -10.685   8.581  1.00  0.00     0.171 HD
BRANCH   8  11
HETATM   11  C   UNL     1      43.777 -10.701   8.633  1.00  0.00     0.310 C 
HETATM   12  N   UNL     1      43.177 -10.289   9.798  1.00  0.00    -0.349 N 
HETATM   13  H   UNL     1      42.287  -9.808   9.711  1.00  0.00     0.163 HD
HETATM   14  O   UNL     1      44.887 -11.204   8.530  1.00  0.00    -0.262 OA
BRANCH  12  15
HETATM   15  C   UNL     1      43.812 -10.416  11.084  1.00  0.00     0.161 C 
BRANCH  15  16
HETATM   16  C   UNL     1      43.131  -9.581  12.137  1.00  0.00    -0.040 A 
HETATM   17  C   UNL     1      42.018 -10.076  12.833  1.00  0.00     0.010 A 
HETATM   18  C   UNL     1      41.403  -9.306  13.825  1.00  0.00     0.024 A 
HETATM   19  C   UNL     1      41.891  -8.035  14.119  1.00  0.00     0.034 A 
HETATM   20 CL   UNL     1      41.141  -7.094  15.350  1.00  0.00    -0.084 Cl
HETATM   21  C   UNL     1      42.983  -7.522  13.424  1.00  0.00     0.024 A 
HETATM   22  C   UNL     1      43.598  -8.291  12.432  1.00  0.00     0.010 A 
ENDBRANCH  15  16
ENDBRANCH  12  15
ENDBRANCH   8  11
ENDBRANCH   5   7
BRANCH   4  23
HETATM   23  C   UNL     1      40.616 -12.515   5.554  1.00  0.00     0.732 A 
HETATM   24  N   UNL     1      41.325 -12.806   4.511  1.00  0.00    -0.067 NA
HETATM   25  C   UNL     1      41.686 -14.129   4.365  1.00  0.00     0.065 A 
HETATM   26  C   UNL     1      41.258 -15.125   5.163  1.00  0.00     0.036 A 
HETATM   27  C   UNL     1      42.636 -14.408   3.222  1.00  0.00     0.060 C 
HETATM   28  C   UNL     1      41.598 -16.575   4.978  1.00  0.00     0.046 C 
HETATM   29  C   UNL     1      40.386 -14.769   6.306  1.00  0.00     0.268 A 
HETATM   30  C   UNL     1      42.274 -16.864   3.637  1.00  0.00     0.005 C 
HETATM   31  C   UNL     1      43.298 -15.787   3.299  1.00  0.00     0.006 C 
HETATM   32  O   UNL     1      39.887 -15.613   7.039  1.00  0.00    -0.267 OA
HETATM   33  N   UNL     1      40.178 -13.437   6.470  1.00  0.00    -0.152 N 
HETATM   34  H   UNL     1      39.561 -13.123   7.212  1.00  0.00     0.188 HD
ENDBRANCH   4  23
TORSDOF 5
ENDMDL
MODEL 5
REMARK VINA RESULT:      -8.5      1.686      2.123
REMARK  5 active torsions:
REMARK  status: ('A' for Active; 'I' for Inactive)
REMARK    1  A    between atoms: N_4  and  C_5 
REMARK    2  A    between atoms: C_16  and  N_17 
REMARK       I    between atoms: N_17  and  C_18 
REMARK    3  A    between atoms: C_18  and  C_19 
REMARK       I    between atoms: C_19  and  N_20 
REMARK    4  A    between atoms: N_20  and  C_21 
REMARK    5  A    between atoms: C_21  and  C_22 
ROOT
HETATM    1  C   UNL     1      38.503  -7.466   6.317  1.00  0.00     0.072 C 
HETATM    2  C   UNL     1      39.162  -8.776   6.082  1.00  0.00     0.055 C 
HETATM    3  N   UNL     1      38.695  -9.609   5.149  1.00  0.00    -0.156 NA
HETATM    4  N   UNL     1      39.564 -10.680   5.172  1.00  0.00    -0.045 N 
HETATM    5  C   UNL     1      40.425 -10.591   6.265  1.00  0.00     0.152 C 
HETATM    6  C   UNL     1      40.268  -9.318   6.767  1.00  0.00     0.079 C 
ENDROOT
BRANCH   5   7
HETATM    7  N   UNL     1      41.312 -11.548   6.721  1.00  0.00    -0.303 N 
HETATM    8  C   UNL     1      42.626 -11.583   6.292  1.00  0.00     0.315 C 
HETATM    9  O   UNL     1      43.188 -10.836   5.503  1.00  0.00    -0.262 OA
HETATM   10  H   UNL     1      40.960 -12.431   7.084  1.00  0.00     0.171 HD
BRANCH   8  11
HETATM   11  C   UNL     1      43.373 -12.823   6.836  1.00  0.00     0.310 C 
HETATM   12  N   UNL     1      42.619 -13.971   6.842  1.00  0.00    -0.349 N 
HETATM   13  H   UNL     1      41.647 -13.884   6.560  1.00  0.00     0.163 HD
HETATM   14  O   UNL     1      44.524 -12.711   7.235  1.00  0.00    -0.262 OA
BRANCH  12  15
HETATM   15  C   UNL     1      43.125 -15.227   7.332  1.00  0.00     0.161 C 
BRANCH  15  16
HETATM   16  C   UNL     1      43.319 -16.229   6.223  1.00  0.00    -0.040 A 
HETATM   17  C   UNL     1      43.217 -15.839   4.879  1.00  0.00     0.010 A 
HETATM   18  C   UNL     1      43.420 -16.768   3.855  1.00  0.00     0.024 A 
HETATM   19  C   UNL     1      43.717 -18.092   4.167  1.00  0.00     0.034 A 
HETATM   20 CL   UNL     1      43.981 -19.231   2.904  1.00  0.00    -0.084 Cl
HETATM   21  C   UNL     1      43.804 -18.499   5.496  1.00  0.00     0.024 A 
HETATM   22  C   UNL     1      43.600 -17.572   6.521  1.00  0.00     0.010 A 
ENDBRANCH  15  16
ENDBRANCH  12  15
ENDBRANCH   8  11
ENDBRANCH   5   7
BRANCH   4  23
HETATM   23  C   UNL     1      39.582 -11.536   4.045  1.00  0.00     0.732 A 
HETATM   24  N   UNL     1      39.963 -12.773   4.053  1.00  0.00    -0.067 NA
HETATM   25  C   UNL     1      39.946 -13.428   2.839  1.00  0.00     0.065 A 
HETATM   26  C   UNL     1      39.672 -12.836   1.661  1.00  0.00     0.036 A 
HETATM   27  C   UNL     1      40.253 -14.907   2.907  1.00  0.00     0.060 C 
HETATM   28  C   UNL     1      39.706 -13.525   0.328  1.00  0.00     0.046 C 
HETATM   29  C   UNL     1      39.310 -11.399   1.678  1.00  0.00     0.268 A 
HETATM   30  C   UNL     1      40.340 -14.916   0.392  1.00  0.00     0.005 C 
HETATM   31  C   UNL     1      39.878 -15.669   1.634  1.00  0.00     0.006 C 
HETATM   32  O   UNL     1      39.118 -10.759   0.652  1.00  0.00    -0.267 OA
HETATM   33  N   UNL     1      39.216 -10.850   2.916  1.00  0.00    -0.152 N 
HETATM   34  H   UNL     1      39.007  -9.860   3.000  1.00  0.00     0.188 HD
ENDBRANCH   4  23
TORSDOF 5
ENDMDL
MODEL 6
REMARK VINA RESULT:      -8.5      2.646      6.305
REMARK  5 active torsions:
REMARK  status: ('A' for Active; 'I' for Inactive)
REMARK    1  A    between atoms: N_4  and  C_5 
REMARK    2  A    between atoms: C_16  and  N_17 
REMARK       I    between atoms: N_17  and  C_18 
REMARK    3  A    between atoms: C_18  and  C_19 
REMARK       I    between atoms: C_19  and  N_20 
REMARK    4  A    between atoms: N_20  and  C_21 
REMARK    5  A    between atoms: C_21  and  C_22 
ROOT
HETATM    1  C   UNL     1      44.054 -10.506   9.219  1.00  0.00     0.072 C 
HETATM    2  C   UNL     1      43.682 -10.868   7.828  1.00  0.00     0.055 C 
HETATM    3  N   UNL     1      44.098 -12.020   7.295  1.00  0.00    -0.156 NA
HETATM    4  N   UNL     1      43.532 -12.046   6.038  1.00  0.00    -0.045 N 
HETATM    5  C   UNL     1      42.955 -10.815   5.733  1.00  0.00     0.152 C 
HETATM    6  C   UNL     1      42.925 -10.108   6.915  1.00  0.00     0.079 C 
ENDROOT
BRANCH   5   7
HETATM    7  N   UNL     1      42.447 -10.398   4.516  1.00  0.00    -0.303 N 
HETATM    8  C   UNL     1      41.153 -10.697   4.129  1.00  0.00     0.315 C 
HETATM    9  O   UNL     1      40.303 -11.326   4.743  1.00  0.00    -0.262 OA
HETATM   10  H   UNL     1      43.082 -10.187   3.750  1.00  0.00     0.171 HD
BRANCH   8  11
HETATM   11  C   UNL     1      40.871 -10.243   2.678  1.00  0.00     0.310 C 
HETATM   12  N   UNL     1      41.499 -11.004   1.723  1.00  0.00    -0.349 N 
HETATM   13  H   UNL     1      42.127 -11.731   2.054  1.00  0.00     0.163 HD
HETATM   14  O   UNL     1      40.164  -9.266   2.475  1.00  0.00    -0.262 OA
BRANCH  12  15
HETATM   15  C   UNL     1      41.382 -10.730   0.314  1.00  0.00     0.161 C 
BRANCH  15  16
HETATM   16  C   UNL     1      40.719 -11.862  -0.429  1.00  0.00    -0.040 A 
HETATM   17  C   UNL     1      40.346 -11.714  -1.773  1.00  0.00     0.010 A 
HETATM   18  C   UNL     1      39.752 -12.774  -2.464  1.00  0.00     0.024 A 
HETATM   19  C   UNL     1      39.519 -13.984  -1.813  1.00  0.00     0.034 A 
HETATM   20 CL   UNL     1      38.801 -15.292  -2.669  1.00  0.00    -0.084 Cl
HETATM   21  C   UNL     1      39.867 -14.140  -0.474  1.00  0.00     0.024 A 
HETATM   22  C   UNL     1      40.460 -13.081   0.218  1.00  0.00     0.010 A 
ENDBRANCH  15  16
ENDBRANCH  12  15
ENDBRANCH   8  11
ENDBRANCH   5   7
BRANCH   4  23
HETATM   23  C   UNL     1      43.450 -13.297   5.380  1.00  0.00     0.732 A 
HETATM   24  N   UNL     1      43.173 -13.465   4.127  1.00  0.00    -0.067 NA
HETATM   25  C   UNL     1      43.099 -14.769   3.685  1.00  0.00     0.065 A 
HETATM   26  C   UNL     1      43.183 -15.848   4.486  1.00  0.00     0.036 A 
HETATM   27  C   UNL     1      42.923 -14.928   2.191  1.00  0.00     0.060 C 
HETATM   28  C   UNL     1      43.046 -17.270   4.024  1.00  0.00     0.046 C 
HETATM   29  C   UNL     1      43.426 -15.620   5.929  1.00  0.00     0.268 A 
HETATM   30  C   UNL     1      42.539 -17.383   2.585  1.00  0.00     0.005 C 
HETATM   31  C   UNL     1      43.205 -16.346   1.689  1.00  0.00     0.006 C 
HETATM   32  O   UNL     1      43.442 -16.533   6.744  1.00  0.00    -0.267 OA
HETATM   33  N   UNL     1      43.621 -14.321   6.275  1.00  0.00    -0.152 N 
HETATM   34  H   UNL     1      43.758 -14.088   7.254  1.00  0.00     0.188 HD
ENDBRANCH   4  23
TORSDOF 5
ENDMDL
MODEL 7
REMARK VINA RESULT:      -8.4      3.409      7.788
REMARK  5 active torsions:
REMARK  status: ('A' for Active; 'I' for Inactive)
REMARK    1  A    between atoms: N_4  and  C_5 
REMARK    2  A    between atoms: C_16  and  N_17 
REMARK       I    between atoms: N_17  and  C_18 
REMARK    3  A    between atoms: C_18  and  C_19 
REMARK       I    between atoms: C_19  and  N_20 
REMARK    4  A    between atoms: N_20  and  C_21 
REMARK    5  A    between atoms: C_21  and  C_22 
ROOT
HETATM    1  C   UNL     1      43.812 -17.443   5.988  1.00  0.00     0.072 C 
HETATM    2  C   UNL     1      43.425 -16.061   5.609  1.00  0.00     0.055 C 
HETATM    3  N   UNL     1      43.468 -15.076   6.510  1.00  0.00    -0.156 NA
HETATM    4  N   UNL     1      43.101 -13.946   5.809  1.00  0.00    -0.045 N 
HETATM    5  C   UNL     1      42.628 -14.286   4.542  1.00  0.00     0.152 C 
HETATM    6  C   UNL     1      42.960 -15.610   4.357  1.00  0.00     0.079 C 
ENDROOT
BRANCH   5   7
HETATM    7  N   UNL     1      42.015 -13.458   3.620  1.00  0.00    -0.303 N 
HETATM    8  C   UNL     1      42.722 -12.496   2.923  1.00  0.00     0.315 C 
HETATM    9  O   UNL     1      43.915 -12.233   2.992  1.00  0.00    -0.262 OA
HETATM   10  H   UNL     1      41.014 -13.287   3.683  1.00  0.00     0.171 HD
BRANCH   8  11
HETATM   11  C   UNL     1      41.792 -11.614   2.061  1.00  0.00     0.310 C 
HETATM   12  N   UNL     1      40.579 -12.192   1.775  1.00  0.00    -0.349 N 
HETATM   13  H   UNL     1      40.440 -13.147   2.092  1.00  0.00     0.163 HD
HETATM   14  O   UNL     1      42.178 -10.518   1.678  1.00  0.00    -0.262 OA
BRANCH  12  15
HETATM   15  C   UNL     1      39.581 -11.542   0.966  1.00  0.00     0.161 C 
BRANCH  15  16
HETATM   16  C   UNL     1      39.180 -12.379  -0.220  1.00  0.00    -0.040 A 
HETATM   17  C   UNL     1      38.147 -11.964  -1.074  1.00  0.00     0.010 A 
HETATM   18  C   UNL     1      37.794 -12.733  -2.186  1.00  0.00     0.024 A 
HETATM   19  C   UNL     1      38.465 -13.926  -2.446  1.00  0.00     0.034 A 
HETATM   20 CL   UNL     1      38.038 -14.865  -3.823  1.00  0.00    -0.084 Cl
HETATM   21  C   UNL     1      39.480 -14.362  -1.598  1.00  0.00     0.024 A 
HETATM   22  C   UNL     1      39.833 -13.593  -0.486  1.00  0.00     0.010 A 
ENDBRANCH  15  16
ENDBRANCH  12  15
ENDBRANCH   8  11
ENDBRANCH   5   7
BRANCH   4  23
HETATM   23  C   UNL     1      43.431 -12.689   6.369  1.00  0.00     0.732 A 
HETATM   24  N   UNL     1      44.604 -12.346   6.796  1.00  0.00    -0.067 NA
HETATM   25  C   UNL     1      44.711 -11.087   7.348  1.00  0.00     0.065 A 
HETATM   26  C   UNL     1      43.669 -10.262   7.565  1.00  0.00     0.036 A 
HETATM   27  C   UNL     1      46.119 -10.662   7.699  1.00  0.00     0.060 C 
HETATM   28  C   UNL     1      43.767  -8.913   8.217  1.00  0.00     0.046 C 
HETATM   29  C   UNL     1      42.328 -10.714   7.131  1.00  0.00     0.268 A 
HETATM   30  C   UNL     1      45.132  -8.658   8.858  1.00  0.00     0.005 C 
HETATM   31  C   UNL     1      46.258  -9.160   7.962  1.00  0.00     0.006 C 
HETATM   32  O   UNL     1      41.313 -10.066   7.353  1.00  0.00    -0.267 OA
HETATM   33  N   UNL     1      42.312 -11.904   6.476  1.00  0.00    -0.152 N 
HETATM   34  H   UNL     1      41.421 -12.291   6.182  1.00  0.00     0.188 HD
ENDBRANCH   4  23
TORSDOF 5
ENDMDL
MODEL 8
REMARK VINA RESULT:      -8.4      3.249      6.546
REMARK  5 active torsions:
REMARK  status: ('A' for Active; 'I' for Inactive)
REMARK    1  A    between atoms: N_4  and  C_5 
REMARK    2  A    between atoms: C_16  and  N_17 
REMARK       I    between atoms: N_17  and  C_18 
REMARK    3  A    between atoms: C_18  and  C_19 
REMARK       I    between atoms: C_19  and  N_20 
REMARK    4  A    between atoms: N_20  and  C_21 
REMARK    5  A    between atoms: C_21  and  C_22 
ROOT
HETATM    1  C   UNL     1      40.264  -8.460   3.528  1.00  0.00     0.072 C 
HETATM    2  C   UNL     1      40.772  -9.383   4.574  1.00  0.00     0.055 C 
HETATM    3  N   UNL     1      41.521  -8.920   5.579  1.00  0.00    -0.156 NA
HETATM    4  N   UNL     1      41.763 -10.024   6.369  1.00  0.00    -0.045 N 
HETATM    5  C   UNL     1      41.345 -11.189   5.729  1.00  0.00     0.152 C 
HETATM    6  C   UNL     1      40.591 -10.778   4.652  1.00  0.00     0.079 C 
ENDROOT
BRANCH   5   7
HETATM    7  N   UNL     1      41.571 -12.495   6.120  1.00  0.00    -0.303 N 
HETATM    8  C   UNL     1      42.591 -13.252   5.573  1.00  0.00     0.315 C 
HETATM    9  O   UNL     1      43.405 -12.925   4.721  1.00  0.00    -0.262 OA
HETATM   10  H   UNL     1      40.814 -13.036   6.532  1.00  0.00     0.171 HD
BRANCH   8  11
HETATM   11  C   UNL     1      42.549 -14.715   6.071  1.00  0.00     0.310 C 
HETATM   12  N   UNL     1      43.727 -15.399   5.894  1.00  0.00    -0.349 N 
HETATM   13  H   UNL     1      44.472 -14.912   5.404  1.00  0.00     0.163 HD
HETATM   14  O   UNL     1      41.516 -15.165   6.545  1.00  0.00    -0.262 OA
BRANCH  12  15
HETATM   15  C   UNL     1      43.885 -16.780   6.272  1.00  0.00     0.161 C 
BRANCH  15  16
HETATM   16  C   UNL     1      43.827 -17.702   5.082  1.00  0.00    -0.040 A 
HETATM   17  C   UNL     1      44.118 -19.067   5.219  1.00  0.00     0.010 A 
HETATM   18  C   UNL     1      44.041 -19.923   4.117  1.00  0.00     0.024 A 
HETATM   19  C   UNL     1      43.682 -19.417   2.869  1.00  0.00     0.034 A 
HETATM   20 CL   UNL     1      43.573 -20.474   1.516  1.00  0.00    -0.084 Cl
HETATM   21  C   UNL     1      43.407 -18.061   2.712  1.00  0.00     0.024 A 
HETATM   22  C   UNL     1      43.486 -17.205   3.814  1.00  0.00     0.010 A 
ENDBRANCH  15  16
ENDBRANCH  12  15
ENDBRANCH   8  11
ENDBRANCH   5   7
BRANCH   4  23
HETATM   23  C   UNL     1      42.182  -9.798   7.702  1.00  0.00     0.732 A 
HETATM   24  N   UNL     1      41.569  -9.048   8.561  1.00  0.00    -0.067 NA
HETATM   25  C   UNL     1      42.163  -8.924   9.800  1.00  0.00     0.065 A 
HETATM   26  C   UNL     1      43.368  -9.431  10.119  1.00  0.00     0.036 A 
HETATM   27  C   UNL     1      41.348  -8.165  10.824  1.00  0.00     0.060 C 
HETATM   28  C   UNL     1      44.049  -9.252  11.445  1.00  0.00     0.046 C 
HETATM   29  C   UNL     1      44.079 -10.223   9.088  1.00  0.00     0.268 A 
HETATM   30  C   UNL     1      43.362  -8.212  12.332  1.00  0.00     0.005 C 
HETATM   31  C   UNL     1      41.846  -8.349  12.260  1.00  0.00     0.006 C 
HETATM   32  O   UNL     1      45.210 -10.660   9.261  1.00  0.00    -0.267 OA
HETATM   33  N   UNL     1      43.381 -10.419   7.940  1.00  0.00    -0.152 N 
HETATM   34  H   UNL     1      43.822 -10.923   7.177  1.00  0.00     0.188 HD
ENDBRANCH   4  23
TORSDOF 5
ENDMDL
MODEL 9
REMARK VINA RESULT:      -8.1      3.703      8.060
REMARK  5 active torsions:
REMARK  status: ('A' for Active; 'I' for Inactive)
REMARK    1  A    between atoms: N_4  and  C_5 
REMARK    2  A    between atoms: C_16  and  N_17 
REMARK       I    between atoms: N_17  and  C_18 
REMARK    3  A    between atoms: C_18  and  C_19 
REMARK       I    between atoms: C_19  and  N_20 
REMARK    4  A    between atoms: N_20  and  C_21 
REMARK    5  A    between atoms: C_21  and  C_22 
ROOT
HETATM    1  C   UNL     1      39.526 -11.238   6.711  1.00  0.00     0.072 C 
HETATM    2  C   UNL     1      39.844 -12.123   5.562  1.00  0.00     0.055 C 
HETATM    3  N   UNL     1      40.963 -12.852   5.560  1.00  0.00    -0.156 NA
HETATM    4  N   UNL     1      40.903 -13.576   4.387  1.00  0.00    -0.045 N 
HETATM    5  C   UNL     1      39.859 -13.123   3.582  1.00  0.00     0.152 C 
HETATM    6  C   UNL     1      39.098 -12.297   4.379  1.00  0.00     0.079 C 
ENDROOT
BRANCH   5   7
HETATM    7  N   UNL     1      39.588 -13.477   2.273  1.00  0.00    -0.303 N 
HETATM    8  C   UNL     1      40.394 -13.066   1.227  1.00  0.00     0.315 C 
HETATM    9  O   UNL     1      41.404 -12.379   1.272  1.00  0.00    -0.262 OA
HETATM   10  H   UNL     1      38.639 -13.728   2.006  1.00  0.00     0.171 HD
BRANCH   8  11
HETATM   11  C   UNL     1      39.804 -13.473  -0.143  1.00  0.00     0.310 C 
HETATM   12  N   UNL     1      38.675 -12.774  -0.495  1.00  0.00    -0.349 N 
HETATM   13  H   UNL     1      38.306 -12.122   0.192  1.00  0.00     0.163 HD
HETATM   14  O   UNL     1      40.333 -14.365  -0.790  1.00  0.00    -0.262 OA
BRANCH  12  15
HETATM   15  C   UNL     1      37.963 -13.019  -1.722  1.00  0.00     0.161 C 
BRANCH  15  16
HETATM   16  C   UNL     1      37.788 -11.763  -2.535  1.00  0.00    -0.040 A 
HETATM   17  C   UNL     1      36.506 -11.279  -2.838  1.00  0.00     0.010 A 
HETATM   18  C   UNL     1      36.349 -10.101  -3.573  1.00  0.00     0.024 A 
HETATM   19  C   UNL     1      37.471  -9.405  -4.018  1.00  0.00     0.034 A 
HETATM   20 CL   UNL     1      37.275  -7.947  -4.911  1.00  0.00    -0.084 Cl
HETATM   21  C   UNL     1      38.749  -9.881  -3.741  1.00  0.00     0.024 A 
HETATM   22  C   UNL     1      38.907 -11.060  -3.007  1.00  0.00     0.010 A 
ENDBRANCH  15  16
ENDBRANCH  12  15
ENDBRANCH   8  11
ENDBRANCH   5   7
BRANCH   4  23
HETATM   23  C   UNL     1      41.726 -14.722   4.280  1.00  0.00     0.732 A 
HETATM   24  N   UNL     1      41.571 -15.676   3.419  1.00  0.00    -0.067 NA
HETATM   25  C   UNL     1      42.456 -16.730   3.505  1.00  0.00     0.065 A 
HETATM   26  C   UNL     1      43.373 -16.874   4.480  1.00  0.00     0.036 A 
HETATM   27  C   UNL     1      42.341 -17.752   2.396  1.00  0.00     0.060 C 
HETATM   28  C   UNL     1      44.301 -18.045   4.617  1.00  0.00     0.046 C 
HETATM   29  C   UNL     1      43.476 -15.799   5.495  1.00  0.00     0.268 A 
HETATM   30  C   UNL     1      43.938 -19.206   3.688  1.00  0.00     0.005 C 
HETATM   31  C   UNL     1      43.543 -18.696   2.307  1.00  0.00     0.006 C 
HETATM   32  O   UNL     1      44.227 -15.877   6.459  1.00  0.00    -0.267 OA
HETATM   33  N   UNL     1      42.670 -14.730   5.275  1.00  0.00    -0.152 N 
HETATM   34  H   UNL     1      42.663 -13.972   5.951  1.00  0.00     0.188 HD
ENDBRANCH   4  23
TORSDOF 5
ENDMDL
MODEL 10
REMARK VINA RESULT:      -8.0     16.253     18.075
REMARK  5 active torsions:
REMARK  status: ('A' for Active; 'I' for Inactive)
REMARK    1  A    between atoms: N_4  and  C_5 
REMARK    2  A    between atoms: C_16  and  N_17 
REMARK       I    between atoms: N_17  and  C_18 
REMARK    3  A    between atoms: C_18  and  C_19 
REMARK       I    between atoms: C_19  and  N_20 
REMARK    4  A    between atoms: N_20  and  C_21 
REMARK    5  A    between atoms: C_21  and  C_22 
ROOT
HETATM    1  C   UNL     1      45.101 -27.706  -3.944  1.00  0.00     0.072 C 
HETATM    2  C   UNL     1      45.648 -28.126  -2.630  1.00  0.00     0.055 C 
HETATM    3  N   UNL     1      44.838 -28.282  -1.579  1.00  0.00    -0.156 NA
HETATM    4  N   UNL     1      45.665 -28.718  -0.565  1.00  0.00    -0.045 N 
HETATM    5  C   UNL     1      47.002 -28.617  -0.943  1.00  0.00     0.152 C 
HETATM    6  C   UNL     1      46.995 -28.373  -2.298  1.00  0.00     0.079 C 
ENDROOT
BRANCH   5   7
HETATM    7  N   UNL     1      48.120 -28.793  -0.148  1.00  0.00    -0.303 N 
HETATM    8  C   UNL     1      48.785 -30.004  -0.088  1.00  0.00     0.315 C 
HETATM    9  O   UNL     1      48.526 -31.042  -0.680  1.00  0.00    -0.262 OA
HETATM   10  H   UNL     1      48.268 -28.187   0.655  1.00  0.00     0.171 HD
BRANCH   8  11
HETATM   11  C   UNL     1      49.911 -29.987   0.970  1.00  0.00     0.310 C 
HETATM   12  N   UNL     1      49.504 -29.565   2.213  1.00  0.00    -0.349 N 
HETATM   13  H   UNL     1      48.542 -29.249   2.298  1.00  0.00     0.163 HD
HETATM   14  O   UNL     1      51.049 -30.306   0.652  1.00  0.00    -0.262 OA
BRANCH  12  15
HETATM   15  C   UNL     1      50.407 -29.457   3.329  1.00  0.00     0.161 C 
BRANCH  15  16
HETATM   16  C   UNL     1      50.217 -30.576   4.321  1.00  0.00    -0.040 A 
HETATM   17  C   UNL     1      51.305 -31.084   5.045  1.00  0.00     0.010 A 
HETATM   18  C   UNL     1      51.120 -32.106   5.980  1.00  0.00     0.024 A 
HETATM   19  C   UNL     1      49.848 -32.633   6.189  1.00  0.00     0.034 A 
HETATM   20 CL   UNL     1      49.619 -33.882   7.350  1.00  0.00    -0.084 Cl
HETATM   21  C   UNL     1      48.760 -32.153   5.465  1.00  0.00     0.024 A 
HETATM   22  C   UNL     1      48.945 -31.131   4.529  1.00  0.00     0.010 A 
ENDBRANCH  15  16
ENDBRANCH  12  15
ENDBRANCH   8  11
ENDBRANCH   5   7
BRANCH   4  23
HETATM   23  C   UNL     1      45.061 -29.351   0.548  1.00  0.00     0.732 A 
HETATM   24  N   UNL     1      45.629 -30.233   1.306  1.00  0.00    -0.067 NA
HETATM   25  C   UNL     1      44.856 -30.763   2.317  1.00  0.00     0.065 A 
HETATM   26  C   UNL     1      43.545 -30.507   2.484  1.00  0.00     0.036 A 
HETATM   27  C   UNL     1      45.593 -31.676   3.271  1.00  0.00     0.060 C 
HETATM   28  C   UNL     1      42.681 -31.123   3.546  1.00  0.00     0.046 C 
HETATM   29  C   UNL     1      42.905 -29.548   1.554  1.00  0.00     0.268 A 
HETATM   30  C   UNL     1      43.365 -32.281   4.274  1.00  0.00     0.005 C 
HETATM   31  C   UNL     1      44.825 -31.955   4.566  1.00  0.00     0.006 C 
HETATM   32  O   UNL     1      41.704 -29.309   1.581  1.00  0.00    -0.267 OA
HETATM   33  N   UNL     1      43.751 -28.963   0.668  1.00  0.00    -0.152 N 
HETATM   34  H   UNL     1      43.374 -28.322  -0.023  1.00  0.00     0.188 HD
ENDBRANCH   4  23
TORSDOF 5
ENDMDL
