MODEL 1
REMARK VINA RESULT:      -9.8      0.000      0.000
REMARK  11 active torsions:
REMARK  status: ('A' for Active; 'I' for Inactive)
REMARK    1  A    between atoms: O_2  and  C_3 
REMARK    2  A    between atoms: C_6  and  C_7 
REMARK    3  A    between atoms: C_7  and  C_8 
REMARK    4  A    between atoms: C_8  and  N_9 
REMARK    5  A    between atoms: C_13  and  C_14 
REMARK    6  A    between atoms: C_14  and  C_15 
REMARK    7  A    between atoms: C_25  and  N_26 
REMARK    8  A    between atoms: N_26  and  C_27 
REMARK    9  A    between atoms: C_27  and  C_28 
REMARK   10  A    between atoms: C_28  and  O_29 
REMARK   11  A    between atoms: C_28  and  C_30 
ROOT
HETATM    1  C   UNL     1      43.057 -13.748   4.725  1.00  0.00     0.074 A 
HETATM    2  C   UNL     1      42.828 -13.191   3.363  1.00  0.00     0.266 A 
HETATM    3  O   UNL     1      43.492 -12.226   2.974  1.00  0.00    -0.267 OA
HETATM    4  N   UNL     1      41.859 -13.825   2.602  1.00  0.00    -0.273 N 
HETATM    5  C   UNL     1      41.219 -14.942   3.109  1.00  0.00     0.138 A 
HETATM    6  N   UNL     1      41.454 -15.455   4.274  1.00  0.00    -0.218 NA
HETATM    7  C   UNL     1      41.550 -13.337   1.337  1.00  0.00     0.102 A 
HETATM    8  C   UNL     1      40.627 -13.919   0.562  1.00  0.00     0.018 A 
HETATM    9  C   UNL     1      39.927 -15.085   1.032  1.00  0.00     0.005 A 
HETATM   10  C   UNL     1      40.195 -15.591   2.242  1.00  0.00     0.051 A 
HETATM   11  C   UNL     1      42.373 -14.856   5.091  1.00  0.00     0.121 A 
ENDROOT
BRANCH   1  12
HETATM   12  C   UNL     1      43.920 -13.024   5.647  1.00  0.00     0.045 C 
BRANCH  12  13
HETATM   13  C   UNL     1      43.605 -11.864   6.235  1.00  0.00     0.077 C 
HETATM   14  S   UNL     1      42.036 -11.210   6.489  1.00  0.00    -0.055 SA
HETATM   15  C   UNL     1      42.652  -9.860   7.429  1.00  0.00     0.148 C 
HETATM   16  N   UNL     1      44.022  -9.964   7.552  1.00  0.00    -0.298 N 
HETATM   17  S   UNL     1      41.650  -8.680   8.050  1.00  0.00    -0.052 SA
HETATM   18  C   UNL     1      44.634 -10.984   6.845  1.00  0.00     0.266 C 
HETATM   19  O   UNL     1      45.840 -11.162   6.733  1.00  0.00    -0.266 OA
BRANCH  16  20
HETATM   20  C   UNL     1      44.840  -9.125   8.421  1.00  0.00     0.138 C 
BRANCH  20  21
HETATM   21  C   UNL     1      45.368  -9.845   9.663  1.00  0.00     0.059 C 
BRANCH  21  22
HETATM   22  C   UNL     1      44.362  -9.731  10.783  1.00  0.00    -0.057 A 
HETATM   23  C   UNL     1      43.869 -10.874  11.425  1.00  0.00     0.010 A 
HETATM   24  C   UNL     1      42.879 -10.768  12.410  1.00  0.00     0.037 A 
HETATM   25  C   UNL     1      42.365  -9.519  12.757  1.00  0.00     0.068 A 
HETATM   26  C   UNL     1      42.849  -8.379  12.114  1.00  0.00     0.037 A 
HETATM   27  C   UNL     1      43.843  -8.480  11.138  1.00  0.00     0.010 A 
BRANCH  25  28
HETATM   28  O   UNL     1      41.389  -9.279  13.685  1.00  0.00    -0.356 OA
HETATM   29  C   UNL     1      41.752  -8.483  14.806  1.00  0.00     0.210 C 
ENDBRANCH  25  28
ENDBRANCH  21  22
ENDBRANCH  20  21
ENDBRANCH  16  20
ENDBRANCH  12  13
ENDBRANCH   1  12
BRANCH  11  30
HETATM   30  N   UNL     1      42.527 -15.423   6.353  1.00  0.00    -0.274 NA
HETATM   31  H   UNL     1      41.797 -15.015   6.945  1.00  0.00     0.129 HD
BRANCH  30  32
HETATM   32  C   UNL     1      42.445 -16.885   6.527  1.00  0.00     0.130 C 
BRANCH  32  33
HETATM   33  C   UNL     1      43.806 -17.570   6.279  1.00  0.00     0.164 C 
BRANCH  33  34
HETATM   34  O   UNL     1      44.838 -16.584   6.133  1.00  0.00    -0.390 OA
HETATM   35  H   UNL     1      44.746 -16.210   5.239  1.00  0.00     0.210 HD
ENDBRANCH  33  34
BRANCH  33  36
HETATM   36  C   UNL     1      43.800 -18.536   5.108  1.00  0.00    -0.029 A 
HETATM   37  C   UNL     1      43.952 -19.912   5.337  1.00  0.00     0.010 A 
HETATM   38  C   UNL     1      43.961 -20.813   4.271  1.00  0.00     0.001 A 
HETATM   39  C   UNL     1      43.822 -20.350   2.964  1.00  0.00     0.000 A 
HETATM   40  C   UNL     1      43.650 -18.988   2.723  1.00  0.00     0.001 A 
HETATM   41  C   UNL     1      43.632 -18.088   3.789  1.00  0.00     0.010 A 
ENDBRANCH  33  36
ENDBRANCH  32  33
ENDBRANCH  30  32
ENDBRANCH  11  30
TORSDOF 11
ENDMDL
MODEL 2
REMARK VINA RESULT:      -9.7      0.859      1.555
REMARK  11 active torsions:
REMARK  status: ('A' for Active; 'I' for Inactive)
REMARK    1  A    between atoms: O_2  and  C_3 
REMARK    2  A    between atoms: C_6  and  C_7 
REMARK    3  A    between atoms: C_7  and  C_8 
REMARK    4  A    between atoms: C_8  and  N_9 
REMARK    5  A    between atoms: C_13  and  C_14 
REMARK    6  A    between atoms: C_14  and  C_15 
REMARK    7  A    between atoms: C_25  and  N_26 
REMARK    8  A    between atoms: N_26  and  C_27 
REMARK    9  A    between atoms: C_27  and  C_28 
REMARK   10  A    between atoms: C_28  and  O_29 
REMARK   11  A    between atoms: C_28  and  C_30 
ROOT
HETATM    1  C   UNL     1      43.057 -13.380   4.895  1.00  0.00     0.074 A 
HETATM    2  C   UNL     1      42.819 -12.815   3.537  1.00  0.00     0.266 A 
HETATM    3  O   UNL     1      43.426 -11.804   3.176  1.00  0.00    -0.267 OA
HETATM    4  N   UNL     1      41.909 -13.499   2.746  1.00  0.00    -0.273 N 
HETATM    5  C   UNL     1      41.333 -14.664   3.223  1.00  0.00     0.138 A 
HETATM    6  N   UNL     1      41.578 -15.179   4.384  1.00  0.00    -0.218 NA
HETATM    7  C   UNL     1      41.594 -13.011   1.482  1.00  0.00     0.102 A 
HETATM    8  C   UNL     1      40.727 -13.640   0.680  1.00  0.00     0.018 A 
HETATM    9  C   UNL     1      40.096 -14.856   1.117  1.00  0.00     0.005 A 
HETATM   10  C   UNL     1      40.372 -15.363   2.324  1.00  0.00     0.051 A 
HETATM   11  C   UNL     1      42.439 -14.535   5.230  1.00  0.00     0.121 A 
ENDROOT
BRANCH   1  12
HETATM   12  C   UNL     1      43.852 -12.616   5.846  1.00  0.00     0.045 C 
BRANCH  12  13
HETATM   13  C   UNL     1      43.397 -11.583   6.565  1.00  0.00     0.077 C 
HETATM   14  S   UNL     1      41.899 -10.760   6.383  1.00  0.00    -0.055 SA
HETATM   15  C   UNL     1      42.165  -9.773   7.812  1.00  0.00     0.148 C 
HETATM   16  N   UNL     1      43.361 -10.122   8.404  1.00  0.00    -0.298 N 
HETATM   17  S   UNL     1      41.069  -8.618   8.310  1.00  0.00    -0.052 SA
HETATM   18  C   UNL     1      44.144 -11.041   7.727  1.00  0.00     0.266 C 
HETATM   19  O   UNL     1      45.281 -11.381   8.029  1.00  0.00    -0.266 OA
BRANCH  16  20
HETATM   20  C   UNL     1      43.810  -9.643   9.707  1.00  0.00     0.138 C 
BRANCH  20  21
HETATM   21  C   UNL     1      43.277 -10.460  10.886  1.00  0.00     0.059 C 
BRANCH  21  22
HETATM   22  C   UNL     1      42.963  -9.540  12.042  1.00  0.00    -0.057 A 
HETATM   23  C   UNL     1      43.598  -8.298  12.164  1.00  0.00     0.010 A 
HETATM   24  C   UNL     1      43.363  -7.483  13.279  1.00  0.00     0.037 A 
HETATM   25  C   UNL     1      42.495  -7.905  14.286  1.00  0.00     0.068 A 
HETATM   26  C   UNL     1      41.866  -9.146  14.170  1.00  0.00     0.037 A 
HETATM   27  C   UNL     1      42.093  -9.957  13.056  1.00  0.00     0.010 A 
BRANCH  25  28
HETATM   28  O   UNL     1      42.192  -7.216  15.428  1.00  0.00    -0.356 OA
HETATM   29  C   UNL     1      40.998  -7.589  16.104  1.00  0.00     0.210 C 
ENDBRANCH  25  28
ENDBRANCH  21  22
ENDBRANCH  20  21
ENDBRANCH  16  20
ENDBRANCH  12  13
ENDBRANCH   1  12
BRANCH  11  30
HETATM   30  N   UNL     1      42.605 -15.112   6.486  1.00  0.00    -0.274 NA
HETATM   31  H   UNL     1      41.935 -14.649   7.107  1.00  0.00     0.129 HD
BRANCH  30  32
HETATM   32  C   UNL     1      42.420 -16.564   6.669  1.00  0.00     0.130 C 
BRANCH  32  33
HETATM   33  C   UNL     1      43.754 -17.331   6.555  1.00  0.00     0.164 C 
BRANCH  33  34
HETATM   34  O   UNL     1      44.852 -16.410   6.485  1.00  0.00    -0.390 OA
HETATM   35  H   UNL     1      45.666 -16.942   6.501  1.00  0.00     0.210 HD
ENDBRANCH  33  34
BRANCH  33  36
HETATM   36  C   UNL     1      43.793 -18.322   5.406  1.00  0.00    -0.029 A 
HETATM   37  C   UNL     1      43.734 -17.861   4.082  1.00  0.00     0.010 A 
HETATM   38  C   UNL     1      43.757 -18.760   3.015  1.00  0.00     0.001 A 
HETATM   39  C   UNL     1      43.837 -20.129   3.256  1.00  0.00     0.000 A 
HETATM   40  C   UNL     1      43.918 -20.601   4.565  1.00  0.00     0.001 A 
HETATM   41  C   UNL     1      43.903 -19.703   5.633  1.00  0.00     0.010 A 
ENDBRANCH  33  36
ENDBRANCH  32  33
ENDBRANCH  30  32
ENDBRANCH  11  30
TORSDOF 11
ENDMDL
MODEL 3
REMARK VINA RESULT:      -9.0      3.068      9.147
REMARK  11 active torsions:
REMARK  status: ('A' for Active; 'I' for Inactive)
REMARK    1  A    between atoms: O_2  and  C_3 
REMARK    2  A    between atoms: C_6  and  C_7 
REMARK    3  A    between atoms: C_7  and  C_8 
REMARK    4  A    between atoms: C_8  and  N_9 
REMARK    5  A    between atoms: C_13  and  C_14 
REMARK    6  A    between atoms: C_14  and  C_15 
REMARK    7  A    between atoms: C_25  and  N_26 
REMARK    8  A    between atoms: N_26  and  C_27 
REMARK    9  A    between atoms: C_27  and  C_28 
REMARK   10  A    between atoms: C_28  and  O_29 
REMARK   11  A    between atoms: C_28  and  C_30 
ROOT
HETATM    1  C   UNL     1      39.686 -10.916   5.899  1.00  0.00     0.074 A 
HETATM    2  C   UNL     1      38.894  -9.653   5.898  1.00  0.00     0.266 A 
HETATM    3  O   UNL     1      37.722  -9.663   5.515  1.00  0.00    -0.267 OA
HETATM    4  N   UNL     1      39.554  -8.523   6.354  1.00  0.00    -0.273 N 
HETATM    5  C   UNL     1      40.850  -8.635   6.826  1.00  0.00     0.138 A 
HETATM    6  N   UNL     1      41.519  -9.742   6.872  1.00  0.00    -0.218 NA
HETATM    7  C   UNL     1      38.902  -7.295   6.341  1.00  0.00     0.102 A 
HETATM    8  C   UNL     1      39.495  -6.177   6.777  1.00  0.00     0.018 A 
HETATM    9  C   UNL     1      40.841  -6.228   7.281  1.00  0.00     0.005 A 
HETATM   10  C   UNL     1      41.505  -7.389   7.316  1.00  0.00     0.051 A 
HETATM   11  C   UNL     1      40.941 -10.889   6.403  1.00  0.00     0.121 A 
ENDROOT
BRANCH   1  12
HETATM   12  C   UNL     1      39.125 -12.099   5.263  1.00  0.00     0.045 C 
BRANCH  12  13
HETATM   13  C   UNL     1      39.483 -12.558   4.058  1.00  0.00     0.077 C 
HETATM   14  S   UNL     1      38.997 -11.959   2.522  1.00  0.00    -0.055 SA
HETATM   15  C   UNL     1      40.078 -13.040   1.657  1.00  0.00     0.148 C 
HETATM   16  N   UNL     1      40.800 -13.796   2.557  1.00  0.00    -0.298 N 
HETATM   17  S   UNL     1      40.160 -13.068  -0.009  1.00  0.00    -0.052 SA
HETATM   18  C   UNL     1      40.464 -13.660   3.892  1.00  0.00     0.266 C 
HETATM   19  O   UNL     1      40.904 -14.329   4.819  1.00  0.00    -0.266 OA
BRANCH  16  20
HETATM   20  C   UNL     1      41.921 -14.660   2.200  1.00  0.00     0.138 C 
BRANCH  20  21
HETATM   21  C   UNL     1      41.516 -16.097   1.869  1.00  0.00     0.059 C 
BRANCH  21  22
HETATM   22  C   UNL     1      42.347 -17.060   2.682  1.00  0.00    -0.057 A 
HETATM   23  C   UNL     1      42.825 -16.704   3.950  1.00  0.00     0.010 A 
HETATM   24  C   UNL     1      43.660 -17.570   4.666  1.00  0.00     0.037 A 
HETATM   25  C   UNL     1      44.033 -18.798   4.120  1.00  0.00     0.068 A 
HETATM   26  C   UNL     1      43.565 -19.153   2.854  1.00  0.00     0.037 A 
HETATM   27  C   UNL     1      42.724 -18.295   2.140  1.00  0.00     0.010 A 
BRANCH  25  28
HETATM   28  O   UNL     1      44.852 -19.724   4.705  1.00  0.00    -0.356 OA
HETATM   29  C   UNL     1      44.224 -20.858   5.290  1.00  0.00     0.210 C 
ENDBRANCH  25  28
ENDBRANCH  21  22
ENDBRANCH  20  21
ENDBRANCH  16  20
ENDBRANCH  12  13
ENDBRANCH   1  12
BRANCH  11  30
HETATM   30  N   UNL     1      41.741 -12.028   6.422  1.00  0.00    -0.274 NA
HETATM   31  H   UNL     1      41.269 -12.724   5.838  1.00  0.00     0.129 HD
BRANCH  30  32
HETATM   32  C   UNL     1      43.140 -11.963   5.957  1.00  0.00     0.130 C 
BRANCH  32  33
HETATM   33  C   UNL     1      44.133 -12.359   7.070  1.00  0.00     0.164 C 
BRANCH  33  34
HETATM   34  O   UNL     1      43.528 -13.305   7.962  1.00  0.00    -0.390 OA
HETATM   35  H   UNL     1      42.671 -13.552   7.571  1.00  0.00     0.210 HD
ENDBRANCH  33  34
BRANCH  33  36
HETATM   36  C   UNL     1      44.706 -11.176   7.829  1.00  0.00    -0.029 A 
HETATM   37  C   UNL     1      45.801 -10.473   7.306  1.00  0.00     0.010 A 
HETATM   38  C   UNL     1      46.346  -9.390   7.998  1.00  0.00     0.001 A 
HETATM   39  C   UNL     1      45.807  -8.999   9.221  1.00  0.00     0.000 A 
HETATM   40  C   UNL     1      44.706  -9.676   9.744  1.00  0.00     0.001 A 
HETATM   41  C   UNL     1      44.155 -10.753   9.048  1.00  0.00     0.010 A 
ENDBRANCH  33  36
ENDBRANCH  32  33
ENDBRANCH  30  32
ENDBRANCH  11  30
TORSDOF 11
ENDMDL
MODEL 4
REMARK VINA RESULT:      -9.0      4.764      8.694
REMARK  11 active torsions:
REMARK  status: ('A' for Active; 'I' for Inactive)
REMARK    1  A    between atoms: O_2  and  C_3 
REMARK    2  A    between atoms: C_6  and  C_7 
REMARK    3  A    between atoms: C_7  and  C_8 
REMARK    4  A    between atoms: C_8  and  N_9 
REMARK    5  A    between atoms: C_13  and  C_14 
REMARK    6  A    between atoms: C_14  and  C_15 
REMARK    7  A    between atoms: C_25  and  N_26 
REMARK    8  A    between atoms: N_26  and  C_27 
REMARK    9  A    between atoms: C_27  and  C_28 
REMARK   10  A    between atoms: C_28  and  O_29 
REMARK   11  A    between atoms: C_28  and  C_30 
ROOT
HETATM    1  C   UNL     1      43.147 -15.441   3.591  1.00  0.00     0.074 A 
HETATM    2  C   UNL     1      43.561 -16.524   4.526  1.00  0.00     0.266 A 
HETATM    3  O   UNL     1      43.833 -16.254   5.698  1.00  0.00    -0.267 OA
HETATM    4  N   UNL     1      43.603 -17.803   3.993  1.00  0.00    -0.273 N 
HETATM    5  C   UNL     1      43.214 -18.007   2.681  1.00  0.00     0.138 A 
HETATM    6  N   UNL     1      42.806 -17.072   1.884  1.00  0.00    -0.218 NA
HETATM    7  C   UNL     1      44.027 -18.864   4.787  1.00  0.00     0.102 A 
HETATM    8  C   UNL     1      44.078 -20.117   4.319  1.00  0.00     0.018 A 
HETATM    9  C   UNL     1      43.685 -20.394   2.964  1.00  0.00     0.005 A 
HETATM   10  C   UNL     1      43.267 -19.405   2.166  1.00  0.00     0.051 A 
HETATM   11  C   UNL     1      42.776 -15.781   2.335  1.00  0.00     0.121 A 
ENDROOT
BRANCH   1  12
HETATM   12  C   UNL     1      43.259 -14.055   4.023  1.00  0.00     0.045 C 
BRANCH  12  13
HETATM   13  C   UNL     1      42.227 -13.217   4.172  1.00  0.00     0.077 C 
HETATM   14  S   UNL     1      41.021 -13.247   5.396  1.00  0.00    -0.055 SA
HETATM   15  C   UNL     1      40.303 -11.740   4.853  1.00  0.00     0.148 C 
HETATM   16  N   UNL     1      41.018 -11.240   3.784  1.00  0.00    -0.298 N 
HETATM   17  S   UNL     1      38.959 -11.079   5.590  1.00  0.00    -0.052 SA
HETATM   18  C   UNL     1      42.032 -12.040   3.288  1.00  0.00     0.266 C 
HETATM   19  O   UNL     1      42.693 -11.826   2.280  1.00  0.00    -0.266 OA
BRANCH  16  20
HETATM   20  C   UNL     1      40.820  -9.917   3.202  1.00  0.00     0.138 C 
BRANCH  20  21
HETATM   21  C   UNL     1      39.662  -9.844   2.206  1.00  0.00     0.059 C 
BRANCH  21  22
HETATM   22  C   UNL     1      40.165  -9.333   0.877  1.00  0.00    -0.057 A 
HETATM   23  C   UNL     1      39.316  -8.640   0.005  1.00  0.00     0.010 A 
HETATM   24  C   UNL     1      39.766  -8.238  -1.259  1.00  0.00     0.037 A 
HETATM   25  C   UNL     1      41.067  -8.531  -1.668  1.00  0.00     0.068 A 
HETATM   26  C   UNL     1      41.913  -9.228  -0.804  1.00  0.00     0.037 A 
HETATM   27  C   UNL     1      41.471  -9.623   0.461  1.00  0.00     0.010 A 
BRANCH  25  28
HETATM   28  O   UNL     1      41.623  -8.211  -2.876  1.00  0.00    -0.356 OA
HETATM   29  C   UNL     1      40.996  -8.748  -4.033  1.00  0.00     0.210 C 
ENDBRANCH  25  28
ENDBRANCH  21  22
ENDBRANCH  20  21
ENDBRANCH  16  20
ENDBRANCH  12  13
ENDBRANCH   1  12
BRANCH  11  30
HETATM   30  N   UNL     1      42.390 -14.819   1.405  1.00  0.00    -0.274 NA
HETATM   31  H   UNL     1      43.080 -14.855   0.649  1.00  0.00     0.129 HD
BRANCH  30  32
HETATM   32  C   UNL     1      41.060 -14.890   0.769  1.00  0.00     0.130 C 
BRANCH  32  33
HETATM   33  C   UNL     1      40.240 -13.606   1.009  1.00  0.00     0.164 C 
BRANCH  33  34
HETATM   34  O   UNL     1      39.119 -13.884   1.859  1.00  0.00    -0.390 OA
HETATM   35  H   UNL     1      38.853 -14.804   1.683  1.00  0.00     0.210 HD
ENDBRANCH  33  34
BRANCH  33  36
HETATM   36  C   UNL     1      39.803 -12.911  -0.268  1.00  0.00    -0.029 A 
HETATM   37  C   UNL     1      40.697 -12.795  -1.342  1.00  0.00     0.010 A 
HETATM   38  C   UNL     1      40.315 -12.149  -2.518  1.00  0.00     0.001 A 
HETATM   39  C   UNL     1      39.036 -11.609  -2.635  1.00  0.00     0.000 A 
HETATM   40  C   UNL     1      38.130 -11.734  -1.584  1.00  0.00     0.001 A 
HETATM   41  C   UNL     1      38.509 -12.388  -0.410  1.00  0.00     0.010 A 
ENDBRANCH  33  36
ENDBRANCH  32  33
ENDBRANCH  30  32
ENDBRANCH  11  30
TORSDOF 11
ENDMDL
MODEL 5
REMARK VINA RESULT:      -9.0      3.624      8.696
REMARK  11 active torsions:
REMARK  status: ('A' for Active; 'I' for Inactive)
REMARK    1  A    between atoms: O_2  and  C_3 
REMARK    2  A    between atoms: C_6  and  C_7 
REMARK    3  A    between atoms: C_7  and  C_8 
REMARK    4  A    between atoms: C_8  and  N_9 
REMARK    5  A    between atoms: C_13  and  C_14 
REMARK    6  A    between atoms: C_14  and  C_15 
REMARK    7  A    between atoms: C_25  and  N_26 
REMARK    8  A    between atoms: N_26  and  C_27 
REMARK    9  A    between atoms: C_27  and  C_28 
REMARK   10  A    between atoms: C_28  and  O_29 
REMARK   11  A    between atoms: C_28  and  C_30 
ROOT
HETATM    1  C   UNL     1      41.198 -12.672   5.337  1.00  0.00     0.074 A 
HETATM    2  C   UNL     1      41.445 -11.499   6.221  1.00  0.00     0.266 A 
HETATM    3  O   UNL     1      40.502 -10.785   6.573  1.00  0.00    -0.267 OA
HETATM    4  N   UNL     1      42.761 -11.294   6.604  1.00  0.00    -0.273 N 
HETATM    5  C   UNL     1      43.733 -12.194   6.207  1.00  0.00     0.138 A 
HETATM    6  N   UNL     1      43.509 -13.241   5.480  1.00  0.00    -0.218 NA
HETATM    7  C   UNL     1      43.084 -10.193   7.390  1.00  0.00     0.102 A 
HETATM    8  C   UNL     1      44.339  -9.957   7.791  1.00  0.00     0.018 A 
HETATM    9  C   UNL     1      45.395 -10.857   7.413  1.00  0.00     0.005 A 
HETATM   10  C   UNL     1      45.128 -11.931   6.661  1.00  0.00     0.051 A 
HETATM   11  C   UNL     1      42.238 -13.483   5.036  1.00  0.00     0.121 A 
ENDROOT
BRANCH   1  12
HETATM   12  C   UNL     1      39.879 -12.842   4.743  1.00  0.00     0.045 C 
BRANCH  12  13
HETATM   13  C   UNL     1      39.476 -12.267   3.603  1.00  0.00     0.077 C 
HETATM   14  S   UNL     1      38.908 -10.661   3.385  1.00  0.00    -0.055 SA
HETATM   15  C   UNL     1      38.826 -10.831   1.638  1.00  0.00     0.148 C 
HETATM   16  N   UNL     1      39.265 -12.086   1.271  1.00  0.00    -0.298 N 
HETATM   17  S   UNL     1      38.292  -9.597   0.650  1.00  0.00    -0.052 SA
HETATM   18  C   UNL     1      39.550 -12.969   2.297  1.00  0.00     0.266 C 
HETATM   19  O   UNL     1      39.834 -14.153   2.172  1.00  0.00    -0.266 OA
BRANCH  16  20
HETATM   20  C   UNL     1      39.510 -12.507  -0.105  1.00  0.00     0.138 C 
BRANCH  20  21
HETATM   21  C   UNL     1      40.955 -12.308  -0.567  1.00  0.00     0.059 C 
BRANCH  21  22
HETATM   22  C   UNL     1      41.042 -11.089  -1.454  1.00  0.00    -0.057 A 
HETATM   23  C   UNL     1      40.539 -11.115  -2.761  1.00  0.00     0.010 A 
HETATM   24  C   UNL     1      40.693 -10.008  -3.606  1.00  0.00     0.037 A 
HETATM   25  C   UNL     1      41.358  -8.868  -3.156  1.00  0.00     0.068 A 
HETATM   26  C   UNL     1      41.866  -8.842  -1.856  1.00  0.00     0.037 A 
HETATM   27  C   UNL     1      41.707  -9.941  -1.008  1.00  0.00     0.010 A 
BRANCH  25  28
HETATM   28  O   UNL     1      41.589  -7.731  -3.881  1.00  0.00    -0.356 OA
HETATM   29  C   UNL     1      42.771  -7.004  -3.575  1.00  0.00     0.210 C 
ENDBRANCH  25  28
ENDBRANCH  21  22
ENDBRANCH  20  21
ENDBRANCH  16  20
ENDBRANCH  12  13
ENDBRANCH   1  12
BRANCH  11  30
HETATM   30  N   UNL     1      42.082 -14.589   4.205  1.00  0.00    -0.274 NA
HETATM   31  H   UNL     1      42.154 -14.242   3.245  1.00  0.00     0.129 HD
BRANCH  30  32
HETATM   32  C   UNL     1      43.004 -15.736   4.312  1.00  0.00     0.130 C 
BRANCH  32  33
HETATM   33  C   UNL     1      43.097 -16.523   2.989  1.00  0.00     0.164 C 
BRANCH  33  34
HETATM   34  O   UNL     1      41.912 -16.319   2.205  1.00  0.00    -0.390 OA
HETATM   35  H   UNL     1      41.809 -15.357   2.097  1.00  0.00     0.210 HD
ENDBRANCH  33  34
BRANCH  33  36
HETATM   36  C   UNL     1      43.384 -18.002   3.175  1.00  0.00    -0.029 A 
HETATM   37  C   UNL     1      43.118 -18.903   2.132  1.00  0.00     0.010 A 
HETATM   38  C   UNL     1      43.366 -20.267   2.292  1.00  0.00     0.001 A 
HETATM   39  C   UNL     1      43.878 -20.748   3.494  1.00  0.00     0.000 A 
HETATM   40  C   UNL     1      44.166 -19.863   4.532  1.00  0.00     0.001 A 
HETATM   41  C   UNL     1      43.927 -18.498   4.370  1.00  0.00     0.010 A 
ENDBRANCH  33  36
ENDBRANCH  32  33
ENDBRANCH  30  32
ENDBRANCH  11  30
TORSDOF 11
ENDMDL
MODEL 6
REMARK VINA RESULT:      -8.9      2.969      9.272
REMARK  11 active torsions:
REMARK  status: ('A' for Active; 'I' for Inactive)
REMARK    1  A    between atoms: O_2  and  C_3 
REMARK    2  A    between atoms: C_6  and  C_7 
REMARK    3  A    between atoms: C_7  and  C_8 
REMARK    4  A    between atoms: C_8  and  N_9 
REMARK    5  A    between atoms: C_13  and  C_14 
REMARK    6  A    between atoms: C_14  and  C_15 
REMARK    7  A    between atoms: C_25  and  N_26 
REMARK    8  A    between atoms: N_26  and  C_27 
REMARK    9  A    between atoms: C_27  and  C_28 
REMARK   10  A    between atoms: C_28  and  O_29 
REMARK   11  A    between atoms: C_28  and  C_30 
ROOT
HETATM    1  C   UNL     1      41.239 -14.828   3.853  1.00  0.00     0.074 A 
HETATM    2  C   UNL     1      41.513 -16.005   2.981  1.00  0.00     0.266 A 
HETATM    3  O   UNL     1      40.855 -16.174   1.952  1.00  0.00    -0.267 OA
HETATM    4  N   UNL     1      42.531 -16.847   3.401  1.00  0.00    -0.273 N 
HETATM    5  C   UNL     1      43.253 -16.529   4.537  1.00  0.00     0.138 A 
HETATM    6  N   UNL     1      43.046 -15.480   5.267  1.00  0.00    -0.218 NA
HETATM    7  C   UNL     1      42.819 -17.994   2.668  1.00  0.00     0.102 A 
HETATM    8  C   UNL     1      43.796 -18.834   3.029  1.00  0.00     0.018 A 
HETATM    9  C   UNL     1      44.584 -18.558   4.201  1.00  0.00     0.005 A 
HETATM   10  C   UNL     1      44.344 -17.464   4.933  1.00  0.00     0.051 A 
HETATM   11  C   UNL     1      42.032 -14.626   4.930  1.00  0.00     0.121 A 
ENDROOT
BRANCH   1  12
HETATM   12  C   UNL     1      40.068 -14.007   3.581  1.00  0.00     0.045 C 
BRANCH  12  13
HETATM   13  C   UNL     1      40.109 -12.734   3.171  1.00  0.00     0.077 C 
HETATM   14  S   UNL     1      39.499 -11.350   3.988  1.00  0.00    -0.055 SA
HETATM   15  C   UNL     1      40.167 -10.242   2.800  1.00  0.00     0.148 C 
HETATM   16  N   UNL     1      40.862 -10.949   1.841  1.00  0.00    -0.298 N 
HETATM   17  S   UNL     1      39.951  -8.591   2.905  1.00  0.00    -0.052 SA
HETATM   18  C   UNL     1      40.798 -12.329   1.919  1.00  0.00     0.266 C 
HETATM   19  O   UNL     1      41.245 -13.120   1.098  1.00  0.00    -0.266 OA
BRANCH  16  20
HETATM   20  C   UNL     1      41.701 -10.343   0.813  1.00  0.00     0.138 C 
BRANCH  20  21
HETATM   21  C   UNL     1      40.920  -9.794  -0.382  1.00  0.00     0.059 C 
BRANCH  21  22
HETATM   22  C   UNL     1      40.425 -10.937  -1.236  1.00  0.00    -0.057 A 
HETATM   23  C   UNL     1      41.302 -11.645  -2.067  1.00  0.00     0.010 A 
HETATM   24  C   UNL     1      40.825 -12.652  -2.915  1.00  0.00     0.037 A 
HETATM   25  C   UNL     1      39.464 -12.957  -2.946  1.00  0.00     0.068 A 
HETATM   26  C   UNL     1      38.587 -12.249  -2.125  1.00  0.00     0.037 A 
HETATM   27  C   UNL     1      39.061 -11.249  -1.271  1.00  0.00     0.010 A 
BRANCH  25  28
HETATM   28  O   UNL     1      38.869 -13.902  -3.736  1.00  0.00    -0.356 OA
HETATM   29  C   UNL     1      38.486 -15.117  -3.105  1.00  0.00     0.210 C 
ENDBRANCH  25  28
ENDBRANCH  21  22
ENDBRANCH  20  21
ENDBRANCH  16  20
ENDBRANCH  12  13
ENDBRANCH   1  12
BRANCH  11  30
HETATM   30  N   UNL     1      41.824 -13.555   5.795  1.00  0.00    -0.274 NA
HETATM   31  H   UNL     1      41.823 -13.944   6.742  1.00  0.00     0.129 HD
BRANCH  30  32
HETATM   32  C   UNL     1      42.761 -12.415   5.807  1.00  0.00     0.130 C 
BRANCH  32  33
HETATM   33  C   UNL     1      43.882 -12.604   6.851  1.00  0.00     0.164 C 
BRANCH  33  34
HETATM   34  O   UNL     1      43.438 -13.473   7.903  1.00  0.00    -0.390 OA
HETATM   35  H   UNL     1      43.751 -14.367   7.680  1.00  0.00     0.210 HD
ENDBRANCH  33  34
BRANCH  33  36
HETATM   36  C   UNL     1      44.426 -11.301   7.408  1.00  0.00    -0.029 A 
HETATM   37  C   UNL     1      43.560 -10.392   8.035  1.00  0.00     0.010 A 
HETATM   38  C   UNL     1      44.043  -9.185   8.541  1.00  0.00     0.001 A 
HETATM   39  C   UNL     1      45.395  -8.869   8.425  1.00  0.00     0.000 A 
HETATM   40  C   UNL     1      46.271  -9.770   7.822  1.00  0.00     0.001 A 
HETATM   41  C   UNL     1      45.790 -10.982   7.323  1.00  0.00     0.010 A 
ENDBRANCH  33  36
ENDBRANCH  32  33
ENDBRANCH  30  32
ENDBRANCH  11  30
TORSDOF 11
ENDMDL
MODEL 7
REMARK VINA RESULT:      -8.9      2.490      9.757
REMARK  11 active torsions:
REMARK  status: ('A' for Active; 'I' for Inactive)
REMARK    1  A    between atoms: O_2  and  C_3 
REMARK    2  A    between atoms: C_6  and  C_7 
REMARK    3  A    between atoms: C_7  and  C_8 
REMARK    4  A    between atoms: C_8  and  N_9 
REMARK    5  A    between atoms: C_13  and  C_14 
REMARK    6  A    between atoms: C_14  and  C_15 
REMARK    7  A    between atoms: C_25  and  N_26 
REMARK    8  A    between atoms: N_26  and  C_27 
REMARK    9  A    between atoms: C_27  and  C_28 
REMARK   10  A    between atoms: C_28  and  O_29 
REMARK   11  A    between atoms: C_28  and  C_30 
ROOT
HETATM    1  C   UNL     1      41.846 -11.271   6.325  1.00  0.00     0.074 A 
HETATM    2  C   UNL     1      43.279 -11.673   6.267  1.00  0.00     0.266 A 
HETATM    3  O   UNL     1      43.615 -12.661   5.608  1.00  0.00    -0.267 OA
HETATM    4  N   UNL     1      44.163 -10.874   6.975  1.00  0.00    -0.273 N 
HETATM    5  C   UNL     1      43.691  -9.749   7.628  1.00  0.00     0.138 A 
HETATM    6  N   UNL     1      42.452  -9.374   7.636  1.00  0.00    -0.218 NA
HETATM    7  C   UNL     1      45.513 -11.208   7.012  1.00  0.00     0.102 A 
HETATM    8  C   UNL     1      46.405 -10.464   7.676  1.00  0.00     0.018 A 
HETATM    9  C   UNL     1      45.976  -9.282   8.374  1.00  0.00     0.005 A 
HETATM   10  C   UNL     1      44.688  -8.920   8.362  1.00  0.00     0.051 A 
HETATM   11  C   UNL     1      41.521 -10.138   6.988  1.00  0.00     0.121 A 
ENDROOT
BRANCH   1  12
HETATM   12  C   UNL     1      40.840 -12.163   5.765  1.00  0.00     0.045 C 
BRANCH  12  13
HETATM   13  C   UNL     1      40.744 -12.486   4.470  1.00  0.00     0.077 C 
HETATM   14  S   UNL     1      40.707 -11.418   3.124  1.00  0.00    -0.055 SA
HETATM   15  C   UNL     1      40.753 -12.736   1.963  1.00  0.00     0.148 C 
HETATM   16  N   UNL     1      40.830 -13.942   2.628  1.00  0.00    -0.298 N 
HETATM   17  S   UNL     1      40.714 -12.470   0.316  1.00  0.00    -0.052 SA
HETATM   18  C   UNL     1      40.734 -13.897   4.008  1.00  0.00     0.266 C 
HETATM   19  O   UNL     1      40.662 -14.862   4.758  1.00  0.00    -0.266 OA
BRANCH  16  20
HETATM   20  C   UNL     1      41.074 -15.228   1.984  1.00  0.00     0.138 C 
BRANCH  20  21
HETATM   21  C   UNL     1      42.553 -15.523   1.726  1.00  0.00     0.059 C 
BRANCH  21  22
HETATM   22  C   UNL     1      43.015 -16.635   2.638  1.00  0.00    -0.057 A 
HETATM   23  C   UNL     1      43.527 -16.354   3.911  1.00  0.00     0.010 A 
HETATM   24  C   UNL     1      44.028 -17.381   4.721  1.00  0.00     0.037 A 
HETATM   25  C   UNL     1      44.029 -18.699   4.264  1.00  0.00     0.068 A 
HETATM   26  C   UNL     1      43.526 -18.980   2.993  1.00  0.00     0.037 A 
HETATM   27  C   UNL     1      43.018 -17.960   2.186  1.00  0.00     0.010 A 
BRANCH  25  28
HETATM   28  O   UNL     1      44.500 -19.787   4.945  1.00  0.00    -0.356 OA
HETATM   29  C   UNL     1      43.996 -21.057   4.554  1.00  0.00     0.210 C 
ENDBRANCH  25  28
ENDBRANCH  21  22
ENDBRANCH  20  21
ENDBRANCH  16  20
ENDBRANCH  12  13
ENDBRANCH   1  12
BRANCH  11  30
HETATM   30  N   UNL     1      40.200  -9.710   7.093  1.00  0.00    -0.274 NA
HETATM   31  H   UNL     1      39.682 -10.182   6.347  1.00  0.00     0.129 HD
BRANCH  30  32
HETATM   32  C   UNL     1      39.444  -9.932   8.340  1.00  0.00     0.130 C 
BRANCH  32  33
HETATM   33  C   UNL     1      39.517  -8.710   9.281  1.00  0.00     0.164 C 
BRANCH  33  34
HETATM   34  O   UNL     1      40.103  -7.593   8.598  1.00  0.00    -0.390 OA
HETATM   35  H   UNL     1      39.692  -7.555   7.717  1.00  0.00     0.210 HD
ENDBRANCH  33  34
BRANCH  33  36
HETATM   36  C   UNL     1      40.230  -8.989  10.592  1.00  0.00    -0.029 A 
HETATM   37  C   UNL     1      39.704  -9.932  11.488  1.00  0.00     0.010 A 
HETATM   38  C   UNL     1      40.341 -10.191  12.702  1.00  0.00     0.001 A 
HETATM   39  C   UNL     1      41.508  -9.509  13.038  1.00  0.00     0.000 A 
HETATM   40  C   UNL     1      42.054  -8.584  12.149  1.00  0.00     0.001 A 
HETATM   41  C   UNL     1      41.423  -8.331  10.931  1.00  0.00     0.010 A 
ENDBRANCH  33  36
ENDBRANCH  32  33
ENDBRANCH  30  32
ENDBRANCH  11  30
TORSDOF 11
ENDMDL
MODEL 8
REMARK VINA RESULT:      -8.9      2.429      5.632
REMARK  11 active torsions:
REMARK  status: ('A' for Active; 'I' for Inactive)
REMARK    1  A    between atoms: O_2  and  C_3 
REMARK    2  A    between atoms: C_6  and  C_7 
REMARK    3  A    between atoms: C_7  and  C_8 
REMARK    4  A    between atoms: C_8  and  N_9 
REMARK    5  A    between atoms: C_13  and  C_14 
REMARK    6  A    between atoms: C_14  and  C_15 
REMARK    7  A    between atoms: C_25  and  N_26 
REMARK    8  A    between atoms: N_26  and  C_27 
REMARK    9  A    between atoms: C_27  and  C_28 
REMARK   10  A    between atoms: C_28  and  O_29 
REMARK   11  A    between atoms: C_28  and  C_30 
ROOT
HETATM    1  C   UNL     1      41.425 -14.417   4.668  1.00  0.00     0.074 A 
HETATM    2  C   UNL     1      41.254 -15.358   3.525  1.00  0.00     0.266 A 
HETATM    3  O   UNL     1      40.338 -15.183   2.717  1.00  0.00    -0.267 OA
HETATM    4  N   UNL     1      42.174 -16.391   3.445  1.00  0.00    -0.273 N 
HETATM    5  C   UNL     1      43.205 -16.457   4.366  1.00  0.00     0.138 A 
HETATM    6  N   UNL     1      43.381 -15.610   5.329  1.00  0.00    -0.218 NA
HETATM    7  C   UNL     1      42.056 -17.340   2.435  1.00  0.00     0.102 A 
HETATM    8  C   UNL     1      42.924 -18.351   2.313  1.00  0.00     0.018 A 
HETATM    9  C   UNL     1      44.018 -18.474   3.239  1.00  0.00     0.005 A 
HETATM   10  C   UNL     1      44.172 -17.581   4.224  1.00  0.00     0.051 A 
HETATM   11  C   UNL     1      42.487 -14.587   5.488  1.00  0.00     0.121 A 
ENDROOT
BRANCH   1  12
HETATM   12  C   UNL     1      40.392 -13.424   4.924  1.00  0.00     0.045 C 
BRANCH  12  13
HETATM   13  C   UNL     1      40.501 -12.120   4.643  1.00  0.00     0.077 C 
HETATM   14  S   UNL     1      40.402 -11.370   3.100  1.00  0.00    -0.055 SA
HETATM   15  C   UNL     1      40.477  -9.752   3.781  1.00  0.00     0.148 C 
HETATM   16  N   UNL     1      40.539  -9.828   5.157  1.00  0.00    -0.298 N 
HETATM   17  S   UNL     1      40.459  -8.385   2.826  1.00  0.00    -0.052 SA
HETATM   18  C   UNL     1      40.653 -11.094   5.705  1.00  0.00     0.266 C 
HETATM   19  O   UNL     1      40.840 -11.355   6.886  1.00  0.00    -0.266 OA
BRANCH  16  20
HETATM   20  C   UNL     1      40.423  -8.684   6.055  1.00  0.00     0.138 C 
BRANCH  20  21
HETATM   21  C   UNL     1      41.751  -7.977   6.334  1.00  0.00     0.059 C 
BRANCH  21  22
HETATM   22  C   UNL     1      41.941  -7.823   7.825  1.00  0.00    -0.057 A 
HETATM   23  C   UNL     1      41.096  -8.479   8.729  1.00  0.00     0.010 A 
HETATM   24  C   UNL     1      41.227  -8.271  10.107  1.00  0.00     0.037 A 
HETATM   25  C   UNL     1      42.200  -7.400  10.597  1.00  0.00     0.068 A 
HETATM   26  C   UNL     1      43.039  -6.740   9.698  1.00  0.00     0.037 A 
HETATM   27  C   UNL     1      42.917  -6.951   8.323  1.00  0.00     0.010 A 
BRANCH  25  28
HETATM   28  O   UNL     1      42.422  -7.097  11.912  1.00  0.00    -0.356 OA
HETATM   29  C   UNL     1      43.053  -8.097  12.702  1.00  0.00     0.210 C 
ENDBRANCH  25  28
ENDBRANCH  21  22
ENDBRANCH  20  21
ENDBRANCH  16  20
ENDBRANCH  12  13
ENDBRANCH   1  12
BRANCH  11  30
HETATM   30  N   UNL     1      42.701 -13.755   6.583  1.00  0.00    -0.274 NA
HETATM   31  H   UNL     1      42.515 -14.319   7.416  1.00  0.00     0.129 HD
BRANCH  30  32
HETATM   32  C   UNL     1      44.016 -13.118   6.787  1.00  0.00     0.130 C 
BRANCH  32  33
HETATM   33  C   UNL     1      43.957 -11.593   6.563  1.00  0.00     0.164 C 
BRANCH  33  34
HETATM   34  O   UNL     1      44.574 -11.250   5.314  1.00  0.00    -0.390 OA
HETATM   35  H   UNL     1      44.845 -10.318   5.380  1.00  0.00     0.210 HD
ENDBRANCH  33  34
BRANCH  33  36
HETATM   36  C   UNL     1      44.542 -10.782   7.705  1.00  0.00    -0.029 A 
HETATM   37  C   UNL     1      43.993 -10.890   8.992  1.00  0.00     0.010 A 
HETATM   38  C   UNL     1      44.512 -10.143  10.050  1.00  0.00     0.001 A 
HETATM   39  C   UNL     1      45.582  -9.278   9.837  1.00  0.00     0.000 A 
HETATM   40  C   UNL     1      46.151  -9.175   8.568  1.00  0.00     0.001 A 
HETATM   41  C   UNL     1      45.638  -9.928   7.511  1.00  0.00     0.010 A 
ENDBRANCH  33  36
ENDBRANCH  32  33
ENDBRANCH  30  32
ENDBRANCH  11  30
TORSDOF 11
ENDMDL
MODEL 9
REMARK VINA RESULT:      -8.8      2.636      9.376
REMARK  11 active torsions:
REMARK  status: ('A' for Active; 'I' for Inactive)
REMARK    1  A    between atoms: O_2  and  C_3 
REMARK    2  A    between atoms: C_6  and  C_7 
REMARK    3  A    between atoms: C_7  and  C_8 
REMARK    4  A    between atoms: C_8  and  N_9 
REMARK    5  A    between atoms: C_13  and  C_14 
REMARK    6  A    between atoms: C_14  and  C_15 
REMARK    7  A    between atoms: C_25  and  N_26 
REMARK    8  A    between atoms: N_26  and  C_27 
REMARK    9  A    between atoms: C_27  and  C_28 
REMARK   10  A    between atoms: C_28  and  O_29 
REMARK   11  A    between atoms: C_28  and  C_30 
ROOT
HETATM    1  C   UNL     1      43.323 -10.636   6.271  1.00  0.00     0.074 A 
HETATM    2  C   UNL     1      44.437 -10.833   7.239  1.00  0.00     0.266 A 
HETATM    3  O   UNL     1      45.425 -11.497   6.914  1.00  0.00    -0.267 OA
HETATM    4  N   UNL     1      44.281 -10.226   8.476  1.00  0.00    -0.273 N 
HETATM    5  C   UNL     1      43.164  -9.447   8.715  1.00  0.00     0.138 A 
HETATM    6  N   UNL     1      42.220  -9.236   7.855  1.00  0.00    -0.218 NA
HETATM    7  C   UNL     1      45.255 -10.401   9.454  1.00  0.00     0.102 A 
HETATM    8  C   UNL     1      45.152  -9.830  10.660  1.00  0.00     0.018 A 
HETATM    9  C   UNL     1      44.014  -9.006  10.970  1.00  0.00     0.005 A 
HETATM   10  C   UNL     1      43.056  -8.808  10.057  1.00  0.00     0.051 A 
HETATM   11  C   UNL     1      42.293  -9.835   6.628  1.00  0.00     0.121 A 
ENDROOT
BRANCH   1  12
HETATM   12  C   UNL     1      43.327 -11.393   5.027  1.00  0.00     0.045 C 
BRANCH  12  13
HETATM   13  C   UNL     1      42.817 -12.622   4.880  1.00  0.00     0.077 C 
HETATM   14  S   UNL     1      41.932 -13.533   6.037  1.00  0.00    -0.055 SA
HETATM   15  C   UNL     1      41.584 -14.819   4.892  1.00  0.00     0.148 C 
HETATM   16  N   UNL     1      42.118 -14.503   3.660  1.00  0.00    -0.298 N 
HETATM   17  S   UNL     1      40.719 -16.180   5.321  1.00  0.00    -0.052 SA
HETATM   18  C   UNL     1      42.892 -13.358   3.594  1.00  0.00     0.266 C 
HETATM   19  O   UNL     1      43.542 -12.982   2.627  1.00  0.00    -0.266 OA
BRANCH  16  20
HETATM   20  C   UNL     1      41.862 -15.249   2.432  1.00  0.00     0.138 C 
BRANCH  20  21
HETATM   21  C   UNL     1      43.105 -15.921   1.844  1.00  0.00     0.059 C 
BRANCH  21  22
HETATM   22  C   UNL     1      43.325 -17.257   2.514  1.00  0.00    -0.057 A 
HETATM   23  C   UNL     1      43.954 -17.339   3.763  1.00  0.00     0.010 A 
HETATM   24  C   UNL     1      44.226 -18.584   4.344  1.00  0.00     0.037 A 
HETATM   25  C   UNL     1      43.881 -19.760   3.678  1.00  0.00     0.068 A 
HETATM   26  C   UNL     1      43.261 -19.681   2.430  1.00  0.00     0.037 A 
HETATM   27  C   UNL     1      42.980 -18.441   1.852  1.00  0.00     0.010 A 
BRANCH  25  28
HETATM   28  O   UNL     1      44.104 -21.034   4.125  1.00  0.00    -0.356 OA
HETATM   29  C   UNL     1      44.236 -21.207   5.529  1.00  0.00     0.210 C 
ENDBRANCH  25  28
ENDBRANCH  21  22
ENDBRANCH  20  21
ENDBRANCH  16  20
ENDBRANCH  12  13
ENDBRANCH   1  12
BRANCH  11  30
HETATM   30  N   UNL     1      41.212  -9.618   5.778  1.00  0.00    -0.274 NA
HETATM   31  H   UNL     1      41.453 -10.055   4.885  1.00  0.00     0.129 HD
BRANCH  30  32
HETATM   32  C   UNL     1      39.869 -10.108   6.141  1.00  0.00     0.130 C 
BRANCH  32  33
HETATM   33  C   UNL     1      38.807  -9.702   5.097  1.00  0.00     0.164 C 
BRANCH  33  34
HETATM   34  O   UNL     1      37.498  -9.732   5.683  1.00  0.00    -0.390 OA
HETATM   35  H   UNL     1      36.882 -10.007   4.982  1.00  0.00     0.210 HD
ENDBRANCH  33  34
BRANCH  33  36
HETATM   36  C   UNL     1      38.857 -10.524   3.822  1.00  0.00    -0.029 A 
HETATM   37  C   UNL     1      38.565  -9.920   2.589  1.00  0.00     0.010 A 
HETATM   38  C   UNL     1      38.595 -10.664   1.409  1.00  0.00     0.001 A 
HETATM   39  C   UNL     1      38.914 -12.020   1.446  1.00  0.00     0.000 A 
HETATM   40  C   UNL     1      39.227 -12.629   2.660  1.00  0.00     0.001 A 
HETATM   41  C   UNL     1      39.205 -11.883   3.840  1.00  0.00     0.010 A 
ENDBRANCH  33  36
ENDBRANCH  32  33
ENDBRANCH  30  32
ENDBRANCH  11  30
TORSDOF 11
ENDMDL
MODEL 10
REMARK VINA RESULT:      -8.8      1.989      2.634
REMARK  11 active torsions:
REMARK  status: ('A' for Active; 'I' for Inactive)
REMARK    1  A    between atoms: O_2  and  C_3 
REMARK    2  A    between atoms: C_6  and  C_7 
REMARK    3  A    between atoms: C_7  and  C_8 
REMARK    4  A    between atoms: C_8  and  N_9 
REMARK    5  A    between atoms: C_13  and  C_14 
REMARK    6  A    between atoms: C_14  and  C_15 
REMARK    7  A    between atoms: C_25  and  N_26 
REMARK    8  A    between atoms: N_26  and  C_27 
REMARK    9  A    between atoms: C_27  and  C_28 
REMARK   10  A    between atoms: C_28  and  O_29 
REMARK   11  A    between atoms: C_28  and  C_30 
ROOT
HETATM    1  C   UNL     1      40.641 -13.511   3.782  1.00  0.00     0.074 A 
HETATM    2  C   UNL     1      39.989 -12.540   2.860  1.00  0.00     0.266 A 
HETATM    3  O   UNL     1      39.681 -11.416   3.267  1.00  0.00    -0.267 OA
HETATM    4  N   UNL     1      39.776 -12.982   1.563  1.00  0.00    -0.273 N 
HETATM    5  C   UNL     1      40.220 -14.239   1.191  1.00  0.00     0.138 A 
HETATM    6  N   UNL     1      40.831 -15.063   1.981  1.00  0.00    -0.218 NA
HETATM    7  C   UNL     1      39.128 -12.154   0.653  1.00  0.00     0.102 A 
HETATM    8  C   UNL     1      38.906 -12.534  -0.612  1.00  0.00     0.018 A 
HETATM    9  C   UNL     1      39.345 -13.828  -1.060  1.00  0.00     0.005 A 
HETATM   10  C   UNL     1      39.976 -14.656  -0.218  1.00  0.00     0.051 A 
HETATM   11  C   UNL     1      41.041 -14.704   3.284  1.00  0.00     0.121 A 
ENDROOT
BRANCH   1  12
HETATM   12  C   UNL     1      40.727 -13.189   5.199  1.00  0.00     0.045 C 
BRANCH  12  13
HETATM   13  C   UNL     1      41.726 -12.504   5.766  1.00  0.00     0.077 C 
HETATM   14  S   UNL     1      43.390 -12.931   5.821  1.00  0.00    -0.055 SA
HETATM   15  C   UNL     1      43.850 -11.405   6.562  1.00  0.00     0.148 C 
HETATM   16  N   UNL     1      42.736 -10.606   6.713  1.00  0.00    -0.298 N 
HETATM   17  S   UNL     1      45.429 -11.060   6.977  1.00  0.00    -0.052 SA
HETATM   18  C   UNL     1      41.516 -11.172   6.389  1.00  0.00     0.266 C 
HETATM   19  O   UNL     1      40.416 -10.667   6.568  1.00  0.00    -0.266 OA
BRANCH  16  20
HETATM   20  C   UNL     1      42.773  -9.204   7.118  1.00  0.00     0.138 C 
BRANCH  20  21
HETATM   21  C   UNL     1      43.574  -8.948   8.396  1.00  0.00     0.059 C 
BRANCH  21  22
HETATM   22  C   UNL     1      42.732  -9.295   9.601  1.00  0.00    -0.057 A 
HETATM   23  C   UNL     1      41.359  -9.021   9.622  1.00  0.00     0.010 A 
HETATM   24  C   UNL     1      40.599  -9.272  10.771  1.00  0.00     0.037 A 
HETATM   25  C   UNL     1      41.205  -9.793  11.914  1.00  0.00     0.068 A 
HETATM   26  C   UNL     1      42.574 -10.061  11.899  1.00  0.00     0.037 A 
HETATM   27  C   UNL     1      43.334  -9.820  10.752  1.00  0.00     0.010 A 
BRANCH  25  28
HETATM   28  O   UNL     1      40.583 -10.068  13.101  1.00  0.00    -0.356 OA
HETATM   29  C   UNL     1      39.425 -10.891  13.043  1.00  0.00     0.210 C 
ENDBRANCH  25  28
ENDBRANCH  21  22
ENDBRANCH  20  21
ENDBRANCH  16  20
ENDBRANCH  12  13
ENDBRANCH   1  12
BRANCH  11  30
HETATM   30  N   UNL     1      41.645 -15.663   4.091  1.00  0.00    -0.274 NA
HETATM   31  H   UNL     1      41.134 -16.537   3.934  1.00  0.00     0.129 HD
BRANCH  30  32
HETATM   32  C   UNL     1      43.078 -15.975   3.932  1.00  0.00     0.130 C 
BRANCH  32  33
HETATM   33  C   UNL     1      43.553 -17.031   4.952  1.00  0.00     0.164 C 
BRANCH  33  34
HETATM   34  O   UNL     1      44.772 -16.604   5.576  1.00  0.00    -0.390 OA
HETATM   35  H   UNL     1      45.175 -15.945   4.984  1.00  0.00     0.210 HD
ENDBRANCH  33  34
BRANCH  33  36
HETATM   36  C   UNL     1      43.692 -18.426   4.370  1.00  0.00    -0.029 A 
HETATM   37  C   UNL     1      43.539 -18.627   2.990  1.00  0.00     0.010 A 
HETATM   38  C   UNL     1      43.652 -19.905   2.441  1.00  0.00     0.001 A 
HETATM   39  C   UNL     1      43.916 -20.997   3.264  1.00  0.00     0.000 A 
HETATM   40  C   UNL     1      44.090 -20.811   4.634  1.00  0.00     0.001 A 
HETATM   41  C   UNL     1      43.986 -19.532   5.183  1.00  0.00     0.010 A 
ENDBRANCH  33  36
ENDBRANCH  32  33
ENDBRANCH  30  32
ENDBRANCH  11  30
TORSDOF 11
ENDMDL
