MODEL 1
REMARK VINA RESULT:      -9.0      0.000      0.000
REMARK  7 active torsions:
REMARK  status: ('A' for Active; 'I' for Inactive)
REMARK    1  A    between atoms: C_2  and  O_3 
REMARK    2  A    between atoms: O_3  and  C_4 
REMARK    3  A    between atoms: C_7  and  C_8 
REMARK       I    between atoms: C_8  and  N_9 
REMARK    4  A    between atoms: N_9  and  N_10 
REMARK       I    between atoms: N_10  and  C_11 
REMARK    5  A    between atoms: C_11  and  C_12 
REMARK    6  A    between atoms: C_14  and  C_15 
REMARK    7  A    between atoms: C_22  and  C_23 
ROOT
HETATM    1  N   UNL     1      43.743 -13.322   6.424  1.00  0.00    -0.262 N 
HETATM    2  C   UNL     1      42.642 -13.713   5.688  1.00  0.00     0.291 C 
HETATM    3  O   UNL     1      41.549 -13.160   5.815  1.00  0.00    -0.264 OA
HETATM    4  H   UNL     1      44.628 -13.827   6.379  1.00  0.00     0.190 HD
ENDROOT
BRANCH   2   5
HETATM    5  C   UNL     1      42.896 -14.829   4.791  1.00  0.00     0.159 A 
HETATM    6  N   UNL     1      43.159 -16.120   5.241  1.00  0.00    -0.216 NA
HETATM    7  C   UNL     1      43.297 -16.827   4.134  1.00  0.00     0.180 A 
HETATM    8  O   UNL     1      43.155 -16.096   2.987  1.00  0.00    -0.293 OA
HETATM    9  C   UNL     1      42.898 -14.821   3.408  1.00  0.00     0.094 A 
BRANCH   7  10
HETATM   10  C   UNL     1      43.560 -18.254   3.966  1.00  0.00     0.017 A 
HETATM   11  C   UNL     1      43.409 -18.849   2.705  1.00  0.00     0.016 A 
HETATM   12  C   UNL     1      43.665 -20.211   2.521  1.00  0.00     0.001 A 
HETATM   13  C   UNL     1      44.075 -20.996   3.597  1.00  0.00     0.000 A 
HETATM   14  C   UNL     1      44.228 -20.422   4.857  1.00  0.00     0.001 A 
HETATM   15  C   UNL     1      43.972 -19.060   5.041  1.00  0.00     0.016 A 
ENDBRANCH   7  10
BRANCH   9  16
HETATM   16  C   UNL     1      42.661 -13.652   2.468  1.00  0.00     0.046 A 
HETATM   17  C   UNL     1      41.860 -13.910   1.209  1.00  0.00     0.012 A 
HETATM   18  C   UNL     1      41.242 -13.141   2.324  1.00  0.00     0.012 A 
ENDBRANCH   9  16
ENDBRANCH   2   5
BRANCH   1  19
HETATM   19  N   UNL     1      43.556 -12.379   7.437  1.00  0.00    -0.263 N 
HETATM   20  C   UNL     1      44.476 -11.369   7.610  1.00  0.00     0.270 C 
HETATM   21  O   UNL     1      45.461 -11.216   6.895  1.00  0.00    -0.266 OA
HETATM   22  H   UNL     1      42.665 -12.421   7.928  1.00  0.00     0.190 HD
BRANCH  20  23
HETATM   23  C   UNL     1      44.192 -10.437   8.736  1.00  0.00     0.033 A 
HETATM   24  C   UNL     1      45.115 -10.239   9.772  1.00  0.00     0.020 A 
HETATM   25  C   UNL     1      44.827  -9.353  10.816  1.00  0.00     0.038 A 
HETATM   26  C   UNL     1      43.621  -8.651  10.829  1.00  0.00     0.068 A 
HETATM   27  C   UNL     1      42.705  -8.845   9.791  1.00  0.00     0.038 A 
HETATM   28  C   UNL     1      42.988  -9.726   8.742  1.00  0.00     0.020 A 
BRANCH  26  29
HETATM   29  O   UNL     1      43.226  -7.757  11.785  1.00  0.00    -0.352 OA
BRANCH  29  30
HETATM   30  C   UNL     1      42.947  -8.279  13.085  1.00  0.00     0.171 C 
HETATM   31  C   UNL     1      43.213  -7.184  14.102  1.00  0.00     0.034 C 
ENDBRANCH  29  30
ENDBRANCH  26  29
ENDBRANCH  20  23
ENDBRANCH   1  19
TORSDOF 7
ENDMDL
MODEL 2
REMARK VINA RESULT:      -8.2      1.394      1.734
REMARK  7 active torsions:
REMARK  status: ('A' for Active; 'I' for Inactive)
REMARK    1  A    between atoms: C_2  and  O_3 
REMARK    2  A    between atoms: O_3  and  C_4 
REMARK    3  A    between atoms: C_7  and  C_8 
REMARK       I    between atoms: C_8  and  N_9 
REMARK    4  A    between atoms: N_9  and  N_10 
REMARK       I    between atoms: N_10  and  C_11 
REMARK    5  A    between atoms: C_11  and  C_12 
REMARK    6  A    between atoms: C_14  and  C_15 
REMARK    7  A    between atoms: C_22  and  C_23 
ROOT
HETATM    1  N   UNL     1      42.904 -13.532   5.930  1.00  0.00    -0.262 N 
HETATM    2  C   UNL     1      42.885 -13.434   4.553  1.00  0.00     0.291 C 
HETATM    3  O   UNL     1      42.912 -12.343   3.981  1.00  0.00    -0.264 OA
HETATM    4  H   UNL     1      42.803 -14.427   6.407  1.00  0.00     0.190 HD
ENDROOT
BRANCH   2   5
HETATM    5  C   UNL     1      42.808 -14.715   3.869  1.00  0.00     0.159 A 
HETATM    6  N   UNL     1      43.400 -15.874   4.362  1.00  0.00    -0.216 NA
HETATM    7  C   UNL     1      43.076 -16.803   3.481  1.00  0.00     0.180 A 
HETATM    8  O   UNL     1      42.322 -16.341   2.438  1.00  0.00    -0.293 OA
HETATM    9  C   UNL     1      42.151 -15.007   2.688  1.00  0.00     0.094 A 
BRANCH   7  10
HETATM   10  C   UNL     1      43.389 -18.230   3.472  1.00  0.00     0.017 A 
HETATM   11  C   UNL     1      43.191 -18.982   2.305  1.00  0.00     0.016 A 
HETATM   12  C   UNL     1      43.494 -20.347   2.273  1.00  0.00     0.001 A 
HETATM   13  C   UNL     1      43.998 -20.977   3.409  1.00  0.00     0.000 A 
HETATM   14  C   UNL     1      44.200 -20.246   4.577  1.00  0.00     0.001 A 
HETATM   15  C   UNL     1      43.897 -18.882   4.609  1.00  0.00     0.016 A 
ENDBRANCH   7  10
BRANCH   9  16
HETATM   16  C   UNL     1      41.363 -14.073   1.787  1.00  0.00     0.046 A 
HETATM   17  C   UNL     1      40.292 -14.680   0.905  1.00  0.00     0.012 A 
HETATM   18  C   UNL     1      39.892 -13.875   2.092  1.00  0.00     0.012 A 
ENDBRANCH   9  16
ENDBRANCH   2   5
BRANCH   1  19
HETATM   19  N   UNL     1      42.798 -12.356   6.675  1.00  0.00    -0.263 N 
HETATM   20  C   UNL     1      43.922 -11.811   7.257  1.00  0.00     0.270 C 
HETATM   21  O   UNL     1      45.047 -12.283   7.137  1.00  0.00    -0.266 OA
HETATM   22  H   UNL     1      41.894 -11.888   6.646  1.00  0.00     0.190 HD
BRANCH  20  23
HETATM   23  C   UNL     1      43.689 -10.572   8.049  1.00  0.00     0.033 A 
HETATM   24  C   UNL     1      42.627  -9.706   7.756  1.00  0.00     0.020 A 
HETATM   25  C   UNL     1      42.425  -8.551   8.521  1.00  0.00     0.038 A 
HETATM   26  C   UNL     1      43.276  -8.257   9.587  1.00  0.00     0.068 A 
HETATM   27  C   UNL     1      44.330  -9.126   9.881  1.00  0.00     0.038 A 
HETATM   28  C   UNL     1      44.535 -10.285   9.124  1.00  0.00     0.020 A 
BRANCH  26  29
HETATM   29  O   UNL     1      43.181  -7.167  10.409  1.00  0.00    -0.352 OA
BRANCH  29  30
HETATM   30  C   UNL     1      42.147  -6.226  10.120  1.00  0.00     0.171 C 
HETATM   31  C   UNL     1      42.467  -4.933  10.848  1.00  0.00     0.034 C 
ENDBRANCH  29  30
ENDBRANCH  26  29
ENDBRANCH  20  23
ENDBRANCH   1  19
TORSDOF 7
ENDMDL
MODEL 3
REMARK VINA RESULT:      -8.2      1.712     10.463
REMARK  7 active torsions:
REMARK  status: ('A' for Active; 'I' for Inactive)
REMARK    1  A    between atoms: C_2  and  O_3 
REMARK    2  A    between atoms: O_3  and  C_4 
REMARK    3  A    between atoms: C_7  and  C_8 
REMARK       I    between atoms: C_8  and  N_9 
REMARK    4  A    between atoms: N_9  and  N_10 
REMARK       I    between atoms: N_10  and  C_11 
REMARK    5  A    between atoms: C_11  and  C_12 
REMARK    6  A    between atoms: C_14  and  C_15 
REMARK    7  A    between atoms: C_22  and  C_23 
ROOT
HETATM    1  N   UNL     1      43.002 -11.897   7.486  1.00  0.00    -0.262 N 
HETATM    2  C   UNL     1      43.986 -11.222   8.181  1.00  0.00     0.291 C 
HETATM    3  O   UNL     1      45.178 -11.506   8.053  1.00  0.00    -0.264 OA
HETATM    4  H   UNL     1      42.010 -11.719   7.648  1.00  0.00     0.190 HD
ENDROOT
BRANCH   2   5
HETATM    5  C   UNL     1      43.481 -10.188   9.070  1.00  0.00     0.159 A 
HETATM    6  N   UNL     1      43.459 -10.323  10.455  1.00  0.00    -0.216 NA
HETATM    7  C   UNL     1      42.967  -9.175  10.884  1.00  0.00     0.180 A 
HETATM    8  O   UNL     1      42.654  -8.296   9.884  1.00  0.00    -0.293 OA
HETATM    9  C   UNL     1      42.983  -8.945   8.726  1.00  0.00     0.094 A 
BRANCH   7  10
HETATM   10  C   UNL     1      42.729  -8.714  12.250  1.00  0.00     0.017 A 
HETATM   11  C   UNL     1      41.737  -9.323  13.031  1.00  0.00     0.016 A 
HETATM   12  C   UNL     1      41.501  -8.903  14.343  1.00  0.00     0.001 A 
HETATM   13  C   UNL     1      42.254  -7.866  14.891  1.00  0.00     0.000 A 
HETATM   14  C   UNL     1      43.242  -7.248  14.128  1.00  0.00     0.001 A 
HETATM   15  C   UNL     1      43.478  -7.668  12.816  1.00  0.00     0.016 A 
ENDBRANCH   7  10
BRANCH   9  16
HETATM   16  C   UNL     1      42.811  -8.344   7.342  1.00  0.00     0.046 A 
HETATM   17  C   UNL     1      41.547  -8.680   6.579  1.00  0.00     0.012 A 
HETATM   18  C   UNL     1      41.715  -7.315   7.151  1.00  0.00     0.012 A 
ENDBRANCH   9  16
ENDBRANCH   2   5
BRANCH   1  19
HETATM   19  N   UNL     1      43.371 -13.021   6.745  1.00  0.00    -0.263 N 
HETATM   20  C   UNL     1      42.401 -13.872   6.263  1.00  0.00     0.270 C 
HETATM   21  O   UNL     1      41.198 -13.689   6.417  1.00  0.00    -0.266 OA
HETATM   22  H   UNL     1      44.356 -13.087   6.493  1.00  0.00     0.190 HD
BRANCH  20  23
HETATM   23  C   UNL     1      42.909 -15.052   5.510  1.00  0.00     0.033 A 
HETATM   24  C   UNL     1      43.895 -15.891   6.045  1.00  0.00     0.020 A 
HETATM   25  C   UNL     1      44.352 -16.998   5.320  1.00  0.00     0.038 A 
HETATM   26  C   UNL     1      43.820 -17.280   4.060  1.00  0.00     0.068 A 
HETATM   27  C   UNL     1      42.832 -16.445   3.532  1.00  0.00     0.038 A 
HETATM   28  C   UNL     1      42.368 -15.339   4.254  1.00  0.00     0.020 A 
BRANCH  26  29
HETATM   29  O   UNL     1      44.177 -18.329   3.258  1.00  0.00    -0.352 OA
BRANCH  29  30
HETATM   30  C   UNL     1      43.195 -18.803   2.337  1.00  0.00     0.171 C 
HETATM   31  C   UNL     1      43.553 -20.227   1.954  1.00  0.00     0.034 C 
ENDBRANCH  29  30
ENDBRANCH  26  29
ENDBRANCH  20  23
ENDBRANCH   1  19
TORSDOF 7
ENDMDL
MODEL 4
REMARK VINA RESULT:      -8.1      4.381      8.521
REMARK  7 active torsions:
REMARK  status: ('A' for Active; 'I' for Inactive)
REMARK    1  A    between atoms: C_2  and  O_3 
REMARK    2  A    between atoms: O_3  and  C_4 
REMARK    3  A    between atoms: C_7  and  C_8 
REMARK       I    between atoms: C_8  and  N_9 
REMARK    4  A    between atoms: N_9  and  N_10 
REMARK       I    between atoms: N_10  and  C_11 
REMARK    5  A    between atoms: C_11  and  C_12 
REMARK    6  A    between atoms: C_14  and  C_15 
REMARK    7  A    between atoms: C_22  and  C_23 
ROOT
HETATM    1  N   UNL     1      41.741 -13.254   1.887  1.00  0.00    -0.262 N 
HETATM    2  C   UNL     1      42.806 -13.350   2.761  1.00  0.00     0.291 C 
HETATM    3  O   UNL     1      43.578 -12.407   2.946  1.00  0.00    -0.264 OA
HETATM    4  H   UNL     1      41.148 -14.055   1.672  1.00  0.00     0.190 HD
ENDROOT
BRANCH   2   5
HETATM    5  C   UNL     1      42.930 -14.649   3.403  1.00  0.00     0.159 A 
HETATM    6  N   UNL     1      43.139 -15.828   2.694  1.00  0.00    -0.216 NA
HETATM    7  C   UNL     1      43.226 -16.757   3.629  1.00  0.00     0.180 A 
HETATM    8  O   UNL     1      43.081 -16.278   4.902  1.00  0.00    -0.293 OA
HETATM    9  C   UNL     1      42.893 -14.932   4.756  1.00  0.00     0.094 A 
BRANCH   7  10
HETATM   10  C   UNL     1      43.466 -18.192   3.499  1.00  0.00     0.017 A 
HETATM   11  C   UNL     1      43.964 -18.919   4.590  1.00  0.00     0.016 A 
HETATM   12  C   UNL     1      44.192 -20.294   4.489  1.00  0.00     0.001 A 
HETATM   13  C   UNL     1      43.926 -20.961   3.294  1.00  0.00     0.000 A 
HETATM   14  C   UNL     1      43.433 -20.254   2.200  1.00  0.00     0.001 A 
HETATM   15  C   UNL     1      43.205 -18.878   2.301  1.00  0.00     0.016 A 
ENDBRANCH   7  10
BRANCH   9  16
HETATM   16  C   UNL     1      42.690 -13.976   5.917  1.00  0.00     0.046 A 
HETATM   17  C   UNL     1      43.187 -14.407   7.282  1.00  0.00     0.012 A 
HETATM   18  C   UNL     1      43.922 -13.348   6.536  1.00  0.00     0.012 A 
ENDBRANCH   9  16
ENDBRANCH   2   5
BRANCH   1  19
HETATM   19  N   UNL     1      41.643 -12.110   1.092  1.00  0.00    -0.263 N 
HETATM   20  C   UNL     1      41.057 -12.191  -0.153  1.00  0.00     0.270 C 
HETATM   21  O   UNL     1      40.574 -13.220  -0.611  1.00  0.00    -0.266 OA
HETATM   22  H   UNL     1      41.908 -11.233   1.536  1.00  0.00     0.190 HD
BRANCH  20  23
HETATM   23  C   UNL     1      41.029 -10.918  -0.924  1.00  0.00     0.033 A 
HETATM   24  C   UNL     1      41.389  -9.698  -0.335  1.00  0.00     0.020 A 
HETATM   25  C   UNL     1      41.361  -8.516  -1.084  1.00  0.00     0.038 A 
HETATM   26  C   UNL     1      40.982  -8.544  -2.427  1.00  0.00     0.068 A 
HETATM   27  C   UNL     1      40.631  -9.763  -3.014  1.00  0.00     0.038 A 
HETATM   28  C   UNL     1      40.661 -10.949  -2.272  1.00  0.00     0.020 A 
BRANCH  26  29
HETATM   29  O   UNL     1      40.920  -7.464  -3.263  1.00  0.00    -0.352 OA
BRANCH  29  30
HETATM   30  C   UNL     1      41.535  -7.599  -4.545  1.00  0.00     0.171 C 
HETATM   31  C   UNL     1      42.941  -7.035  -4.458  1.00  0.00     0.034 C 
ENDBRANCH  29  30
ENDBRANCH  26  29
ENDBRANCH  20  23
ENDBRANCH   1  19
TORSDOF 7
ENDMDL
MODEL 5
REMARK VINA RESULT:      -7.8      5.963     10.613
REMARK  7 active torsions:
REMARK  status: ('A' for Active; 'I' for Inactive)
REMARK    1  A    between atoms: C_2  and  O_3 
REMARK    2  A    between atoms: O_3  and  C_4 
REMARK    3  A    between atoms: C_7  and  C_8 
REMARK       I    between atoms: C_8  and  N_9 
REMARK    4  A    between atoms: N_9  and  N_10 
REMARK       I    between atoms: N_10  and  C_11 
REMARK    5  A    between atoms: C_11  and  C_12 
REMARK    6  A    between atoms: C_14  and  C_15 
REMARK    7  A    between atoms: C_22  and  C_23 
ROOT
HETATM    1  N   UNL     1      41.319 -12.925   0.349  1.00  0.00    -0.262 N 
HETATM    2  C   UNL     1      40.546 -13.060  -0.788  1.00  0.00     0.291 C 
HETATM    3  O   UNL     1      40.110 -14.155  -1.147  1.00  0.00    -0.264 OA
HETATM    4  H   UNL     1      41.747 -12.035   0.606  1.00  0.00     0.190 HD
ENDROOT
BRANCH   2   5
HETATM    5  C   UNL     1      40.327 -11.815  -1.506  1.00  0.00     0.159 A 
HETATM    6  N   UNL     1      41.364 -10.980  -1.911  1.00  0.00    -0.216 NA
HETATM    7  C   UNL     1      40.757  -9.994  -2.546  1.00  0.00     0.180 A 
HETATM    8  O   UNL     1      39.395 -10.112  -2.582  1.00  0.00    -0.293 OA
HETATM    9  C   UNL     1      39.122 -11.276  -1.918  1.00  0.00     0.094 A 
BRANCH   7  10
HETATM   10  C   UNL     1      41.325  -8.827  -3.217  1.00  0.00     0.017 A 
HETATM   11  C   UNL     1      40.875  -8.466  -4.494  1.00  0.00     0.016 A 
HETATM   12  C   UNL     1      41.398  -7.347  -5.148  1.00  0.00     0.001 A 
HETATM   13  C   UNL     1      42.381  -6.575  -4.533  1.00  0.00     0.000 A 
HETATM   14  C   UNL     1      42.842  -6.919  -3.264  1.00  0.00     0.001 A 
HETATM   15  C   UNL     1      42.318  -8.039  -2.610  1.00  0.00     0.016 A 
ENDBRANCH   7  10
BRANCH   9  16
HETATM   16  C   UNL     1      37.721 -11.822  -1.712  1.00  0.00     0.046 A 
HETATM   17  C   UNL     1      36.676 -11.500  -2.760  1.00  0.00     0.012 A 
HETATM   18  C   UNL     1      37.228 -12.881  -2.677  1.00  0.00     0.012 A 
ENDBRANCH   9  16
ENDBRANCH   2   5
BRANCH   1  19
HETATM   19  N   UNL     1      41.732 -14.086   1.006  1.00  0.00    -0.263 N 
HETATM   20  C   UNL     1      42.574 -13.994   2.093  1.00  0.00     0.270 C 
HETATM   21  O   UNL     1      42.973 -12.931   2.556  1.00  0.00    -0.266 OA
HETATM   22  H   UNL     1      41.280 -14.950   0.713  1.00  0.00     0.190 HD
BRANCH  20  23
HETATM   23  C   UNL     1      42.970 -15.294   2.700  1.00  0.00     0.033 A 
HETATM   24  C   UNL     1      43.197 -16.430   1.911  1.00  0.00     0.020 A 
HETATM   25  C   UNL     1      43.576 -17.640   2.506  1.00  0.00     0.038 A 
HETATM   26  C   UNL     1      43.740 -17.721   3.889  1.00  0.00     0.068 A 
HETATM   27  C   UNL     1      43.520 -16.584   4.673  1.00  0.00     0.038 A 
HETATM   28  C   UNL     1      43.145 -15.371   4.085  1.00  0.00     0.020 A 
BRANCH  26  29
HETATM   29  O   UNL     1      44.110 -18.838   4.586  1.00  0.00    -0.352 OA
BRANCH  29  30
HETATM   30  C   UNL     1      43.896 -20.099   3.951  1.00  0.00     0.171 C 
HETATM   31  C   UNL     1      43.828 -21.166   5.028  1.00  0.00     0.034 C 
ENDBRANCH  29  30
ENDBRANCH  26  29
ENDBRANCH  20  23
ENDBRANCH   1  19
TORSDOF 7
ENDMDL
MODEL 6
REMARK VINA RESULT:      -7.7      4.897      9.607
REMARK  7 active torsions:
REMARK  status: ('A' for Active; 'I' for Inactive)
REMARK    1  A    between atoms: C_2  and  O_3 
REMARK    2  A    between atoms: O_3  and  C_4 
REMARK    3  A    between atoms: C_7  and  C_8 
REMARK       I    between atoms: C_8  and  N_9 
REMARK    4  A    between atoms: N_9  and  N_10 
REMARK       I    between atoms: N_10  and  C_11 
REMARK    5  A    between atoms: C_11  and  C_12 
REMARK    6  A    between atoms: C_14  and  C_15 
REMARK    7  A    between atoms: C_22  and  C_23 
ROOT
HETATM    1  N   UNL     1      41.595 -13.891   0.369  1.00  0.00    -0.262 N 
HETATM    2  C   UNL     1      41.261 -13.916   1.709  1.00  0.00     0.291 C 
HETATM    3  O   UNL     1      40.413 -13.155   2.178  1.00  0.00    -0.264 OA
HETATM    4  H   UNL     1      42.350 -14.463  -0.008  1.00  0.00     0.190 HD
ENDROOT
BRANCH   2   5
HETATM    5  C   UNL     1      42.010 -14.889   2.487  1.00  0.00     0.159 A 
HETATM    6  N   UNL     1      42.027 -16.248   2.188  1.00  0.00    -0.216 NA
HETATM    7  C   UNL     1      42.833 -16.769   3.095  1.00  0.00     0.180 A 
HETATM    8  O   UNL     1      43.342 -15.856   3.977  1.00  0.00    -0.293 OA
HETATM    9  C   UNL     1      42.816 -14.656   3.587  1.00  0.00     0.094 A 
BRANCH   7  10
HETATM   10  C   UNL     1      43.262 -18.154   3.277  1.00  0.00     0.017 A 
HETATM   11  C   UNL     1      43.151 -19.065   2.216  1.00  0.00     0.016 A 
HETATM   12  C   UNL     1      43.565 -20.392   2.367  1.00  0.00     0.001 A 
HETATM   13  C   UNL     1      44.094 -20.826   3.581  1.00  0.00     0.000 A 
HETATM   14  C   UNL     1      44.209 -19.935   4.645  1.00  0.00     0.001 A 
HETATM   15  C   UNL     1      43.795 -18.608   4.495  1.00  0.00     0.016 A 
ENDBRANCH   7  10
BRANCH   9  16
HETATM   16  C   UNL     1      43.112 -13.338   4.280  1.00  0.00     0.046 A 
HETATM   17  C   UNL     1      42.055 -12.776   5.209  1.00  0.00     0.012 A 
HETATM   18  C   UNL     1      43.299 -13.359   5.784  1.00  0.00     0.012 A 
ENDBRANCH   9  16
ENDBRANCH   2   5
BRANCH   1  19
HETATM   19  N   UNL     1      41.061 -12.873  -0.424  1.00  0.00    -0.263 N 
HETATM   20  C   UNL     1      40.024 -13.151  -1.288  1.00  0.00     0.270 C 
HETATM   21  O   UNL     1      39.501 -14.256  -1.389  1.00  0.00    -0.266 OA
HETATM   22  H   UNL     1      41.395 -11.931  -0.228  1.00  0.00     0.190 HD
BRANCH  20  23
HETATM   23  C   UNL     1      39.550 -11.999  -2.102  1.00  0.00     0.033 A 
HETATM   24  C   UNL     1      38.183 -11.745  -2.284  1.00  0.00     0.020 A 
HETATM   25  C   UNL     1      37.763 -10.651  -3.050  1.00  0.00     0.038 A 
HETATM   26  C   UNL     1      38.703  -9.799  -3.631  1.00  0.00     0.068 A 
HETATM   27  C   UNL     1      40.065 -10.050  -3.442  1.00  0.00     0.038 A 
HETATM   28  C   UNL     1      40.491 -11.140  -2.675  1.00  0.00     0.020 A 
BRANCH  26  29
HETATM   29  O   UNL     1      38.420  -8.699  -4.393  1.00  0.00    -0.352 OA
BRANCH  29  30
HETATM   30  C   UNL     1      38.597  -8.825  -5.805  1.00  0.00     0.171 C 
HETATM   31  C   UNL     1      37.234  -8.714  -6.464  1.00  0.00     0.034 C 
ENDBRANCH  29  30
ENDBRANCH  26  29
ENDBRANCH  20  23
ENDBRANCH   1  19
TORSDOF 7
ENDMDL
MODEL 7
REMARK VINA RESULT:      -7.6      6.640     10.922
REMARK  7 active torsions:
REMARK  status: ('A' for Active; 'I' for Inactive)
REMARK    1  A    between atoms: C_2  and  O_3 
REMARK    2  A    between atoms: O_3  and  C_4 
REMARK    3  A    between atoms: C_7  and  C_8 
REMARK       I    between atoms: C_8  and  N_9 
REMARK    4  A    between atoms: N_9  and  N_10 
REMARK       I    between atoms: N_10  and  C_11 
REMARK    5  A    between atoms: C_11  and  C_12 
REMARK    6  A    between atoms: C_14  and  C_15 
REMARK    7  A    between atoms: C_22  and  C_23 
ROOT
HETATM    1  N   UNL     1      41.199 -13.235  -0.673  1.00  0.00    -0.262 N 
HETATM    2  C   UNL     1      40.728 -11.959  -0.437  1.00  0.00     0.291 C 
HETATM    3  O   UNL     1      40.838 -11.422   0.666  1.00  0.00    -0.264 OA
HETATM    4  H   UNL     1      41.041 -13.712  -1.561  1.00  0.00     0.190 HD
ENDROOT
BRANCH   2   5
HETATM    5  C   UNL     1      40.089 -11.342  -1.588  1.00  0.00     0.159 A 
HETATM    6  N   UNL     1      40.625 -10.244  -2.256  1.00  0.00    -0.216 NA
HETATM    7  C   UNL     1      39.775 -10.018  -3.241  1.00  0.00     0.180 A 
HETATM    8  O   UNL     1      38.713 -10.878  -3.267  1.00  0.00    -0.293 OA
HETATM    9  C   UNL     1      38.915 -11.723  -2.211  1.00  0.00     0.094 A 
BRANCH   7  10
HETATM   10  C   UNL     1      39.817  -9.007  -4.296  1.00  0.00     0.017 A 
HETATM   11  C   UNL     1      38.696  -8.802  -5.112  1.00  0.00     0.016 A 
HETATM   12  C   UNL     1      38.712  -7.833  -6.119  1.00  0.00     0.001 A 
HETATM   13  C   UNL     1      39.852  -7.058  -6.325  1.00  0.00     0.000 A 
HETATM   14  C   UNL     1      40.976  -7.250  -5.525  1.00  0.00     0.001 A 
HETATM   15  C   UNL     1      40.959  -8.219  -4.517  1.00  0.00     0.016 A 
ENDBRANCH   7  10
BRANCH   9  16
HETATM   16  C   UNL     1      37.978 -12.862  -1.848  1.00  0.00     0.046 A 
HETATM   17  C   UNL     1      36.979 -13.314  -2.893  1.00  0.00     0.012 A 
HETATM   18  C   UNL     1      38.152 -14.177  -2.580  1.00  0.00     0.012 A 
ENDBRANCH   9  16
ENDBRANCH   2   5
BRANCH   1  19
HETATM   19  N   UNL     1      41.668 -13.975   0.415  1.00  0.00    -0.263 N 
HETATM   20  C   UNL     1      40.917 -15.020   0.906  1.00  0.00     0.270 C 
HETATM   21  O   UNL     1      39.848 -15.376   0.421  1.00  0.00    -0.266 OA
HETATM   22  H   UNL     1      42.620 -13.773   0.716  1.00  0.00     0.190 HD
BRANCH  20  23
HETATM   23  C   UNL     1      41.499 -15.723   2.082  1.00  0.00     0.033 A 
HETATM   24  C   UNL     1      40.849 -15.730   3.324  1.00  0.00     0.020 A 
HETATM   25  C   UNL     1      41.414 -16.403   4.414  1.00  0.00     0.038 A 
HETATM   26  C   UNL     1      42.626 -17.081   4.269  1.00  0.00     0.068 A 
HETATM   27  C   UNL     1      43.268 -17.078   3.028  1.00  0.00     0.038 A 
HETATM   28  C   UNL     1      42.706 -16.410   1.933  1.00  0.00     0.020 A 
BRANCH  26  29
HETATM   29  O   UNL     1      43.274 -17.777   5.251  1.00  0.00    -0.352 OA
BRANCH  29  30
HETATM   30  C   UNL     1      44.269 -18.713   4.833  1.00  0.00     0.171 C 
HETATM   31  C   UNL     1      43.915 -20.071   5.412  1.00  0.00     0.034 C 
ENDBRANCH  29  30
ENDBRANCH  26  29
ENDBRANCH  20  23
ENDBRANCH   1  19
TORSDOF 7
ENDMDL
MODEL 8
REMARK VINA RESULT:      -7.6      6.600     10.915
REMARK  7 active torsions:
REMARK  status: ('A' for Active; 'I' for Inactive)
REMARK    1  A    between atoms: C_2  and  O_3 
REMARK    2  A    between atoms: O_3  and  C_4 
REMARK    3  A    between atoms: C_7  and  C_8 
REMARK       I    between atoms: C_8  and  N_9 
REMARK    4  A    between atoms: N_9  and  N_10 
REMARK       I    between atoms: N_10  and  C_11 
REMARK    5  A    between atoms: C_11  and  C_12 
REMARK    6  A    between atoms: C_14  and  C_15 
REMARK    7  A    between atoms: C_22  and  C_23 
ROOT
HETATM    1  N   UNL     1      39.458 -13.942  -0.108  1.00  0.00    -0.262 N 
HETATM    2  C   UNL     1      39.640 -13.825  -1.472  1.00  0.00     0.291 C 
HETATM    3  O   UNL     1      40.448 -14.528  -2.079  1.00  0.00    -0.264 OA
HETATM    4  H   UNL     1      38.848 -13.309   0.410  1.00  0.00     0.190 HD
ENDROOT
BRANCH   2   5
HETATM    5  C   UNL     1      38.817 -12.799  -2.092  1.00  0.00     0.159 A 
HETATM    6  N   UNL     1      37.428 -12.870  -2.147  1.00  0.00    -0.216 NA
HETATM    7  C   UNL     1      37.070 -11.751  -2.749  1.00  0.00     0.180 A 
HETATM    8  O   UNL     1      38.120 -10.951  -3.105  1.00  0.00    -0.293 OA
HETATM    9  C   UNL     1      39.235 -11.621  -2.685  1.00  0.00     0.094 A 
BRANCH   7  10
HETATM   10  C   UNL     1      35.735 -11.250  -3.069  1.00  0.00     0.017 A 
HETATM   11  C   UNL     1      34.871 -12.019  -3.860  1.00  0.00     0.016 A 
HETATM   12  C   UNL     1      33.586 -11.561  -4.169  1.00  0.00     0.001 A 
HETATM   13  C   UNL     1      33.151 -10.327  -3.692  1.00  0.00     0.000 A 
HETATM   14  C   UNL     1      33.997  -9.549  -2.906  1.00  0.00     0.001 A 
HETATM   15  C   UNL     1      35.282 -10.007  -2.597  1.00  0.00     0.016 A 
ENDBRANCH   7  10
BRANCH   9  16
HETATM   16  C   UNL     1      40.651 -11.103  -2.863  1.00  0.00     0.046 A 
HETATM   17  C   UNL     1      40.840  -9.609  -3.029  1.00  0.00     0.012 A 
HETATM   18  C   UNL     1      41.238 -10.259  -1.750  1.00  0.00     0.012 A 
ENDBRANCH   9  16
ENDBRANCH   2   5
BRANCH   1  19
HETATM   19  N   UNL     1      40.326 -14.773   0.603  1.00  0.00    -0.263 N 
HETATM   20  C   UNL     1      40.385 -14.687   1.977  1.00  0.00     0.270 C 
HETATM   21  O   UNL     1      39.684 -13.931   2.641  1.00  0.00    -0.266 OA
HETATM   22  H   UNL     1      40.792 -15.500   0.063  1.00  0.00     0.190 HD
BRANCH  20  23
HETATM   23  C   UNL     1      41.363 -15.600   2.629  1.00  0.00     0.033 A 
HETATM   24  C   UNL     1      41.255 -15.937   3.986  1.00  0.00     0.020 A 
HETATM   25  C   UNL     1      42.184 -16.803   4.575  1.00  0.00     0.038 A 
HETATM   26  C   UNL     1      43.220 -17.346   3.813  1.00  0.00     0.068 A 
HETATM   27  C   UNL     1      43.320 -17.014   2.458  1.00  0.00     0.038 A 
HETATM   28  C   UNL     1      42.392 -16.152   1.863  1.00  0.00     0.020 A 
BRANCH  26  29
HETATM   29  O   UNL     1      44.182 -18.204   4.268  1.00  0.00    -0.352 OA
BRANCH  29  30
HETATM   30  C   UNL     1      44.101 -19.561   3.830  1.00  0.00     0.171 C 
HETATM   31  C   UNL     1      44.115 -20.456   5.056  1.00  0.00     0.034 C 
ENDBRANCH  29  30
ENDBRANCH  26  29
ENDBRANCH  20  23
ENDBRANCH   1  19
TORSDOF 7
ENDMDL
MODEL 9
REMARK VINA RESULT:      -7.5      6.213      9.993
REMARK  7 active torsions:
REMARK  status: ('A' for Active; 'I' for Inactive)
REMARK    1  A    between atoms: C_2  and  O_3 
REMARK    2  A    between atoms: O_3  and  C_4 
REMARK    3  A    between atoms: C_7  and  C_8 
REMARK       I    between atoms: C_8  and  N_9 
REMARK    4  A    between atoms: N_9  and  N_10 
REMARK       I    between atoms: N_10  and  C_11 
REMARK    5  A    between atoms: C_11  and  C_12 
REMARK    6  A    between atoms: C_14  and  C_15 
REMARK    7  A    between atoms: C_22  and  C_23 
ROOT
HETATM    1  N   UNL     1      41.572  -8.523  14.061  1.00  0.00    -0.262 N 
HETATM    2  C   UNL     1      41.011  -9.490  13.250  1.00  0.00     0.291 C 
HETATM    3  O   UNL     1      40.175 -10.287  13.678  1.00  0.00    -0.264 OA
HETATM    4  H   UNL     1      42.321  -7.913  13.733  1.00  0.00     0.190 HD
ENDROOT
BRANCH   2   5
HETATM    5  C   UNL     1      41.514  -9.482  11.886  1.00  0.00     0.159 A 
HETATM    6  N   UNL     1      42.841  -9.755  11.565  1.00  0.00    -0.216 NA
HETATM    7  C   UNL     1      42.877  -9.680  10.247  1.00  0.00     0.180 A 
HETATM    8  O   UNL     1      41.675  -9.369   9.675  1.00  0.00    -0.293 OA
HETATM    9  C   UNL     1      40.805  -9.243  10.723  1.00  0.00     0.094 A 
BRANCH   7  10
HETATM   10  C   UNL     1      43.995  -9.894   9.331  1.00  0.00     0.017 A 
HETATM   11  C   UNL     1      44.006 -11.018   8.493  1.00  0.00     0.016 A 
HETATM   12  C   UNL     1      45.062 -11.235   7.602  1.00  0.00     0.001 A 
HETATM   13  C   UNL     1      46.121 -10.332   7.540  1.00  0.00     0.000 A 
HETATM   14  C   UNL     1      46.127  -9.211   8.367  1.00  0.00     0.001 A 
HETATM   15  C   UNL     1      45.071  -8.994   9.257  1.00  0.00     0.016 A 
ENDBRANCH   7  10
BRANCH   9  16
HETATM   16  C   UNL     1      39.333  -8.905  10.565  1.00  0.00     0.046 A 
HETATM   17  C   UNL     1      38.849  -7.582  11.121  1.00  0.00     0.012 A 
HETATM   18  C   UNL     1      38.969  -7.756   9.647  1.00  0.00     0.012 A 
ENDBRANCH   9  16
ENDBRANCH   2   5
BRANCH   1  19
HETATM   19  N   UNL     1      41.286  -8.563  15.428  1.00  0.00    -0.263 N 
HETATM   20  C   UNL     1      41.549  -7.463  16.214  1.00  0.00     0.270 C 
HETATM   21  O   UNL     1      42.002  -6.409  15.780  1.00  0.00    -0.266 OA
HETATM   22  H   UNL     1      40.774  -9.380  15.754  1.00  0.00     0.190 HD
BRANCH  20  23
HETATM   23  C   UNL     1      41.230  -7.625  17.659  1.00  0.00     0.033 A 
HETATM   24  C   UNL     1      39.962  -8.042  18.085  1.00  0.00     0.020 A 
HETATM   25  C   UNL     1      39.689  -8.193  19.450  1.00  0.00     0.038 A 
HETATM   26  C   UNL     1      40.681  -7.938  20.397  1.00  0.00     0.068 A 
HETATM   27  C   UNL     1      41.948  -7.529  19.969  1.00  0.00     0.038 A 
HETATM   28  C   UNL     1      42.229  -7.380  18.606  1.00  0.00     0.020 A 
BRANCH  26  29
HETATM   29  O   UNL     1      40.542  -8.053  21.753  1.00  0.00    -0.352 OA
BRANCH  29  30
HETATM   30  C   UNL     1      39.304  -7.618  22.316  1.00  0.00     0.171 C 
HETATM   31  C   UNL     1      39.375  -6.114  22.511  1.00  0.00     0.034 C 
ENDBRANCH  29  30
ENDBRANCH  26  29
ENDBRANCH  20  23
ENDBRANCH   1  19
TORSDOF 7
ENDMDL
MODEL 10
REMARK VINA RESULT:      -7.5      2.469      3.161
REMARK  7 active torsions:
REMARK  status: ('A' for Active; 'I' for Inactive)
REMARK    1  A    between atoms: C_2  and  O_3 
REMARK    2  A    between atoms: O_3  and  C_4 
REMARK    3  A    between atoms: C_7  and  C_8 
REMARK       I    between atoms: C_8  and  N_9 
REMARK    4  A    between atoms: N_9  and  N_10 
REMARK       I    between atoms: N_10  and  C_11 
REMARK    5  A    between atoms: C_11  and  C_12 
REMARK    6  A    between atoms: C_14  and  C_15 
REMARK    7  A    between atoms: C_22  and  C_23 
ROOT
HETATM    1  N   UNL     1      41.614 -13.418   5.735  1.00  0.00    -0.262 N 
HETATM    2  C   UNL     1      42.679 -13.551   4.865  1.00  0.00     0.291 C 
HETATM    3  O   UNL     1      43.551 -12.686   4.774  1.00  0.00    -0.264 OA
HETATM    4  H   UNL     1      40.850 -14.093   5.757  1.00  0.00     0.190 HD
ENDROOT
BRANCH   2   5
HETATM    5  C   UNL     1      42.650 -14.772   4.076  1.00  0.00     0.159 A 
HETATM    6  N   UNL     1      43.246 -15.959   4.493  1.00  0.00    -0.216 NA
HETATM    7  C   UNL     1      42.970 -16.817   3.528  1.00  0.00     0.180 A 
HETATM    8  O   UNL     1      42.243 -16.281   2.500  1.00  0.00    -0.293 OA
HETATM    9  C   UNL     1      42.039 -14.976   2.852  1.00  0.00     0.094 A 
BRANCH   7  10
HETATM   10  C   UNL     1      43.310 -18.233   3.413  1.00  0.00     0.017 A 
HETATM   11  C   UNL     1      43.865 -18.910   4.509  1.00  0.00     0.016 A 
HETATM   12  C   UNL     1      44.188 -20.267   4.422  1.00  0.00     0.001 A 
HETATM   13  C   UNL     1      43.963 -20.965   3.237  1.00  0.00     0.000 A 
HETATM   14  C   UNL     1      43.414 -20.307   2.138  1.00  0.00     0.001 A 
HETATM   15  C   UNL     1      43.091 -18.950   2.225  1.00  0.00     0.016 A 
ENDBRANCH   7  10
BRANCH   9  16
HETATM   16  C   UNL     1      41.265 -13.983   2.004  1.00  0.00     0.046 A 
HETATM   17  C   UNL     1      40.261 -14.533   1.013  1.00  0.00     0.012 A 
HETATM   18  C   UNL     1      39.775 -13.859   2.248  1.00  0.00     0.012 A 
ENDBRANCH   9  16
ENDBRANCH   2   5
BRANCH   1  19
HETATM   19  N   UNL     1      41.459 -12.202   6.404  1.00  0.00    -0.263 N 
HETATM   20  C   UNL     1      40.476 -11.322   6.006  1.00  0.00     0.270 C 
HETATM   21  O   UNL     1      39.685 -11.553   5.098  1.00  0.00    -0.266 OA
HETATM   22  H   UNL     1      42.016 -12.082   7.248  1.00  0.00     0.190 HD
BRANCH  20  23
HETATM   23  C   UNL     1      40.418 -10.047   6.772  1.00  0.00     0.033 A 
HETATM   24  C   UNL     1      39.574  -9.900   7.882  1.00  0.00     0.020 A 
HETATM   25  C   UNL     1      39.542  -8.692   8.589  1.00  0.00     0.038 A 
HETATM   26  C   UNL     1      40.357  -7.628   8.200  1.00  0.00     0.068 A 
HETATM   27  C   UNL     1      41.202  -7.781   7.097  1.00  0.00     0.038 A 
HETATM   28  C   UNL     1      41.242  -8.986   6.388  1.00  0.00     0.020 A 
BRANCH  26  29
HETATM   29  O   UNL     1      40.420  -6.405   8.809  1.00  0.00    -0.352 OA
BRANCH  29  30
HETATM   30  C   UNL     1      41.722  -5.877   9.069  1.00  0.00     0.171 C 
HETATM   31  C   UNL     1      42.163  -6.357  10.440  1.00  0.00     0.034 C 
ENDBRANCH  29  30
ENDBRANCH  26  29
ENDBRANCH  20  23
ENDBRANCH   1  19
TORSDOF 7
ENDMDL
