MODEL 1
REMARK VINA RESULT:      -7.6      0.000      0.000
REMARK  3 active torsions:
REMARK  status: ('A' for Active; 'I' for Inactive)
REMARK       I    between atoms: C_2  and  N_3 
REMARK    1  A    between atoms: N_3  and  C_4 
REMARK    2  A    between atoms: C_6  and  N_7 
REMARK       I    between atoms: N_7  and  C_8 
REMARK    3  A    between atoms: C_8  and  C_9 
ROOT
HETATM    1  C   UNL     1      39.495 -14.072  -0.312  1.00  0.00     0.036 A 
HETATM    2  C   UNL     1      40.237 -15.027   0.393  1.00  0.00     0.059 A 
HETATM    3  C   UNL     1      40.933 -14.675   1.558  1.00  0.00     0.037 A 
HETATM    4  C   UNL     1      40.882 -13.352   2.012  1.00  0.00     0.029 A 
HETATM    5  C   UNL     1      40.164 -12.390   1.307  1.00  0.00     0.004 A 
HETATM    6  C   UNL     1      39.476 -12.749   0.149  1.00  0.00     0.029 A 
ENDROOT
BRANCH   3   7
HETATM    7  N   UNL     1      41.678 -15.581   2.334  1.00  0.00    -0.322 N 
HETATM    8  C   UNL     1      43.023 -15.886   2.245  1.00  0.00     0.274 C 
HETATM    9  O   UNL     1      43.860 -15.365   1.520  1.00  0.00    -0.266 OA
HETATM   10  H   UNL     1      41.188 -16.094   3.064  1.00  0.00     0.169 HD
BRANCH   8  11
HETATM   11  C   UNL     1      43.435 -16.980   3.184  1.00  0.00     0.126 A 
HETATM   12  N   UNL     1      43.771 -16.591   4.449  1.00  0.00    -0.255 NA
HETATM   13  C   UNL     1      44.119 -17.571   5.311  1.00  0.00     0.119 A 
HETATM   14  C   UNL     1      44.153 -18.911   4.972  1.00  0.00     0.043 A 
HETATM   15  C   UNL     1      43.811 -19.264   3.672  1.00  0.00     0.037 A 
HETATM   16 CL   UNL     1      43.842 -20.920   3.206  1.00  0.00    -0.084 Cl
HETATM   17  C   UNL     1      43.444 -18.296   2.750  1.00  0.00     0.061 A 
ENDBRANCH   8  11
ENDBRANCH   3   7
BRANCH   1  18
HETATM   18  N   UNL     1      38.748 -14.346  -1.478  1.00  0.00    -0.327 N 
HETATM   19  C   UNL     1      39.172 -14.269  -2.792  1.00  0.00     0.218 C 
HETATM   20  C   UNL     1      38.082 -14.630  -3.773  1.00  0.00     0.117 C 
HETATM   21  O   UNL     1      40.294 -13.993  -3.194  1.00  0.00    -0.274 OA
HETATM   22  H   UNL     1      37.807 -14.681  -1.326  1.00  0.00     0.169 HD
ENDBRANCH   1  18
TORSDOF 3
ENDMDL
MODEL 2
REMARK VINA RESULT:      -7.4      4.702      6.888
REMARK  3 active torsions:
REMARK  status: ('A' for Active; 'I' for Inactive)
REMARK       I    between atoms: C_2  and  N_3 
REMARK    1  A    between atoms: N_3  and  C_4 
REMARK    2  A    between atoms: C_6  and  N_7 
REMARK       I    between atoms: N_7  and  C_8 
REMARK    3  A    between atoms: C_8  and  C_9 
ROOT
HETATM    1  C   UNL     1      43.571 -11.881   6.486  1.00  0.00     0.036 A 
HETATM    2  C   UNL     1      43.929 -13.199   6.174  1.00  0.00     0.059 A 
HETATM    3  C   UNL     1      42.974 -14.101   5.684  1.00  0.00     0.037 A 
HETATM    4  C   UNL     1      41.653 -13.674   5.510  1.00  0.00     0.029 A 
HETATM    5  C   UNL     1      41.283 -12.372   5.836  1.00  0.00     0.004 A 
HETATM    6  C   UNL     1      42.238 -11.481   6.324  1.00  0.00     0.029 A 
ENDROOT
BRANCH   3   7
HETATM    7  N   UNL     1      43.260 -15.431   5.325  1.00  0.00    -0.322 N 
HETATM    8  C   UNL     1      43.370 -15.976   4.060  1.00  0.00     0.274 C 
HETATM    9  O   UNL     1      43.322 -15.388   2.988  1.00  0.00    -0.266 OA
HETATM   10  H   UNL     1      43.409 -16.102   6.076  1.00  0.00     0.169 HD
BRANCH   8  11
HETATM   11  C   UNL     1      43.589 -17.460   4.082  1.00  0.00     0.126 A 
HETATM   12  N   UNL     1      43.806 -18.016   5.311  1.00  0.00    -0.255 NA
HETATM   13  C   UNL     1      43.979 -19.355   5.345  1.00  0.00     0.119 A 
HETATM   14  C   UNL     1      43.951 -20.160   4.220  1.00  0.00     0.043 A 
HETATM   15  C   UNL     1      43.735 -19.552   2.989  1.00  0.00     0.037 A 
HETATM   16 CL   UNL     1      43.695 -20.514   1.563  1.00  0.00    -0.084 Cl
HETATM   17  C   UNL     1      43.549 -18.181   2.901  1.00  0.00     0.061 A 
ENDBRANCH   8  11
ENDBRANCH   3   7
BRANCH   1  18
HETATM   18  N   UNL     1      44.471 -10.903   6.961  1.00  0.00    -0.327 N 
HETATM   19  C   UNL     1      44.777 -10.602   8.275  1.00  0.00     0.218 C 
HETATM   20  C   UNL     1      45.784  -9.483   8.393  1.00  0.00     0.117 C 
HETATM   21  O   UNL     1      44.358 -11.160   9.281  1.00  0.00    -0.274 OA
HETATM   22  H   UNL     1      44.984 -10.398   6.251  1.00  0.00     0.169 HD
ENDBRANCH   1  18
TORSDOF 3
ENDMDL
MODEL 3
REMARK VINA RESULT:      -7.3      3.286      7.720
REMARK  3 active torsions:
REMARK  status: ('A' for Active; 'I' for Inactive)
REMARK       I    between atoms: C_2  and  N_3 
REMARK    1  A    between atoms: N_3  and  C_4 
REMARK    2  A    between atoms: C_6  and  N_7 
REMARK       I    between atoms: N_7  and  C_8 
REMARK    3  A    between atoms: C_8  and  C_9 
ROOT
HETATM    1  C   UNL     1      43.316 -16.569   4.604  1.00  0.00     0.036 A 
HETATM    2  C   UNL     1      42.710 -15.737   3.655  1.00  0.00     0.059 A 
HETATM    3  C   UNL     1      42.514 -16.178   2.339  1.00  0.00     0.037 A 
HETATM    4  C   UNL     1      42.934 -17.463   1.978  1.00  0.00     0.029 A 
HETATM    5  C   UNL     1      43.556 -18.291   2.909  1.00  0.00     0.004 A 
HETATM    6  C   UNL     1      43.747 -17.844   4.215  1.00  0.00     0.029 A 
ENDROOT
BRANCH   3   7
HETATM    7  N   UNL     1      41.893 -15.411   1.337  1.00  0.00    -0.322 N 
HETATM    8  C   UNL     1      40.543 -15.209   1.121  1.00  0.00     0.274 C 
HETATM    9  O   UNL     1      39.611 -15.592   1.816  1.00  0.00    -0.266 OA
HETATM   10  H   UNL     1      42.491 -14.933   0.667  1.00  0.00     0.169 HD
BRANCH   8  11
HETATM   11  C   UNL     1      40.264 -14.405  -0.113  1.00  0.00     0.126 A 
HETATM   12  N   UNL     1      40.843 -13.169  -0.169  1.00  0.00    -0.255 NA
HETATM   13  C   UNL     1      40.619 -12.447  -1.289  1.00  0.00     0.119 A 
HETATM   14  C   UNL     1      39.847 -12.893  -2.345  1.00  0.00     0.043 A 
HETATM   15  C   UNL     1      39.270 -14.154  -2.245  1.00  0.00     0.037 A 
HETATM   16 CL   UNL     1      38.300 -14.749  -3.536  1.00  0.00    -0.084 Cl
HETATM   17  C   UNL     1      39.472 -14.936  -1.119  1.00  0.00     0.061 A 
ENDBRANCH   8  11
ENDBRANCH   3   7
BRANCH   1  18
HETATM   18  N   UNL     1      43.529 -16.214   5.954  1.00  0.00    -0.327 N 
HETATM   19  C   UNL     1      42.577 -16.005   6.935  1.00  0.00     0.218 C 
HETATM   20  C   UNL     1      43.189 -15.627   8.263  1.00  0.00     0.117 C 
HETATM   21  O   UNL     1      41.365 -16.134   6.831  1.00  0.00    -0.274 OA
HETATM   22  H   UNL     1      44.496 -16.152   6.243  1.00  0.00     0.169 HD
ENDBRANCH   1  18
TORSDOF 3
ENDMDL
MODEL 4
REMARK VINA RESULT:      -7.3      1.379      1.620
REMARK  3 active torsions:
REMARK  status: ('A' for Active; 'I' for Inactive)
REMARK       I    between atoms: C_2  and  N_3 
REMARK    1  A    between atoms: N_3  and  C_4 
REMARK    2  A    between atoms: C_6  and  N_7 
REMARK       I    between atoms: N_7  and  C_8 
REMARK    3  A    between atoms: C_8  and  C_9 
ROOT
HETATM    1  C   UNL     1      39.588 -13.968  -0.274  1.00  0.00     0.036 A 
HETATM    2  C   UNL     1      40.277 -14.926   0.481  1.00  0.00     0.059 A 
HETATM    3  C   UNL     1      41.000 -14.552   1.622  1.00  0.00     0.037 A 
HETATM    4  C   UNL     1      41.030 -13.206   2.002  1.00  0.00     0.029 A 
HETATM    5  C   UNL     1      40.366 -12.243   1.247  1.00  0.00     0.004 A 
HETATM    6  C   UNL     1      39.650 -12.623   0.113  1.00  0.00     0.029 A 
ENDROOT
BRANCH   3   7
HETATM    7  N   UNL     1      41.695 -15.457   2.444  1.00  0.00    -0.322 N 
HETATM    8  C   UNL     1      42.940 -16.022   2.241  1.00  0.00     0.274 C 
HETATM    9  O   UNL     1      43.729 -15.783   1.337  1.00  0.00    -0.266 OA
HETATM   10  H   UNL     1      41.246 -15.753   3.308  1.00  0.00     0.169 HD
BRANCH   8  11
HETATM   11  C   UNL     1      43.305 -17.022   3.298  1.00  0.00     0.126 A 
HETATM   12  N   UNL     1      43.785 -18.220   2.851  1.00  0.00    -0.255 NA
HETATM   13  C   UNL     1      44.141 -19.117   3.795  1.00  0.00     0.119 A 
HETATM   14  C   UNL     1      44.037 -18.882   5.154  1.00  0.00     0.043 A 
HETATM   15  C   UNL     1      43.537 -17.652   5.566  1.00  0.00     0.037 A 
HETATM   16 CL   UNL     1      43.388 -17.317   7.247  1.00  0.00    -0.084 Cl
HETATM   17  C   UNL     1      43.160 -16.695   4.637  1.00  0.00     0.061 A 
ENDBRANCH   8  11
ENDBRANCH   3   7
BRANCH   1  18
HETATM   18  N   UNL     1      38.819 -14.261  -1.421  1.00  0.00    -0.327 N 
HETATM   19  C   UNL     1      39.238 -14.284  -2.738  1.00  0.00     0.218 C 
HETATM   20  C   UNL     1      38.122 -14.632  -3.694  1.00  0.00     0.117 C 
HETATM   21  O   UNL     1      40.372 -14.099  -3.159  1.00  0.00    -0.274 OA
HETATM   22  H   UNL     1      37.859 -14.530  -1.248  1.00  0.00     0.169 HD
ENDBRANCH   1  18
TORSDOF 3
ENDMDL
MODEL 5
REMARK VINA RESULT:      -7.2      6.333      8.959
REMARK  3 active torsions:
REMARK  status: ('A' for Active; 'I' for Inactive)
REMARK       I    between atoms: C_2  and  N_3 
REMARK    1  A    between atoms: N_3  and  C_4 
REMARK    2  A    between atoms: C_6  and  N_7 
REMARK       I    between atoms: N_7  and  C_8 
REMARK    3  A    between atoms: C_8  and  C_9 
ROOT
HETATM    1  C   UNL     1      44.426 -10.421   8.736  1.00  0.00     0.036 A 
HETATM    2  C   UNL     1      43.676 -11.303   7.949  1.00  0.00     0.059 A 
HETATM    3  C   UNL     1      44.249 -11.930   6.834  1.00  0.00     0.037 A 
HETATM    4  C   UNL     1      45.584 -11.665   6.510  1.00  0.00     0.029 A 
HETATM    5  C   UNL     1      46.333 -10.774   7.274  1.00  0.00     0.004 A 
HETATM    6  C   UNL     1      45.755 -10.153   8.380  1.00  0.00     0.029 A 
ENDROOT
BRANCH   3   7
HETATM    7  N   UNL     1      43.569 -12.846   6.010  1.00  0.00    -0.322 N 
HETATM    8  C   UNL     1      43.199 -14.147   6.292  1.00  0.00     0.274 C 
HETATM    9  O   UNL     1      43.317 -14.741   7.355  1.00  0.00    -0.266 OA
HETATM   10  H   UNL     1      43.303 -12.536   5.077  1.00  0.00     0.169 HD
BRANCH   8  11
HETATM   11  C   UNL     1      42.573 -14.841   5.119  1.00  0.00     0.126 A 
HETATM   12  N   UNL     1      41.359 -14.363   4.716  1.00  0.00    -0.255 NA
HETATM   13  C   UNL     1      40.798 -14.965   3.645  1.00  0.00     0.119 A 
HETATM   14  C   UNL     1      41.383 -16.017   2.965  1.00  0.00     0.043 A 
HETATM   15  C   UNL     1      42.616 -16.478   3.413  1.00  0.00     0.037 A 
HETATM   16 CL   UNL     1      43.380 -17.787   2.597  1.00  0.00    -0.084 Cl
HETATM   17  C   UNL     1      43.235 -15.892   4.505  1.00  0.00     0.061 A 
ENDBRANCH   8  11
ENDBRANCH   3   7
BRANCH   1  18
HETATM   18  N   UNL     1      43.936  -9.767   9.887  1.00  0.00    -0.327 N 
HETATM   19  C   UNL     1      43.762 -10.296  11.152  1.00  0.00     0.218 C 
HETATM   20  C   UNL     1      43.203  -9.289  12.128  1.00  0.00     0.117 C 
HETATM   21  O   UNL     1      44.046 -11.425  11.529  1.00  0.00    -0.274 OA
HETATM   22  H   UNL     1      43.732  -8.782   9.777  1.00  0.00     0.169 HD
ENDBRANCH   1  18
TORSDOF 3
ENDMDL
MODEL 6
REMARK VINA RESULT:      -7.0      3.148      7.360
REMARK  3 active torsions:
REMARK  status: ('A' for Active; 'I' for Inactive)
REMARK       I    between atoms: C_2  and  N_3 
REMARK    1  A    between atoms: N_3  and  C_4 
REMARK    2  A    between atoms: C_6  and  N_7 
REMARK       I    between atoms: N_7  and  C_8 
REMARK    3  A    between atoms: C_8  and  C_9 
ROOT
HETATM    1  C   UNL     1      43.348 -16.980   5.158  1.00  0.00     0.036 A 
HETATM    2  C   UNL     1      42.761 -16.530   3.968  1.00  0.00     0.059 A 
HETATM    3  C   UNL     1      42.524 -15.164   3.760  1.00  0.00     0.037 A 
HETATM    4  C   UNL     1      42.880 -14.248   4.757  1.00  0.00     0.029 A 
HETATM    5  C   UNL     1      43.445 -14.687   5.951  1.00  0.00     0.004 A 
HETATM    6  C   UNL     1      43.675 -16.047   6.151  1.00  0.00     0.029 A 
ENDROOT
BRANCH   3   7
HETATM    7  N   UNL     1      41.963 -14.633   2.585  1.00  0.00    -0.322 N 
HETATM    8  C   UNL     1      40.710 -14.865   2.050  1.00  0.00     0.274 C 
HETATM    9  O   UNL     1      39.800 -15.520   2.539  1.00  0.00    -0.266 OA
HETATM   10  H   UNL     1      42.532 -13.992   2.036  1.00  0.00     0.169 HD
BRANCH   8  11
HETATM   11  C   UNL     1      40.509 -14.191   0.725  1.00  0.00     0.126 A 
HETATM   12  N   UNL     1      41.053 -12.944   0.597  1.00  0.00    -0.255 NA
HETATM   13  C   UNL     1      40.900 -12.340  -0.602  1.00  0.00     0.119 A 
HETATM   14  C   UNL     1      40.231 -12.911  -1.668  1.00  0.00     0.043 A 
HETATM   15  C   UNL     1      39.687 -14.178  -1.493  1.00  0.00     0.037 A 
HETATM   16 CL   UNL     1      38.844 -14.927  -2.793  1.00  0.00    -0.084 Cl
HETATM   17  C   UNL     1      39.819 -14.843  -0.284  1.00  0.00     0.061 A 
ENDBRANCH   8  11
ENDBRANCH   3   7
BRANCH   1  18
HETATM   18  N   UNL     1      43.642 -18.332   5.439  1.00  0.00    -0.327 N 
HETATM   19  C   UNL     1      44.134 -19.289   4.571  1.00  0.00     0.218 C 
HETATM   20  C   UNL     1      44.313 -20.633   5.234  1.00  0.00     0.117 C 
HETATM   21  O   UNL     1      44.455 -19.133   3.400  1.00  0.00    -0.274 OA
HETATM   22  H   UNL     1      43.518 -18.616   6.401  1.00  0.00     0.169 HD
ENDBRANCH   1  18
TORSDOF 3
ENDMDL
MODEL 7
REMARK VINA RESULT:      -6.9      4.457      5.321
REMARK  3 active torsions:
REMARK  status: ('A' for Active; 'I' for Inactive)
REMARK       I    between atoms: C_2  and  N_3 
REMARK    1  A    between atoms: N_3  and  C_4 
REMARK    2  A    between atoms: C_6  and  N_7 
REMARK       I    between atoms: N_7  and  C_8 
REMARK    3  A    between atoms: C_8  and  C_9 
ROOT
HETATM    1  C   UNL     1      41.664 -12.648   5.304  1.00  0.00     0.036 A 
HETATM    2  C   UNL     1      41.853 -14.036   5.333  1.00  0.00     0.059 A 
HETATM    3  C   UNL     1      42.608 -14.675   4.340  1.00  0.00     0.037 A 
HETATM    4  C   UNL     1      43.173 -13.912   3.313  1.00  0.00     0.029 A 
HETATM    5  C   UNL     1      42.975 -12.535   3.264  1.00  0.00     0.004 A 
HETATM    6  C   UNL     1      42.221 -11.907   4.254  1.00  0.00     0.029 A 
ENDROOT
BRANCH   3   7
HETATM    7  N   UNL     1      42.863 -16.058   4.314  1.00  0.00    -0.322 N 
HETATM    8  C   UNL     1      43.781 -16.778   5.053  1.00  0.00     0.274 C 
HETATM    9  O   UNL     1      44.507 -16.364   5.948  1.00  0.00    -0.266 OA
HETATM   10  H   UNL     1      42.314 -16.628   3.674  1.00  0.00     0.169 HD
BRANCH   8  11
HETATM   11  C   UNL     1      43.827 -18.228   4.673  1.00  0.00     0.126 A 
HETATM   12  N   UNL     1      43.939 -19.116   5.705  1.00  0.00    -0.255 NA
HETATM   13  C   UNL     1      43.955 -20.426   5.375  1.00  0.00     0.119 A 
HETATM   14  C   UNL     1      43.871 -20.889   4.075  1.00  0.00     0.043 A 
HETATM   15  C   UNL     1      43.766 -19.951   3.055  1.00  0.00     0.037 A 
HETATM   16 CL   UNL     1      43.660 -20.483   1.421  1.00  0.00    -0.084 Cl
HETATM   17  C   UNL     1      43.741 -18.595   3.340  1.00  0.00     0.061 A 
ENDBRANCH   8  11
ENDBRANCH   3   7
BRANCH   1  18
HETATM   18  N   UNL     1      40.939 -11.923   6.275  1.00  0.00    -0.327 N 
HETATM   19  C   UNL     1      39.717 -11.294   6.124  1.00  0.00     0.218 C 
HETATM   20  C   UNL     1      39.260 -10.608   7.388  1.00  0.00     0.117 C 
HETATM   21  O   UNL     1      39.006 -11.286   5.128  1.00  0.00    -0.274 OA
HETATM   22  H   UNL     1      41.345 -11.904   7.201  1.00  0.00     0.169 HD
ENDBRANCH   1  18
TORSDOF 3
ENDMDL
MODEL 8
REMARK VINA RESULT:      -6.8      9.235     10.773
REMARK  3 active torsions:
REMARK  status: ('A' for Active; 'I' for Inactive)
REMARK       I    between atoms: C_2  and  N_3 
REMARK    1  A    between atoms: N_3  and  C_4 
REMARK    2  A    between atoms: C_6  and  N_7 
REMARK       I    between atoms: N_7  and  C_8 
REMARK    3  A    between atoms: C_8  and  C_9 
ROOT
HETATM    1  C   UNL     1      44.442 -11.515   6.377  1.00  0.00     0.036 A 
HETATM    2  C   UNL     1      43.571 -11.144   7.410  1.00  0.00     0.059 A 
HETATM    3  C   UNL     1      44.057 -10.500   8.557  1.00  0.00     0.037 A 
HETATM    4  C   UNL     1      45.425 -10.230   8.663  1.00  0.00     0.029 A 
HETATM    5  C   UNL     1      46.302 -10.612   7.651  1.00  0.00     0.004 A 
HETATM    6  C   UNL     1      45.812 -11.254   6.515  1.00  0.00     0.029 A 
ENDROOT
BRANCH   3   7
HETATM    7  N   UNL     1      43.244 -10.075   9.624  1.00  0.00    -0.322 N 
HETATM    8  C   UNL     1      43.264 -10.495  10.940  1.00  0.00     0.274 C 
HETATM    9  O   UNL     1      44.055 -11.268  11.464  1.00  0.00    -0.266 OA
HETATM   10  H   UNL     1      42.539  -9.367   9.429  1.00  0.00     0.169 HD
BRANCH   8  11
HETATM   11  C   UNL     1      42.173  -9.880  11.764  1.00  0.00     0.126 A 
HETATM   12  N   UNL     1      40.947  -9.789  11.168  1.00  0.00    -0.255 NA
HETATM   13  C   UNL     1      39.952  -9.260  11.911  1.00  0.00     0.119 A 
HETATM   14  C   UNL     1      40.119  -8.814  13.209  1.00  0.00     0.043 A 
HETATM   15  C   UNL     1      41.384  -8.917  13.775  1.00  0.00     0.037 A 
HETATM   16 CL   UNL     1      41.638  -8.373  15.388  1.00  0.00    -0.084 Cl
HETATM   17  C   UNL     1      42.439  -9.457  13.056  1.00  0.00     0.061 A 
ENDBRANCH   8  11
ENDBRANCH   3   7
BRANCH   1  18
HETATM   18  N   UNL     1      44.035 -12.145   5.181  1.00  0.00    -0.327 N 
HETATM   19  C   UNL     1      43.318 -11.593   4.136  1.00  0.00     0.218 C 
HETATM   20  C   UNL     1      43.062 -12.583   3.025  1.00  0.00     0.117 C 
HETATM   21  O   UNL     1      42.939 -10.435   4.027  1.00  0.00    -0.274 OA
HETATM   22  H   UNL     1      44.348 -13.099   5.060  1.00  0.00     0.169 HD
ENDBRANCH   1  18
TORSDOF 3
ENDMDL
MODEL 9
REMARK VINA RESULT:      -6.7      5.288      7.757
REMARK  3 active torsions:
REMARK  status: ('A' for Active; 'I' for Inactive)
REMARK       I    between atoms: C_2  and  N_3 
REMARK    1  A    between atoms: N_3  and  C_4 
REMARK    2  A    between atoms: C_6  and  N_7 
REMARK       I    between atoms: N_7  and  C_8 
REMARK    3  A    between atoms: C_8  and  C_9 
ROOT
HETATM    1  C   UNL     1      43.428 -17.271   4.068  1.00  0.00     0.036 A 
HETATM    2  C   UNL     1      42.524 -16.202   4.068  1.00  0.00     0.059 A 
HETATM    3  C   UNL     1      42.541 -15.252   5.099  1.00  0.00     0.037 A 
HETATM    4  C   UNL     1      43.473 -15.382   6.134  1.00  0.00     0.029 A 
HETATM    5  C   UNL     1      44.363 -16.453   6.154  1.00  0.00     0.004 A 
HETATM    6  C   UNL     1      44.338 -17.394   5.126  1.00  0.00     0.029 A 
ENDROOT
BRANCH   3   7
HETATM    7  N   UNL     1      41.683 -14.139   5.157  1.00  0.00    -0.322 N 
HETATM    8  C   UNL     1      40.477 -14.016   5.820  1.00  0.00     0.274 C 
HETATM    9  O   UNL     1      39.949 -14.831   6.565  1.00  0.00    -0.266 OA
HETATM   10  H   UNL     1      41.962 -13.300   4.653  1.00  0.00     0.169 HD
BRANCH   8  11
HETATM   11  C   UNL     1      39.804 -12.701   5.565  1.00  0.00     0.126 A 
HETATM   12  N   UNL     1      39.295 -12.064   6.661  1.00  0.00    -0.255 NA
HETATM   13  C   UNL     1      38.709 -10.866   6.446  1.00  0.00     0.119 A 
HETATM   14  C   UNL     1      38.602 -10.280   5.198  1.00  0.00     0.043 A 
HETATM   15  C   UNL     1      39.126 -10.965   4.108  1.00  0.00     0.037 A 
HETATM   16 CL   UNL     1      39.013 -10.274   2.536  1.00  0.00    -0.084 Cl
HETATM   17  C   UNL     1      39.741 -12.196   4.277  1.00  0.00     0.061 A 
ENDBRANCH   8  11
ENDBRANCH   3   7
BRANCH   1  18
HETATM   18  N   UNL     1      43.495 -18.257   3.059  1.00  0.00    -0.327 N 
HETATM   19  C   UNL     1      43.773 -19.603   3.208  1.00  0.00     0.218 C 
HETATM   20  C   UNL     1      43.765 -20.345   1.893  1.00  0.00     0.117 C 
HETATM   21  O   UNL     1      43.970 -20.208   4.254  1.00  0.00    -0.274 OA
HETATM   22  H   UNL     1      43.265 -17.945   2.125  1.00  0.00     0.169 HD
ENDBRANCH   1  18
TORSDOF 3
ENDMDL
MODEL 10
REMARK VINA RESULT:      -6.7      6.919      8.967
REMARK  3 active torsions:
REMARK  status: ('A' for Active; 'I' for Inactive)
REMARK       I    between atoms: C_2  and  N_3 
REMARK    1  A    between atoms: N_3  and  C_4 
REMARK    2  A    between atoms: C_6  and  N_7 
REMARK       I    between atoms: N_7  and  C_8 
REMARK    3  A    between atoms: C_8  and  C_9 
ROOT
HETATM    1  C   UNL     1      44.469  -9.139   8.775  1.00  0.00     0.036 A 
HETATM    2  C   UNL     1      43.870 -10.328   8.342  1.00  0.00     0.059 A 
HETATM    3  C   UNL     1      44.600 -11.269   7.602  1.00  0.00     0.037 A 
HETATM    4  C   UNL     1      45.940 -11.008   7.296  1.00  0.00     0.029 A 
HETATM    5  C   UNL     1      46.540  -9.819   7.705  1.00  0.00     0.004 A 
HETATM    6  C   UNL     1      45.806  -8.889   8.439  1.00  0.00     0.029 A 
ENDROOT
BRANCH   3   7
HETATM    7  N   UNL     1      44.077 -12.495   7.153  1.00  0.00    -0.322 N 
HETATM    8  C   UNL     1      43.401 -12.763   5.978  1.00  0.00     0.274 C 
HETATM    9  O   UNL     1      43.193 -11.997   5.046  1.00  0.00    -0.266 OA
HETATM   10  H   UNL     1      44.196 -13.308   7.753  1.00  0.00     0.169 HD
BRANCH   8  11
HETATM   11  C   UNL     1      42.910 -14.177   5.898  1.00  0.00     0.126 A 
HETATM   12  N   UNL     1      42.484 -14.732   7.071  1.00  0.00    -0.255 NA
HETATM   13  C   UNL     1      42.016 -15.998   7.005  1.00  0.00     0.119 A 
HETATM   14  C   UNL     1      41.957 -16.733   5.836  1.00  0.00     0.043 A 
HETATM   15  C   UNL     1      42.407 -16.133   4.666  1.00  0.00     0.037 A 
HETATM   16 CL   UNL     1      42.355 -17.011   3.187  1.00  0.00    -0.084 Cl
HETATM   17  C   UNL     1      42.894 -14.835   4.679  1.00  0.00     0.061 A 
ENDBRANCH   8  11
ENDBRANCH   3   7
BRANCH   1  18
HETATM   18  N   UNL     1      43.815  -8.152   9.543  1.00  0.00    -0.327 N 
HETATM   19  C   UNL     1      43.144  -7.032   9.087  1.00  0.00     0.218 C 
HETATM   20  C   UNL     1      42.578  -6.199  10.212  1.00  0.00     0.117 C 
HETATM   21  O   UNL     1      42.949  -6.708   7.923  1.00  0.00    -0.274 OA
HETATM   22  H   UNL     1      43.799  -8.312  10.541  1.00  0.00     0.169 HD
ENDBRANCH   1  18
TORSDOF 3
ENDMDL
