MODEL 1
REMARK VINA RESULT:      -8.0      0.000      0.000
REMARK  6 active torsions:
REMARK  status: ('A' for Active; 'I' for Inactive)
REMARK    1  A    between atoms: C_6  and  O_7 
REMARK    2  A    between atoms: C_8  and  C_9 
REMARK    3  A    between atoms: C_9  and  N_10 
REMARK    4  A    between atoms: N_10  and  C_12 
REMARK    5  A    between atoms: C_12  and  C_13 
REMARK    6  A    between atoms: C_12  and  C_16 
REMARK       I    between atoms: C_13  and  N_14 
ROOT
HETATM    1  N   UNL     1      41.197 -15.332   3.906  1.00  0.00    -0.054 N 
HETATM    2  H   UNL     1      41.020 -16.105   4.563  1.00  0.00     0.281 HD
HETATM    3  C   UNL     1      40.321 -15.499   2.698  1.00  0.00     0.271 C 
ENDROOT
BRANCH   1   4
HETATM    4  C   UNL     1      42.665 -15.537   3.558  1.00  0.00     0.277 C 
BRANCH   4   5
HETATM    5  C   UNL     1      43.140 -16.921   3.909  1.00  0.00     0.001 A 
HETATM    6  C   UNL     1      43.381 -17.279   5.237  1.00  0.00     0.074 A 
HETATM    7  C   UNL     1      43.775 -18.570   5.578  1.00  0.00     0.044 A 
HETATM    8  C   UNL     1      43.924 -19.546   4.581  1.00  0.00    -0.053 A 
HETATM    9  C   UNL     1      43.711 -19.198   3.232  1.00  0.00    -0.055 A 
HETATM   10  C   UNL     1      44.327 -20.944   4.974  1.00  0.00     0.049 C 
HETATM   11  C   UNL     1      43.842 -20.214   2.126  1.00  0.00     0.049 C 
HETATM   12  C   UNL     1      43.318 -17.888   2.910  1.00  0.00     0.019 A 
BRANCH   6  13
HETATM   13  O   UNL     1      43.166 -16.337   6.209  1.00  0.00    -0.360 OA
HETATM   14  H   UNL     1      42.307 -15.908   6.016  1.00  0.00     0.217 HD
ENDBRANCH   6  13
ENDBRANCH   4   5
ENDBRANCH   1   4
BRANCH   1  15
HETATM   15  C   UNL     1      40.974 -14.022   4.678  1.00  0.00     0.312 C 
BRANCH  15  16
HETATM   16  C   UNL     1      40.198 -14.311   5.999  1.00  0.00     0.251 C 
HETATM   17  N   UNL     1      40.099 -15.607   6.429  1.00  0.00    -0.368 N 
HETATM   18  H   UNL     1      40.777 -16.321   6.186  1.00  0.00     0.159 HD
HETATM   19  H   UNL     1      39.618 -15.747   7.313  1.00  0.00     0.159 HD
HETATM   20  O   UNL     1      39.547 -13.433   6.562  1.00  0.00    -0.271 OA
ENDBRANCH  15  16
BRANCH  15  21
HETATM   21  C   UNL     1      42.211 -13.135   4.857  1.00  0.00    -0.016 A 
HETATM   22  C   UNL     1      42.950 -13.076   6.050  1.00  0.00     0.052 A 
HETATM   23  C   UNL     1      44.078 -12.259   6.148  1.00  0.00     0.117 A 
HETATM   24  F   UNL     1      44.745 -12.213   7.306  1.00  0.00    -0.206 F 
HETATM   25  C   UNL     1      44.512 -11.500   5.074  1.00  0.00     0.042 A 
HETATM   26  C   UNL     1      43.821 -11.572   3.870  1.00  0.00     0.004 A 
HETATM   27  C   UNL     1      42.693 -12.391   3.758  1.00  0.00     0.010 A 
ENDBRANCH  15  21
ENDBRANCH   1  15
TORSDOF 6
ENDMDL
MODEL 2
REMARK VINA RESULT:      -7.3      3.309      4.296
REMARK  6 active torsions:
REMARK  status: ('A' for Active; 'I' for Inactive)
REMARK    1  A    between atoms: C_6  and  O_7 
REMARK    2  A    between atoms: C_8  and  C_9 
REMARK    3  A    between atoms: C_9  and  N_10 
REMARK    4  A    between atoms: N_10  and  C_12 
REMARK    5  A    between atoms: C_12  and  C_13 
REMARK    6  A    between atoms: C_12  and  C_16 
REMARK       I    between atoms: C_13  and  N_14 
ROOT
HETATM    1  N   UNL     1      41.396 -14.845   3.188  1.00  0.00    -0.054 N 
HETATM    2  H   UNL     1      41.655 -14.921   4.181  1.00  0.00     0.281 HD
HETATM    3  C   UNL     1      40.224 -15.743   2.911  1.00  0.00     0.271 C 
ENDROOT
BRANCH   1   4
HETATM    4  C   UNL     1      42.652 -15.343   2.488  1.00  0.00     0.277 C 
BRANCH   4   5
HETATM    5  C   UNL     1      43.139 -16.646   3.063  1.00  0.00     0.001 A 
HETATM    6  C   UNL     1      43.524 -16.737   4.401  1.00  0.00     0.074 A 
HETATM    7  C   UNL     1      43.931 -17.947   4.956  1.00  0.00     0.044 A 
HETATM    8  C   UNL     1      43.947 -19.110   4.171  1.00  0.00    -0.053 A 
HETATM    9  C   UNL     1      43.587 -19.034   2.810  1.00  0.00    -0.055 A 
HETATM   10  C   UNL     1      44.366 -20.415   4.798  1.00  0.00     0.049 C 
HETATM   11  C   UNL     1      43.572 -20.257   1.930  1.00  0.00     0.049 C 
HETATM   12  C   UNL     1      43.184 -17.801   2.271  1.00  0.00     0.019 A 
BRANCH   6  13
HETATM   13  O   UNL     1      43.439 -15.610   5.176  1.00  0.00    -0.360 OA
HETATM   14  H   UNL     1      44.310 -15.163   5.140  1.00  0.00     0.217 HD
ENDBRANCH   6  13
ENDBRANCH   4   5
ENDBRANCH   1   4
BRANCH   1  15
HETATM   15  C   UNL     1      41.138 -13.357   2.901  1.00  0.00     0.312 C 
BRANCH  15  16
HETATM   16  C   UNL     1      42.439 -12.535   3.154  1.00  0.00     0.251 C 
HETATM   17  N   UNL     1      43.050 -12.640   4.374  1.00  0.00    -0.368 N 
HETATM   18  H   UNL     1      42.957 -13.456   4.969  1.00  0.00     0.159 HD
HETATM   19  H   UNL     1      43.916 -12.119   4.484  1.00  0.00     0.159 HD
HETATM   20  O   UNL     1      42.825 -11.688   2.351  1.00  0.00    -0.271 OA
ENDBRANCH  15  16
BRANCH  15  21
HETATM   21  C   UNL     1      40.447 -13.045   1.569  1.00  0.00    -0.016 A 
HETATM   22  C   UNL     1      40.833 -13.622   0.348  1.00  0.00     0.052 A 
HETATM   23  C   UNL     1      40.155 -13.310  -0.832  1.00  0.00     0.117 A 
HETATM   24  F   UNL     1      40.565 -13.863  -1.979  1.00  0.00    -0.206 F 
HETATM   25  C   UNL     1      39.076 -12.441  -0.834  1.00  0.00     0.042 A 
HETATM   26  C   UNL     1      38.649 -11.889   0.368  1.00  0.00     0.004 A 
HETATM   27  C   UNL     1      39.317 -12.199   1.558  1.00  0.00     0.010 A 
ENDBRANCH  15  21
ENDBRANCH   1  15
TORSDOF 6
ENDMDL
MODEL 3
REMARK VINA RESULT:      -7.3      3.619      6.707
REMARK  6 active torsions:
REMARK  status: ('A' for Active; 'I' for Inactive)
REMARK    1  A    between atoms: C_6  and  O_7 
REMARK    2  A    between atoms: C_8  and  C_9 
REMARK    3  A    between atoms: C_9  and  N_10 
REMARK    4  A    between atoms: N_10  and  C_12 
REMARK    5  A    between atoms: C_12  and  C_13 
REMARK    6  A    between atoms: C_12  and  C_16 
REMARK       I    between atoms: C_13  and  N_14 
ROOT
HETATM    1  N   UNL     1      41.789 -14.684   2.486  1.00  0.00    -0.054 N 
HETATM    2  H   UNL     1      41.409 -13.751   2.701  1.00  0.00     0.281 HD
HETATM    3  C   UNL     1      42.989 -14.536   1.594  1.00  0.00     0.271 C 
ENDROOT
BRANCH   1   4
HETATM    4  C   UNL     1      40.630 -15.340   1.748  1.00  0.00     0.277 C 
BRANCH   4   5
HETATM    5  C   UNL     1      39.979 -14.400   0.770  1.00  0.00     0.001 A 
HETATM    6  C   UNL     1      39.582 -13.121   1.162  1.00  0.00     0.074 A 
HETATM    7  C   UNL     1      39.023 -12.226   0.254  1.00  0.00     0.044 A 
HETATM    8  C   UNL     1      38.861 -12.597  -1.089  1.00  0.00    -0.053 A 
HETATM    9  C   UNL     1      39.231 -13.894  -1.501  1.00  0.00    -0.055 A 
HETATM   10  C   UNL     1      38.277 -11.605  -2.061  1.00  0.00     0.049 C 
HETATM   11  C   UNL     1      39.092 -14.335  -2.935  1.00  0.00     0.049 C 
HETATM   12  C   UNL     1      39.789 -14.781  -0.566  1.00  0.00     0.019 A 
BRANCH   6  13
HETATM   13  O   UNL     1      39.809 -12.744   2.461  1.00  0.00    -0.360 OA
HETATM   14  H   UNL     1      39.887 -11.768   2.473  1.00  0.00     0.217 HD
ENDBRANCH   6  13
ENDBRANCH   4   5
ENDBRANCH   1   4
BRANCH   1  15
HETATM   15  C   UNL     1      42.075 -15.377   3.827  1.00  0.00     0.312 C 
BRANCH  15  16
HETATM   16  C   UNL     1      40.773 -15.429   4.684  1.00  0.00     0.251 C 
HETATM   17  N   UNL     1      40.215 -14.250   5.097  1.00  0.00    -0.368 N 
HETATM   18  H   UNL     1      40.346 -13.375   4.600  1.00  0.00     0.159 HD
HETATM   19  H   UNL     1      39.347 -14.327   5.620  1.00  0.00     0.159 HD
HETATM   20  O   UNL     1      40.341 -16.493   5.124  1.00  0.00    -0.271 OA
ENDBRANCH  15  16
BRANCH  15  21
HETATM   21  C   UNL     1      42.824 -16.711   3.741  1.00  0.00    -0.016 A 
HETATM   22  C   UNL     1      42.674 -17.611   2.672  1.00  0.00     0.052 A 
HETATM   23  C   UNL     1      43.396 -18.805   2.642  1.00  0.00     0.117 A 
HETATM   24  F   UNL     1      43.212 -19.647   1.618  1.00  0.00    -0.206 F 
HETATM   25  C   UNL     1      44.291 -19.132   3.648  1.00  0.00     0.042 A 
HETATM   26  C   UNL     1      44.486 -18.240   4.696  1.00  0.00     0.004 A 
HETATM   27  C   UNL     1      43.773 -17.037   4.734  1.00  0.00     0.010 A 
ENDBRANCH  15  21
ENDBRANCH   1  15
TORSDOF 6
ENDMDL
MODEL 4
REMARK VINA RESULT:      -7.2      2.406      3.026
REMARK  6 active torsions:
REMARK  status: ('A' for Active; 'I' for Inactive)
REMARK    1  A    between atoms: C_6  and  O_7 
REMARK    2  A    between atoms: C_8  and  C_9 
REMARK    3  A    between atoms: C_9  and  N_10 
REMARK    4  A    between atoms: N_10  and  C_12 
REMARK    5  A    between atoms: C_12  and  C_13 
REMARK    6  A    between atoms: C_12  and  C_16 
REMARK       I    between atoms: C_13  and  N_14 
ROOT
HETATM    1  N   UNL     1      41.590 -14.882   2.185  1.00  0.00    -0.054 N 
HETATM    2  H   UNL     1      41.709 -14.984   3.203  1.00  0.00     0.281 HD
HETATM    3  C   UNL     1      40.316 -15.558   1.765  1.00  0.00     0.271 C 
ENDROOT
BRANCH   1   4
HETATM    4  C   UNL     1      42.810 -15.615   1.645  1.00  0.00     0.277 C 
BRANCH   4   5
HETATM    5  C   UNL     1      43.211 -16.769   2.524  1.00  0.00     0.001 A 
HETATM    6  C   UNL     1      43.454 -16.579   3.886  1.00  0.00     0.074 A 
HETATM    7  C   UNL     1      43.779 -17.646   4.718  1.00  0.00     0.044 A 
HETATM    8  C   UNL     1      43.854 -18.947   4.197  1.00  0.00    -0.053 A 
HETATM    9  C   UNL     1      43.638 -19.156   2.820  1.00  0.00    -0.055 A 
HETATM   10  C   UNL     1      44.182 -20.091   5.120  1.00  0.00     0.049 C 
HETATM   11  C   UNL     1      43.692 -20.535   2.214  1.00  0.00     0.049 C 
HETATM   12  C   UNL     1      43.316 -18.063   1.998  1.00  0.00     0.019 A 
BRANCH   6  13
HETATM   13  O   UNL     1      43.310 -15.316   4.397  1.00  0.00    -0.360 OA
HETATM   14  H   UNL     1      42.384 -15.227   4.704  1.00  0.00     0.217 HD
ENDBRANCH   6  13
ENDBRANCH   4   5
ENDBRANCH   1   4
BRANCH   1  15
HETATM   15  C   UNL     1      41.645 -13.379   1.871  1.00  0.00     0.312 C 
BRANCH  15  16
HETATM   16  C   UNL     1      40.660 -13.044   0.710  1.00  0.00     0.251 C 
HETATM   17  N   UNL     1      41.104 -13.163  -0.579  1.00  0.00    -0.368 N 
HETATM   18  H   UNL     1      41.857 -13.788  -0.846  1.00  0.00     0.159 HD
HETATM   19  H   UNL     1      40.418 -12.973  -1.305  1.00  0.00     0.159 HD
HETATM   20  O   UNL     1      39.566 -12.527   0.931  1.00  0.00    -0.271 OA
ENDBRANCH  15  16
BRANCH  15  21
HETATM   21  C   UNL     1      41.536 -12.442   3.078  1.00  0.00    -0.016 A 
HETATM   22  C   UNL     1      40.830 -12.771   4.247  1.00  0.00     0.052 A 
HETATM   23  C   UNL     1      40.779 -11.881   5.321  1.00  0.00     0.117 A 
HETATM   24  F   UNL     1      40.080 -12.220   6.410  1.00  0.00    -0.206 F 
HETATM   25  C   UNL     1      41.432 -10.660   5.277  1.00  0.00     0.042 A 
HETATM   26  C   UNL     1      42.171 -10.328   4.148  1.00  0.00     0.004 A 
HETATM   27  C   UNL     1      42.235 -11.214   3.067  1.00  0.00     0.010 A 
ENDBRANCH  15  21
ENDBRANCH   1  15
TORSDOF 6
ENDMDL
MODEL 5
REMARK VINA RESULT:      -7.1      3.294      6.902
REMARK  6 active torsions:
REMARK  status: ('A' for Active; 'I' for Inactive)
REMARK    1  A    between atoms: C_6  and  O_7 
REMARK    2  A    between atoms: C_8  and  C_9 
REMARK    3  A    between atoms: C_9  and  N_10 
REMARK    4  A    between atoms: N_10  and  C_12 
REMARK    5  A    between atoms: C_12  and  C_13 
REMARK    6  A    between atoms: C_12  and  C_16 
REMARK       I    between atoms: C_13  and  N_14 
ROOT
HETATM    1  N   UNL     1      42.311 -16.075   3.866  1.00  0.00    -0.054 N 
HETATM    2  H   UNL     1      42.266 -16.325   2.868  1.00  0.00     0.281 HD
HETATM    3  C   UNL     1      41.001 -16.412   4.520  1.00  0.00     0.271 C 
ENDROOT
BRANCH   1   4
HETATM    4  C   UNL     1      42.531 -14.570   3.811  1.00  0.00     0.277 C 
BRANCH   4   5
HETATM    5  C   UNL     1      41.640 -13.906   2.796  1.00  0.00     0.001 A 
HETATM    6  C   UNL     1      41.708 -14.257   1.447  1.00  0.00     0.074 A 
HETATM    7  C   UNL     1      40.856 -13.684   0.507  1.00  0.00     0.044 A 
HETATM    8  C   UNL     1      39.896 -12.743   0.909  1.00  0.00    -0.053 A 
HETATM    9  C   UNL     1      39.829 -12.356   2.263  1.00  0.00    -0.055 A 
HETATM   10  C   UNL     1      38.967 -12.154  -0.120  1.00  0.00     0.049 C 
HETATM   11  C   UNL     1      38.805 -11.362   2.748  1.00  0.00     0.049 C 
HETATM   12  C   UNL     1      40.701 -12.944   3.193  1.00  0.00     0.019 A 
BRANCH   6  13
HETATM   13  O   UNL     1      42.602 -15.226   1.076  1.00  0.00    -0.360 OA
HETATM   14  H   UNL     1      43.106 -14.883   0.309  1.00  0.00     0.217 HD
ENDBRANCH   6  13
ENDBRANCH   4   5
ENDBRANCH   1   4
BRANCH   1  15
HETATM   15  C   UNL     1      43.525 -16.806   4.460  1.00  0.00     0.312 C 
BRANCH  15  16
HETATM   16  C   UNL     1      43.629 -16.506   5.987  1.00  0.00     0.251 C 
HETATM   17  N   UNL     1      44.843 -16.141   6.500  1.00  0.00    -0.368 N 
HETATM   18  H   UNL     1      45.564 -15.694   5.944  1.00  0.00     0.159 HD
HETATM   19  H   UNL     1      44.858 -15.917   7.492  1.00  0.00     0.159 HD
HETATM   20  O   UNL     1      42.694 -16.747   6.749  1.00  0.00    -0.271 OA
ENDBRANCH  15  16
BRANCH  15  21
HETATM   21  C   UNL     1      43.651 -18.290   4.101  1.00  0.00    -0.016 A 
HETATM   22  C   UNL     1      43.486 -18.783   2.796  1.00  0.00     0.052 A 
HETATM   23  C   UNL     1      43.628 -20.146   2.527  1.00  0.00     0.117 A 
HETATM   24  F   UNL     1      43.444 -20.581   1.276  1.00  0.00    -0.206 F 
HETATM   25  C   UNL     1      43.950 -21.048   3.528  1.00  0.00     0.042 A 
HETATM   26  C   UNL     1      44.158 -20.579   4.820  1.00  0.00     0.004 A 
HETATM   27  C   UNL     1      44.024 -19.215   5.101  1.00  0.00     0.010 A 
ENDBRANCH  15  21
ENDBRANCH   1  15
TORSDOF 6
ENDMDL
MODEL 6
REMARK VINA RESULT:      -7.0      3.106      6.139
REMARK  6 active torsions:
REMARK  status: ('A' for Active; 'I' for Inactive)
REMARK    1  A    between atoms: C_6  and  O_7 
REMARK    2  A    between atoms: C_8  and  C_9 
REMARK    3  A    between atoms: C_9  and  N_10 
REMARK    4  A    between atoms: N_10  and  C_12 
REMARK    5  A    between atoms: C_12  and  C_13 
REMARK    6  A    between atoms: C_12  and  C_16 
REMARK       I    between atoms: C_13  and  N_14 
ROOT
HETATM    1  N   UNL     1      41.646 -14.151   4.345  1.00  0.00    -0.054 N 
HETATM    2  H   UNL     1      41.304 -14.682   3.533  1.00  0.00     0.281 HD
HETATM    3  C   UNL     1      40.486 -13.807   5.237  1.00  0.00     0.271 C 
ENDROOT
BRANCH   1   4
HETATM    4  C   UNL     1      42.230 -12.905   3.692  1.00  0.00     0.277 C 
BRANCH   4   5
HETATM    5  C   UNL     1      41.659 -12.667   2.320  1.00  0.00     0.001 A 
HETATM    6  C   UNL     1      41.791 -11.426   1.696  1.00  0.00     0.074 A 
HETATM    7  C   UNL     1      41.309 -11.209   0.409  1.00  0.00     0.044 A 
HETATM    8  C   UNL     1      40.689 -12.252  -0.295  1.00  0.00    -0.053 A 
HETATM    9  C   UNL     1      40.522 -13.506   0.327  1.00  0.00    -0.055 A 
HETATM   10  C   UNL     1      40.197 -12.003  -1.697  1.00  0.00     0.049 C 
HETATM   11  C   UNL     1      39.878 -14.663  -0.392  1.00  0.00     0.049 C 
HETATM   12  C   UNL     1      41.013 -13.701   1.629  1.00  0.00     0.019 A 
BRANCH   6  13
HETATM   13  O   UNL     1      42.459 -10.434   2.366  1.00  0.00    -0.360 OA
HETATM   14  H   UNL     1      41.786  -9.850   2.772  1.00  0.00     0.217 HD
ENDBRANCH   6  13
ENDBRANCH   4   5
ENDBRANCH   1   4
BRANCH   1  15
HETATM   15  C   UNL     1      42.734 -15.003   5.018  1.00  0.00     0.312 C 
BRANCH  15  16
HETATM   16  C   UNL     1      42.405 -15.183   6.531  1.00  0.00     0.251 C 
HETATM   17  N   UNL     1      43.027 -14.367   7.437  1.00  0.00    -0.368 N 
HETATM   18  H   UNL     1      43.374 -13.444   7.199  1.00  0.00     0.159 HD
HETATM   19  H   UNL     1      42.755 -14.492   8.408  1.00  0.00     0.159 HD
HETATM   20  O   UNL     1      41.736 -16.135   6.929  1.00  0.00    -0.271 OA
ENDBRANCH  15  16
BRANCH  15  21
HETATM   21  C   UNL     1      43.103 -16.302   4.295  1.00  0.00    -0.016 A 
HETATM   22  C   UNL     1      43.874 -17.319   4.884  1.00  0.00     0.052 A 
HETATM   23  C   UNL     1      44.166 -18.488   4.180  1.00  0.00     0.117 A 
HETATM   24  F   UNL     1      44.919 -19.426   4.766  1.00  0.00    -0.206 F 
HETATM   25  C   UNL     1      43.694 -18.691   2.893  1.00  0.00     0.042 A 
HETATM   26  C   UNL     1      42.896 -17.718   2.303  1.00  0.00     0.004 A 
HETATM   27  C   UNL     1      42.592 -16.544   3.001  1.00  0.00     0.010 A 
ENDBRANCH  15  21
ENDBRANCH   1  15
TORSDOF 6
ENDMDL
MODEL 7
REMARK VINA RESULT:      -7.0      3.638      6.406
REMARK  6 active torsions:
REMARK  status: ('A' for Active; 'I' for Inactive)
REMARK    1  A    between atoms: C_6  and  O_7 
REMARK    2  A    between atoms: C_8  and  C_9 
REMARK    3  A    between atoms: C_9  and  N_10 
REMARK    4  A    between atoms: N_10  and  C_12 
REMARK    5  A    between atoms: C_12  and  C_13 
REMARK    6  A    between atoms: C_12  and  C_16 
REMARK       I    between atoms: C_13  and  N_14 
ROOT
HETATM    1  N   UNL     1      40.852 -14.459   3.172  1.00  0.00    -0.054 N 
HETATM    2  H   UNL     1      40.351 -15.258   2.762  1.00  0.00     0.281 HD
HETATM    3  C   UNL     1      39.871 -13.363   3.477  1.00  0.00     0.271 C 
ENDROOT
BRANCH   1   4
HETATM    4  C   UNL     1      41.797 -14.059   2.047  1.00  0.00     0.277 C 
BRANCH   4   5
HETATM    5  C   UNL     1      41.063 -13.805   0.758  1.00  0.00     0.001 A 
HETATM    6  C   UNL     1      40.182 -14.755   0.238  1.00  0.00     0.074 A 
HETATM    7  C   UNL     1      39.463 -14.511  -0.928  1.00  0.00     0.044 A 
HETATM    8  C   UNL     1      39.604 -13.287  -1.599  1.00  0.00    -0.053 A 
HETATM    9  C   UNL     1      40.508 -12.325  -1.105  1.00  0.00    -0.055 A 
HETATM   10  C   UNL     1      38.797 -13.034  -2.846  1.00  0.00     0.049 C 
HETATM   11  C   UNL     1      40.683 -10.989  -1.779  1.00  0.00     0.049 C 
HETATM   12  C   UNL     1      41.227 -12.594   0.072  1.00  0.00     0.019 A 
BRANCH   6  13
HETATM   13  O   UNL     1      40.001 -15.919   0.938  1.00  0.00    -0.360 OA
HETATM   14  H   UNL     1      40.878 -16.199   1.274  1.00  0.00     0.217 HD
ENDBRANCH   6  13
ENDBRANCH   4   5
ENDBRANCH   1   4
BRANCH   1  15
HETATM   15  C   UNL     1      41.618 -14.985   4.397  1.00  0.00     0.312 C 
BRANCH  15  16
HETATM   16  C   UNL     1      40.650 -15.108   5.614  1.00  0.00     0.251 C 
HETATM   17  N   UNL     1      39.803 -16.181   5.669  1.00  0.00    -0.368 N 
HETATM   18  H   UNL     1      40.002 -17.064   5.211  1.00  0.00     0.159 HD
HETATM   19  H   UNL     1      39.217 -16.243   6.497  1.00  0.00     0.159 HD
HETATM   20  O   UNL     1      40.524 -14.191   6.423  1.00  0.00    -0.271 OA
ENDBRANCH  15  16
BRANCH  15  21
HETATM   21  C   UNL     1      42.487 -16.224   4.157  1.00  0.00    -0.016 A 
HETATM   22  C   UNL     1      42.370 -17.038   3.018  1.00  0.00     0.052 A 
HETATM   23  C   UNL     1      43.200 -18.146   2.848  1.00  0.00     0.117 A 
HETATM   24  F   UNL     1      43.046 -18.910   1.760  1.00  0.00    -0.206 F 
HETATM   25  C   UNL     1      44.173 -18.468   3.781  1.00  0.00     0.042 A 
HETATM   26  C   UNL     1      44.335 -17.656   4.896  1.00  0.00     0.004 A 
HETATM   27  C   UNL     1      43.512 -16.538   5.075  1.00  0.00     0.010 A 
ENDBRANCH  15  21
ENDBRANCH   1  15
TORSDOF 6
ENDMDL
MODEL 8
REMARK VINA RESULT:      -6.9      2.455      3.524
REMARK  6 active torsions:
REMARK  status: ('A' for Active; 'I' for Inactive)
REMARK    1  A    between atoms: C_6  and  O_7 
REMARK    2  A    between atoms: C_8  and  C_9 
REMARK    3  A    between atoms: C_9  and  N_10 
REMARK    4  A    between atoms: N_10  and  C_12 
REMARK    5  A    between atoms: C_12  and  C_13 
REMARK    6  A    between atoms: C_12  and  C_16 
REMARK       I    between atoms: C_13  and  N_14 
ROOT
HETATM    1  N   UNL     1      42.377 -13.264   4.260  1.00  0.00    -0.054 N 
HETATM    2  H   UNL     1      42.656 -13.897   5.023  1.00  0.00     0.281 HD
HETATM    3  C   UNL     1      40.950 -12.841   4.463  1.00  0.00     0.271 C 
ENDROOT
BRANCH   1   4
HETATM    4  C   UNL     1      42.521 -14.157   3.035  1.00  0.00     0.277 C 
BRANCH   4   5
HETATM    5  C   UNL     1      42.914 -15.562   3.403  1.00  0.00     0.001 A 
HETATM    6  C   UNL     1      43.233 -16.497   2.417  1.00  0.00     0.074 A 
HETATM    7  C   UNL     1      43.643 -17.785   2.748  1.00  0.00     0.044 A 
HETATM    8  C   UNL     1      43.758 -18.163   4.094  1.00  0.00    -0.053 A 
HETATM    9  C   UNL     1      43.416 -17.241   5.105  1.00  0.00    -0.055 A 
HETATM   10  C   UNL     1      44.229 -19.554   4.431  1.00  0.00     0.049 C 
HETATM   11  C   UNL     1      43.538 -17.592   6.565  1.00  0.00     0.049 C 
HETATM   12  C   UNL     1      43.000 -15.948   4.748  1.00  0.00     0.019 A 
BRANCH   6  13
HETATM   13  O   UNL     1      43.183 -16.097   1.107  1.00  0.00    -0.360 OA
HETATM   14  H   UNL     1      43.522 -15.178   1.068  1.00  0.00     0.217 HD
ENDBRANCH   6  13
ENDBRANCH   4   5
ENDBRANCH   1   4
BRANCH   1  15
HETATM   15  C   UNL     1      43.387 -12.106   4.240  1.00  0.00     0.312 C 
BRANCH  15  16
HETATM   16  C   UNL     1      42.789 -10.895   3.462  1.00  0.00     0.251 C 
HETATM   17  N   UNL     1      42.269  -9.851   4.177  1.00  0.00    -0.368 N 
HETATM   18  H   UNL     1      42.568  -9.626   5.120  1.00  0.00     0.159 HD
HETATM   19  H   UNL     1      41.924  -9.065   3.631  1.00  0.00     0.159 HD
HETATM   20  O   UNL     1      42.631 -10.935   2.243  1.00  0.00    -0.271 OA
ENDBRANCH  15  16
BRANCH  15  21
HETATM   21  C   UNL     1      44.007 -11.740   5.593  1.00  0.00    -0.016 A 
HETATM   22  C   UNL     1      45.367 -11.431   5.759  1.00  0.00     0.052 A 
HETATM   23  C   UNL     1      45.871 -11.090   7.015  1.00  0.00     0.117 A 
HETATM   24  F   UNL     1      47.176 -10.821   7.138  1.00  0.00    -0.206 F 
HETATM   25  C   UNL     1      45.049 -11.028   8.128  1.00  0.00     0.042 A 
HETATM   26  C   UNL     1      43.691 -11.290   7.983  1.00  0.00     0.004 A 
HETATM   27  C   UNL     1      43.174 -11.628   6.727  1.00  0.00     0.010 A 
ENDBRANCH  15  21
ENDBRANCH   1  15
TORSDOF 6
ENDMDL
MODEL 9
REMARK VINA RESULT:      -6.7     14.637     15.927
REMARK  6 active torsions:
REMARK  status: ('A' for Active; 'I' for Inactive)
REMARK    1  A    between atoms: C_6  and  O_7 
REMARK    2  A    between atoms: C_8  and  C_9 
REMARK    3  A    between atoms: C_9  and  N_10 
REMARK    4  A    between atoms: N_10  and  C_12 
REMARK    5  A    between atoms: C_12  and  C_13 
REMARK    6  A    between atoms: C_12  and  C_16 
REMARK       I    between atoms: C_13  and  N_14 
ROOT
HETATM    1  N   UNL     1      45.179 -30.783   0.770  1.00  0.00    -0.054 N 
HETATM    2  H   UNL     1      45.199 -30.385   1.720  1.00  0.00     0.281 HD
HETATM    3  C   UNL     1      45.077 -32.279   0.863  1.00  0.00     0.271 C 
ENDROOT
BRANCH   1   4
HETATM    4  C   UNL     1      46.529 -30.353   0.214  1.00  0.00     0.277 C 
BRANCH   4   5
HETATM    5  C   UNL     1      47.573 -30.236   1.292  1.00  0.00     0.001 A 
HETATM    6  C   UNL     1      47.590 -29.138   2.154  1.00  0.00     0.074 A 
HETATM    7  C   UNL     1      48.520 -29.042   3.184  1.00  0.00     0.044 A 
HETATM    8  C   UNL     1      49.457 -30.067   3.383  1.00  0.00    -0.053 A 
HETATM    9  C   UNL     1      49.474 -31.172   2.508  1.00  0.00    -0.055 A 
HETATM   10  C   UNL     1      50.439 -29.955   4.521  1.00  0.00     0.049 C 
HETATM   11  C   UNL     1      50.449 -32.306   2.689  1.00  0.00     0.049 C 
HETATM   12  C   UNL     1      48.528 -31.245   1.472  1.00  0.00     0.019 A 
BRANCH   6  13
HETATM   13  O   UNL     1      46.627 -28.176   1.993  1.00  0.00    -0.360 OA
HETATM   14  H   UNL     1      45.757 -28.606   2.129  1.00  0.00     0.217 HD
ENDBRANCH   6  13
ENDBRANCH   4   5
ENDBRANCH   1   4
BRANCH   1  15
HETATM   15  C   UNL     1      44.016 -30.111   0.022  1.00  0.00     0.312 C 
BRANCH  15  16
HETATM   16  C   UNL     1      43.243 -29.162   0.988  1.00  0.00     0.251 C 
HETATM   17  N   UNL     1      43.823 -28.831   2.182  1.00  0.00    -0.368 N 
HETATM   18  H   UNL     1      44.828 -28.835   2.327  1.00  0.00     0.159 HD
HETATM   19  H   UNL     1      43.303 -28.180   2.764  1.00  0.00     0.159 HD
HETATM   20  O   UNL     1      42.075 -28.845   0.771  1.00  0.00    -0.271 OA
ENDBRANCH  15  16
BRANCH  15  21
HETATM   21  C   UNL     1      44.369 -29.481  -1.329  1.00  0.00    -0.016 A 
HETATM   22  C   UNL     1      43.950 -30.014  -2.560  1.00  0.00     0.052 A 
HETATM   23  C   UNL     1      44.291 -29.386  -3.759  1.00  0.00     0.117 A 
HETATM   24  F   UNL     1      43.891 -29.933  -4.912  1.00  0.00    -0.206 F 
HETATM   25  C   UNL     1      45.034 -28.217  -3.775  1.00  0.00     0.042 A 
HETATM   26  C   UNL     1      45.427 -27.649  -2.568  1.00  0.00     0.004 A 
HETATM   27  C   UNL     1      45.086 -28.266  -1.359  1.00  0.00     0.010 A 
ENDBRANCH  15  21
ENDBRANCH   1  15
TORSDOF 6
ENDMDL
MODEL 10
REMARK VINA RESULT:      -6.6     14.834     16.309
REMARK  6 active torsions:
REMARK  status: ('A' for Active; 'I' for Inactive)
REMARK    1  A    between atoms: C_6  and  O_7 
REMARK    2  A    between atoms: C_8  and  C_9 
REMARK    3  A    between atoms: C_9  and  N_10 
REMARK    4  A    between atoms: N_10  and  C_12 
REMARK    5  A    between atoms: C_12  and  C_13 
REMARK    6  A    between atoms: C_12  and  C_16 
REMARK       I    between atoms: C_13  and  N_14 
ROOT
HETATM    1  N   UNL     1      45.461 -29.821   1.232  1.00  0.00    -0.054 N 
HETATM    2  H   UNL     1      46.034 -29.053   0.854  1.00  0.00     0.281 HD
HETATM    3  C   UNL     1      44.927 -29.422   2.579  1.00  0.00     0.271 C 
ENDROOT
BRANCH   1   4
HETATM    4  C   UNL     1      46.475 -30.950   1.351  1.00  0.00     0.277 C 
BRANCH   4   5
HETATM    5  C   UNL     1      47.602 -30.803   0.364  1.00  0.00     0.001 A 
HETATM    6  C   UNL     1      48.532 -29.770   0.490  1.00  0.00     0.074 A 
HETATM    7  C   UNL     1      49.605 -29.652  -0.389  1.00  0.00     0.044 A 
HETATM    8  C   UNL     1      49.777 -30.590  -1.419  1.00  0.00    -0.053 A 
HETATM    9  C   UNL     1      48.834 -31.625  -1.579  1.00  0.00    -0.055 A 
HETATM   10  C   UNL     1      50.959 -30.458  -2.343  1.00  0.00     0.049 C 
HETATM   11  C   UNL     1      48.982 -32.665  -2.659  1.00  0.00     0.049 C 
HETATM   12  C   UNL     1      47.756 -31.722  -0.683  1.00  0.00     0.019 A 
BRANCH   6  13
HETATM   13  O   UNL     1      48.394 -28.901   1.540  1.00  0.00    -0.360 OA
HETATM   14  H   UNL     1      49.294 -28.628   1.815  1.00  0.00     0.217 HD
ENDBRANCH   6  13
ENDBRANCH   4   5
ENDBRANCH   1   4
BRANCH   1  15
HETATM   15  C   UNL     1      44.379 -30.136   0.187  1.00  0.00     0.312 C 
BRANCH  15  16
HETATM   16  C   UNL     1      42.965 -29.905   0.803  1.00  0.00     0.251 C 
HETATM   17  N   UNL     1      42.285 -30.983   1.301  1.00  0.00    -0.368 N 
HETATM   18  H   UNL     1      42.750 -31.818   1.641  1.00  0.00     0.159 HD
HETATM   19  H   UNL     1      41.385 -30.782   1.728  1.00  0.00     0.159 HD
HETATM   20  O   UNL     1      42.395 -28.820   0.701  1.00  0.00    -0.271 OA
ENDBRANCH  15  16
BRANCH  15  21
HETATM   21  C   UNL     1      44.577 -29.496  -1.190  1.00  0.00    -0.016 A 
HETATM   22  C   UNL     1      43.898 -29.925  -2.344  1.00  0.00     0.052 A 
HETATM   23  C   UNL     1      44.110 -29.292  -3.569  1.00  0.00     0.117 A 
HETATM   24  F   UNL     1      43.461 -29.741  -4.650  1.00  0.00    -0.206 F 
HETATM   25  C   UNL     1      44.976 -28.217  -3.686  1.00  0.00     0.042 A 
HETATM   26  C   UNL     1      45.630 -27.749  -2.552  1.00  0.00     0.004 A 
HETATM   27  C   UNL     1      45.421 -28.372  -1.316  1.00  0.00     0.010 A 
ENDBRANCH  15  21
ENDBRANCH   1  15
TORSDOF 6
ENDMDL
