MODEL 1
REMARK VINA RESULT:      -8.2      0.000      0.000
REMARK  7 active torsions:
REMARK  status: ('A' for Active; 'I' for Inactive)
REMARK    1  A    between atoms: C_2  and  C_3 
REMARK    2  A    between atoms: C_3  and  C_4 
REMARK    3  A    between atoms: C_4  and  O_5 
REMARK    4  A    between atoms: O_5  and  C_6 
REMARK    5  A    between atoms: C_9  and  C_10 
REMARK       I    between atoms: C_10  and  N_11 
REMARK    6  A    between atoms: N_11  and  C_12 
REMARK    7  A    between atoms: C_19  and  C_20 
REMARK       I    between atoms: C_20  and  N_21 
ROOT
HETATM    1  C   UNL     1      42.279 -13.863   5.308  1.00  0.00     0.256 C 
HETATM    2  N   UNL     1      43.351 -14.548   4.760  1.00  0.00    -0.323 N 
HETATM    3  O   UNL     1      41.098 -14.173   5.211  1.00  0.00    -0.267 OA
HETATM    4  H   UNL     1      44.274 -14.170   4.910  1.00  0.00     0.169 HD
ENDROOT
BRANCH   2   5
HETATM    5  C   UNL     1      43.315 -15.771   4.050  1.00  0.00     0.036 A 
HETATM    6  C   UNL     1      43.496 -17.026   4.645  1.00  0.00     0.046 A 
HETATM    7  C   UNL     1      43.490 -18.188   3.842  1.00  0.00     0.030 A 
HETATM    8  C   UNL     1      43.278 -18.056   2.475  1.00  0.00     0.063 A 
HETATM    9  C   UNL     1      43.673 -19.588   4.052  1.00  0.00     0.156 A 
HETATM   10  N   UNL     1      43.318 -19.328   1.976  1.00  0.00    -0.277 N 
HETATM   11  C   UNL     1      43.082 -16.824   1.849  1.00  0.00     0.034 A 
HETATM   12  H   UNL     1      43.196 -19.613   1.012  1.00  0.00     0.189 HD
HETATM   13  N   UNL     1      43.561 -20.278   2.894  1.00  0.00    -0.168 NA
HETATM   14  C   UNL     1      43.117 -15.686   2.664  1.00  0.00     0.032 A 
BRANCH   9  15
HETATM   15  C   UNL     1      43.966 -20.275   5.318  1.00  0.00     0.270 C 
HETATM   16  N   UNL     1      44.795 -21.357   5.186  1.00  0.00    -0.365 N 
HETATM   17  H   UNL     1      45.148 -21.588   4.265  1.00  0.00     0.159 HD
HETATM   18  H   UNL     1      45.074 -21.873   6.005  1.00  0.00     0.159 HD
HETATM   19  O   UNL     1      43.538 -19.937   6.416  1.00  0.00    -0.266 OA
ENDBRANCH   9  15
ENDBRANCH   2   5
BRANCH   1  20
HETATM   20  C   UNL     1      42.623 -12.647   6.112  1.00  0.00     0.032 A 
HETATM   21  C   UNL     1      41.862 -11.471   6.093  1.00  0.00     0.020 A 
HETATM   22  C   UNL     1      42.267 -10.352   6.836  1.00  0.00     0.038 A 
HETATM   23  C   UNL     1      43.423 -10.404   7.614  1.00  0.00     0.068 A 
HETATM   24  C   UNL     1      44.154 -11.591   7.673  1.00  0.00     0.038 A 
HETATM   25  C   UNL     1      43.761 -12.705   6.927  1.00  0.00     0.020 A 
BRANCH  23  26
HETATM   26  O   UNL     1      43.921  -9.383   8.373  1.00  0.00    -0.351 OA
BRANCH  26  27
HETATM   27  C   UNL     1      45.272  -9.519   8.823  1.00  0.00     0.176 C 
BRANCH  27  28
HETATM   28  C   UNL     1      45.264  -9.412  10.348  1.00  0.00     0.030 C 
BRANCH  28  29
HETATM   29  C   UNL     1      43.867  -9.556  10.974  1.00  0.00    -0.021 C 
HETATM   30  C   UNL     1      43.593  -8.490  12.036  1.00  0.00     0.009 C 
HETATM   31  C   UNL     1      43.714 -10.948  11.590  1.00  0.00     0.009 C 
ENDBRANCH  28  29
ENDBRANCH  27  28
ENDBRANCH  26  27
ENDBRANCH  23  26
ENDBRANCH   1  20
TORSDOF 7
ENDMDL
MODEL 2
REMARK VINA RESULT:      -8.0      5.463      8.212
REMARK  7 active torsions:
REMARK  status: ('A' for Active; 'I' for Inactive)
REMARK    1  A    between atoms: C_2  and  C_3 
REMARK    2  A    between atoms: C_3  and  C_4 
REMARK    3  A    between atoms: C_4  and  O_5 
REMARK    4  A    between atoms: O_5  and  C_6 
REMARK    5  A    between atoms: C_9  and  C_10 
REMARK       I    between atoms: C_10  and  N_11 
REMARK    6  A    between atoms: N_11  and  C_12 
REMARK    7  A    between atoms: C_19  and  C_20 
REMARK       I    between atoms: C_20  and  N_21 
ROOT
HETATM    1  C   UNL     1      40.757 -14.970   0.883  1.00  0.00     0.256 C 
HETATM    2  N   UNL     1      42.095 -15.190   1.162  1.00  0.00    -0.323 N 
HETATM    3  O   UNL     1      39.804 -15.426   1.505  1.00  0.00    -0.267 OA
HETATM    4  H   UNL     1      42.776 -14.760   0.556  1.00  0.00     0.169 HD
ENDROOT
BRANCH   2   5
HETATM    5  C   UNL     1      42.637 -15.911   2.251  1.00  0.00     0.036 A 
HETATM    6  C   UNL     1      42.943 -17.277   2.210  1.00  0.00     0.046 A 
HETATM    7  C   UNL     1      43.438 -17.917   3.369  1.00  0.00     0.030 A 
HETATM    8  C   UNL     1      43.633 -17.163   4.519  1.00  0.00     0.063 A 
HETATM    9  C   UNL     1      43.813 -19.246   3.732  1.00  0.00     0.156 A 
HETATM   10  N   UNL     1      44.117 -18.039   5.451  1.00  0.00    -0.277 N 
HETATM   11  C   UNL     1      43.351 -15.798   4.594  1.00  0.00     0.034 A 
HETATM   12  H   UNL     1      44.378 -17.834   6.408  1.00  0.00     0.189 HD
HETATM   13  N   UNL     1      44.233 -19.304   5.016  1.00  0.00    -0.168 NA
HETATM   14  C   UNL     1      42.839 -15.193   3.439  1.00  0.00     0.032 A 
BRANCH   9  15
HETATM   15  C   UNL     1      43.766 -20.453   2.894  1.00  0.00     0.270 C 
HETATM   16  N   UNL     1      44.147 -21.597   3.543  1.00  0.00    -0.365 N 
HETATM   17  H   UNL     1      44.407 -21.536   4.521  1.00  0.00     0.159 HD
HETATM   18  H   UNL     1      44.119 -22.478   3.057  1.00  0.00     0.159 HD
HETATM   19  O   UNL     1      43.412 -20.480   1.721  1.00  0.00    -0.266 OA
ENDBRANCH   9  15
ENDBRANCH   2   5
BRANCH   1  20
HETATM   20  C   UNL     1      40.470 -14.067  -0.277  1.00  0.00     0.032 A 
HETATM   21  C   UNL     1      39.765 -14.476  -1.417  1.00  0.00     0.020 A 
HETATM   22  C   UNL     1      39.571 -13.591  -2.487  1.00  0.00     0.038 A 
HETATM   23  C   UNL     1      40.067 -12.289  -2.423  1.00  0.00     0.068 A 
HETATM   24  C   UNL     1      40.726 -11.865  -1.269  1.00  0.00     0.038 A 
HETATM   25  C   UNL     1      40.930 -12.746  -0.204  1.00  0.00     0.020 A 
BRANCH  23  26
HETATM   26  O   UNL     1      39.949 -11.341  -3.400  1.00  0.00    -0.351 OA
BRANCH  26  27
HETATM   27  C   UNL     1      39.942  -9.977  -2.971  1.00  0.00     0.176 C 
BRANCH  27  28
HETATM   28  C   UNL     1      40.939  -9.212  -3.842  1.00  0.00     0.030 C 
BRANCH  28  29
HETATM   29  C   UNL     1      41.625  -8.041  -3.119  1.00  0.00    -0.021 C 
HETATM   30  C   UNL     1      42.629  -7.314  -4.015  1.00  0.00     0.009 C 
HETATM   31  C   UNL     1      42.330  -8.549  -1.860  1.00  0.00     0.009 C 
ENDBRANCH  28  29
ENDBRANCH  27  28
ENDBRANCH  26  27
ENDBRANCH  23  26
ENDBRANCH   1  20
TORSDOF 7
ENDMDL
MODEL 3
REMARK VINA RESULT:      -8.0      5.231      8.100
REMARK  7 active torsions:
REMARK  status: ('A' for Active; 'I' for Inactive)
REMARK    1  A    between atoms: C_2  and  C_3 
REMARK    2  A    between atoms: C_3  and  C_4 
REMARK    3  A    between atoms: C_4  and  O_5 
REMARK    4  A    between atoms: O_5  and  C_6 
REMARK    5  A    between atoms: C_9  and  C_10 
REMARK       I    between atoms: C_10  and  N_11 
REMARK    6  A    between atoms: N_11  and  C_12 
REMARK    7  A    between atoms: C_19  and  C_20 
REMARK       I    between atoms: C_20  and  N_21 
ROOT
HETATM    1  C   UNL     1      40.598 -15.106   0.887  1.00  0.00     0.256 C 
HETATM    2  N   UNL     1      41.952 -15.286   1.113  1.00  0.00    -0.323 N 
HETATM    3  O   UNL     1      39.685 -15.569   1.559  1.00  0.00    -0.267 OA
HETATM    4  H   UNL     1      42.596 -14.854   0.468  1.00  0.00     0.169 HD
ENDROOT
BRANCH   2   5
HETATM    5  C   UNL     1      42.558 -15.965   2.195  1.00  0.00     0.036 A 
HETATM    6  C   UNL     1      42.887 -17.326   2.178  1.00  0.00     0.046 A 
HETATM    7  C   UNL     1      43.448 -17.925   3.329  1.00  0.00     0.030 A 
HETATM    8  C   UNL     1      43.682 -17.134   4.447  1.00  0.00     0.063 A 
HETATM    9  C   UNL     1      43.864 -19.236   3.711  1.00  0.00     0.156 A 
HETATM   10  N   UNL     1      44.225 -17.974   5.379  1.00  0.00    -0.277 N 
HETATM   11  C   UNL     1      43.379 -15.773   4.497  1.00  0.00     0.034 A 
HETATM   12  H   UNL     1      44.528 -17.738   6.317  1.00  0.00     0.189 HD
HETATM   13  N   UNL     1      44.344 -19.250   4.975  1.00  0.00    -0.168 NA
HETATM   14  C   UNL     1      42.802 -15.209   3.352  1.00  0.00     0.032 A 
BRANCH   9  15
HETATM   15  C   UNL     1      43.800 -20.467   2.911  1.00  0.00     0.270 C 
HETATM   16  N   UNL     1      44.098 -21.604   3.613  1.00  0.00    -0.365 N 
HETATM   17  H   UNL     1      44.316 -21.522   4.599  1.00  0.00     0.159 HD
HETATM   18  H   UNL     1      44.052 -22.499   3.153  1.00  0.00     0.159 HD
HETATM   19  O   UNL     1      43.499 -20.517   1.723  1.00  0.00    -0.266 OA
ENDBRANCH   9  15
ENDBRANCH   2   5
BRANCH   1  20
HETATM   20  C   UNL     1      40.240 -14.239  -0.282  1.00  0.00     0.032 A 
HETATM   21  C   UNL     1      39.349 -14.633  -1.289  1.00  0.00     0.020 A 
HETATM   22  C   UNL     1      39.093 -13.789  -2.380  1.00  0.00     0.038 A 
HETATM   23  C   UNL     1      39.712 -12.543  -2.466  1.00  0.00     0.068 A 
HETATM   24  C   UNL     1      40.561 -12.128  -1.439  1.00  0.00     0.038 A 
HETATM   25  C   UNL     1      40.827 -12.969  -0.356  1.00  0.00     0.020 A 
BRANCH  23  26
HETATM   26  O   UNL     1      39.550 -11.639  -3.478  1.00  0.00    -0.351 OA
BRANCH  26  27
HETATM   27  C   UNL     1      39.085 -10.338  -3.107  1.00  0.00     0.176 C 
BRANCH  27  28
HETATM   28  C   UNL     1      37.645 -10.484  -2.615  1.00  0.00     0.030 C 
BRANCH  28  29
HETATM   29  C   UNL     1      37.414  -9.930  -1.199  1.00  0.00    -0.021 C 
HETATM   30  C   UNL     1      38.555  -9.023  -0.736  1.00  0.00     0.009 C 
HETATM   31  C   UNL     1      37.240 -11.085  -0.211  1.00  0.00     0.009 C 
ENDBRANCH  28  29
ENDBRANCH  27  28
ENDBRANCH  26  27
ENDBRANCH  23  26
ENDBRANCH   1  20
TORSDOF 7
ENDMDL
MODEL 4
REMARK VINA RESULT:      -7.7      2.814      4.377
REMARK  7 active torsions:
REMARK  status: ('A' for Active; 'I' for Inactive)
REMARK    1  A    between atoms: C_2  and  C_3 
REMARK    2  A    between atoms: C_3  and  C_4 
REMARK    3  A    between atoms: C_4  and  O_5 
REMARK    4  A    between atoms: O_5  and  C_6 
REMARK    5  A    between atoms: C_9  and  C_10 
REMARK       I    between atoms: C_10  and  N_11 
REMARK    6  A    between atoms: N_11  and  C_12 
REMARK    7  A    between atoms: C_19  and  C_20 
REMARK       I    between atoms: C_20  and  N_21 
ROOT
HETATM    1  C   UNL     1      44.384 -11.894   7.157  1.00  0.00     0.256 C 
HETATM    2  N   UNL     1      43.379 -12.847   7.166  1.00  0.00    -0.323 N 
HETATM    3  O   UNL     1      45.367 -11.887   6.426  1.00  0.00    -0.267 OA
HETATM    4  H   UNL     1      42.632 -12.733   7.834  1.00  0.00     0.169 HD
ENDROOT
BRANCH   2   5
HETATM    5  C   UNL     1      43.238 -13.952   6.296  1.00  0.00     0.036 A 
HETATM    6  C   UNL     1      42.380 -13.971   5.189  1.00  0.00     0.046 A 
HETATM    7  C   UNL     1      42.273 -15.142   4.406  1.00  0.00     0.030 A 
HETATM    8  C   UNL     1      43.048 -16.245   4.744  1.00  0.00     0.063 A 
HETATM    9  C   UNL     1      41.513 -15.560   3.272  1.00  0.00     0.156 A 
HETATM   10  N   UNL     1      42.740 -17.203   3.818  1.00  0.00    -0.277 N 
HETATM   11  C   UNL     1      43.923 -16.259   5.831  1.00  0.00     0.034 A 
HETATM   12  H   UNL     1      43.123 -18.139   3.753  1.00  0.00     0.189 HD
HETATM   13  N   UNL     1      41.814 -16.830   2.920  1.00  0.00    -0.168 NA
HETATM   14  C   UNL     1      43.991 -15.094   6.605  1.00  0.00     0.032 A 
BRANCH   9  15
HETATM   15  C   UNL     1      40.503 -14.787   2.534  1.00  0.00     0.270 C 
HETATM   16  N   UNL     1      39.289 -15.411   2.433  1.00  0.00    -0.365 N 
HETATM   17  H   UNL     1      39.171 -16.317   2.871  1.00  0.00     0.159 HD
HETATM   18  H   UNL     1      38.527 -14.944   1.969  1.00  0.00     0.159 HD
HETATM   19  O   UNL     1      40.687 -13.677   2.048  1.00  0.00    -0.266 OA
ENDBRANCH   9  15
ENDBRANCH   2   5
BRANCH   1  20
HETATM   20  C   UNL     1      44.219 -10.761   8.123  1.00  0.00     0.032 A 
HETATM   21  C   UNL     1      45.196 -10.399   9.060  1.00  0.00     0.020 A 
HETATM   22  C   UNL     1      44.957  -9.355   9.967  1.00  0.00     0.038 A 
HETATM   23  C   UNL     1      43.750  -8.657   9.935  1.00  0.00     0.068 A 
HETATM   24  C   UNL     1      42.797  -8.983   8.970  1.00  0.00     0.038 A 
HETATM   25  C   UNL     1      43.026 -10.029   8.072  1.00  0.00     0.020 A 
BRANCH  23  26
HETATM   26  O   UNL     1      43.400  -7.631  10.766  1.00  0.00    -0.351 OA
BRANCH  26  27
HETATM   27  C   UNL     1      42.359  -7.898  11.711  1.00  0.00     0.176 C 
BRANCH  27  28
HETATM   28  C   UNL     1      43.020  -8.372  13.005  1.00  0.00     0.030 C 
BRANCH  28  29
HETATM   29  C   UNL     1      42.071  -9.136  13.943  1.00  0.00    -0.021 C 
HETATM   30  C   UNL     1      40.878  -9.738  13.197  1.00  0.00     0.009 C 
HETATM   31  C   UNL     1      41.570  -8.203  15.048  1.00  0.00     0.009 C 
ENDBRANCH  28  29
ENDBRANCH  27  28
ENDBRANCH  26  27
ENDBRANCH  23  26
ENDBRANCH   1  20
TORSDOF 7
ENDMDL
MODEL 5
REMARK VINA RESULT:      -7.6      4.664      8.713
REMARK  7 active torsions:
REMARK  status: ('A' for Active; 'I' for Inactive)
REMARK    1  A    between atoms: C_2  and  C_3 
REMARK    2  A    between atoms: C_3  and  C_4 
REMARK    3  A    between atoms: C_4  and  O_5 
REMARK    4  A    between atoms: O_5  and  C_6 
REMARK    5  A    between atoms: C_9  and  C_10 
REMARK       I    between atoms: C_10  and  N_11 
REMARK    6  A    between atoms: N_11  and  C_12 
REMARK    7  A    between atoms: C_19  and  C_20 
REMARK       I    between atoms: C_20  and  N_21 
ROOT
HETATM    1  C   UNL     1      43.181  -8.213  11.322  1.00  0.00     0.256 C 
HETATM    2  N   UNL     1      43.998  -9.302  11.074  1.00  0.00    -0.323 N 
HETATM    3  O   UNL     1      42.837  -7.366  10.506  1.00  0.00    -0.267 OA
HETATM    4  H   UNL     1      44.210  -9.914  11.847  1.00  0.00     0.169 HD
ENDROOT
BRANCH   2   5
HETATM    5  C   UNL     1      44.536  -9.705   9.830  1.00  0.00     0.036 A 
HETATM    6  C   UNL     1      44.014 -10.746   9.052  1.00  0.00     0.046 A 
HETATM    7  C   UNL     1      44.653 -11.104   7.844  1.00  0.00     0.030 A 
HETATM    8  C   UNL     1      45.777 -10.393   7.445  1.00  0.00     0.063 A 
HETATM    9  C   UNL     1      44.464 -12.093   6.831  1.00  0.00     0.156 A 
HETATM   10  N   UNL     1      46.160 -10.954   6.259  1.00  0.00    -0.277 N 
HETATM   11  C   UNL     1      46.319  -9.343   8.187  1.00  0.00     0.034 A 
HETATM   12  H   UNL     1      46.943 -10.682   5.676  1.00  0.00     0.189 HD
HETATM   13  N   UNL     1      45.399 -11.985   5.859  1.00  0.00    -0.168 NA
HETATM   14  C   UNL     1      45.681  -9.023   9.392  1.00  0.00     0.032 A 
BRANCH   9  15
HETATM   15  C   UNL     1      43.433 -13.139   6.778  1.00  0.00     0.270 C 
HETATM   16  N   UNL     1      42.178 -12.669   6.497  1.00  0.00    -0.365 N 
HETATM   17  H   UNL     1      42.056 -11.677   6.335  1.00  0.00     0.159 HD
HETATM   18  H   UNL     1      41.411 -13.318   6.413  1.00  0.00     0.159 HD
HETATM   19  O   UNL     1      43.636 -14.335   6.952  1.00  0.00    -0.266 OA
ENDBRANCH   9  15
ENDBRANCH   2   5
BRANCH   1  20
HETATM   20  C   UNL     1      42.658  -8.092  12.721  1.00  0.00     0.032 A 
HETATM   21  C   UNL     1      43.208  -7.227  13.677  1.00  0.00     0.020 A 
HETATM   22  C   UNL     1      42.699  -7.198  14.984  1.00  0.00     0.038 A 
HETATM   23  C   UNL     1      41.630  -8.019  15.342  1.00  0.00     0.068 A 
HETATM   24  C   UNL     1      41.050  -8.845  14.378  1.00  0.00     0.038 A 
HETATM   25  C   UNL     1      41.560  -8.886  13.078  1.00  0.00     0.020 A 
BRANCH  23  26
HETATM   26  O   UNL     1      41.054  -8.085  16.579  1.00  0.00    -0.351 OA
BRANCH  26  27
HETATM   27  C   UNL     1      41.314  -6.994  17.466  1.00  0.00     0.176 C 
BRANCH  27  28
HETATM   28  C   UNL     1      40.291  -7.066  18.600  1.00  0.00     0.030 C 
BRANCH  28  29
HETATM   29  C   UNL     1      40.358  -8.368  19.415  1.00  0.00    -0.021 C 
HETATM   30  C   UNL     1      39.364  -8.378  20.578  1.00  0.00     0.009 C 
HETATM   31  C   UNL     1      41.778  -8.575  19.949  1.00  0.00     0.009 C 
ENDBRANCH  28  29
ENDBRANCH  27  28
ENDBRANCH  26  27
ENDBRANCH  23  26
ENDBRANCH   1  20
TORSDOF 7
ENDMDL
MODEL 6
REMARK VINA RESULT:      -7.6      5.323      8.318
REMARK  7 active torsions:
REMARK  status: ('A' for Active; 'I' for Inactive)
REMARK    1  A    between atoms: C_2  and  C_3 
REMARK    2  A    between atoms: C_3  and  C_4 
REMARK    3  A    between atoms: C_4  and  O_5 
REMARK    4  A    between atoms: O_5  and  C_6 
REMARK    5  A    between atoms: C_9  and  C_10 
REMARK       I    between atoms: C_10  and  N_11 
REMARK    6  A    between atoms: N_11  and  C_12 
REMARK    7  A    between atoms: C_19  and  C_20 
REMARK       I    between atoms: C_20  and  N_21 
ROOT
HETATM    1  C   UNL     1      40.759 -15.082   0.828  1.00  0.00     0.256 C 
HETATM    2  N   UNL     1      42.055 -15.281   1.274  1.00  0.00    -0.323 N 
HETATM    3  O   UNL     1      39.763 -15.686   1.207  1.00  0.00    -0.267 OA
HETATM    4  H   UNL     1      42.783 -14.718   0.863  1.00  0.00     0.169 HD
ENDROOT
BRANCH   2   5
HETATM    5  C   UNL     1      42.483 -16.154   2.301  1.00  0.00     0.036 A 
HETATM    6  C   UNL     1      42.224 -15.948   3.662  1.00  0.00     0.046 A 
HETATM    7  C   UNL     1      42.736 -16.855   4.617  1.00  0.00     0.030 A 
HETATM    8  C   UNL     1      43.470 -17.949   4.174  1.00  0.00     0.063 A 
HETATM    9  C   UNL     1      42.730 -16.968   6.040  1.00  0.00     0.156 A 
HETATM   10  N   UNL     1      43.818 -18.634   5.305  1.00  0.00    -0.277 N 
HETATM   11  C   UNL     1      43.738 -18.194   2.827  1.00  0.00     0.034 A 
HETATM   12  H   UNL     1      44.354 -19.492   5.362  1.00  0.00     0.189 HD
HETATM   13  N   UNL     1      43.397 -18.071   6.449  1.00  0.00    -0.168 NA
HETATM   14  C   UNL     1      43.239 -17.267   1.903  1.00  0.00     0.032 A 
BRANCH   9  15
HETATM   15  C   UNL     1      42.121 -16.047   7.011  1.00  0.00     0.270 C 
HETATM   16  N   UNL     1      40.778 -15.853   6.828  1.00  0.00    -0.365 N 
HETATM   17  H   UNL     1      40.313 -16.351   6.077  1.00  0.00     0.159 HD
HETATM   18  H   UNL     1      40.270 -15.260   7.463  1.00  0.00     0.159 HD
HETATM   19  O   UNL     1      42.721 -15.492   7.924  1.00  0.00    -0.266 OA
ENDBRANCH   9  15
ENDBRANCH   2   5
BRANCH   1  20
HETATM   20  C   UNL     1      40.580 -14.004  -0.197  1.00  0.00     0.032 A 
HETATM   21  C   UNL     1      39.955 -14.214  -1.434  1.00  0.00     0.020 A 
HETATM   22  C   UNL     1      39.861 -13.170  -2.367  1.00  0.00     0.038 A 
HETATM   23  C   UNL     1      40.375 -11.909  -2.067  1.00  0.00     0.068 A 
HETATM   24  C   UNL     1      40.952 -11.686  -0.816  1.00  0.00     0.038 A 
HETATM   25  C   UNL     1      41.058 -12.724   0.112  1.00  0.00     0.020 A 
BRANCH  23  26
HETATM   26  O   UNL     1      40.350 -10.820  -2.892  1.00  0.00    -0.351 OA
BRANCH  26  27
HETATM   27  C   UNL     1      39.066 -10.402  -3.361  1.00  0.00     0.176 C 
BRANCH  27  28
HETATM   28  C   UNL     1      38.370  -9.668  -2.215  1.00  0.00     0.030 C 
BRANCH  28  29
HETATM   29  C   UNL     1      37.083 -10.354  -1.729  1.00  0.00    -0.021 C 
HETATM   30  C   UNL     1      37.259 -11.020  -0.363  1.00  0.00     0.009 C 
HETATM   31  C   UNL     1      36.630 -11.395  -2.755  1.00  0.00     0.009 C 
ENDBRANCH  28  29
ENDBRANCH  27  28
ENDBRANCH  26  27
ENDBRANCH  23  26
ENDBRANCH   1  20
TORSDOF 7
ENDMDL
MODEL 7
REMARK VINA RESULT:      -7.5      5.464      8.382
REMARK  7 active torsions:
REMARK  status: ('A' for Active; 'I' for Inactive)
REMARK    1  A    between atoms: C_2  and  C_3 
REMARK    2  A    between atoms: C_3  and  C_4 
REMARK    3  A    between atoms: C_4  and  O_5 
REMARK    4  A    between atoms: O_5  and  C_6 
REMARK    5  A    between atoms: C_9  and  C_10 
REMARK       I    between atoms: C_10  and  N_11 
REMARK    6  A    between atoms: N_11  and  C_12 
REMARK    7  A    between atoms: C_19  and  C_20 
REMARK       I    between atoms: C_20  and  N_21 
ROOT
HETATM    1  C   UNL     1      40.627 -15.107   0.804  1.00  0.00     0.256 C 
HETATM    2  N   UNL     1      41.923 -15.199   1.283  1.00  0.00    -0.323 N 
HETATM    3  O   UNL     1      39.674 -15.791   1.160  1.00  0.00    -0.267 OA
HETATM    4  H   UNL     1      42.613 -14.579   0.889  1.00  0.00     0.169 HD
ENDROOT
BRANCH   2   5
HETATM    5  C   UNL     1      42.396 -16.034   2.322  1.00  0.00     0.036 A 
HETATM    6  C   UNL     1      42.097 -15.841   3.677  1.00  0.00     0.046 A 
HETATM    7  C   UNL     1      42.658 -16.703   4.646  1.00  0.00     0.030 A 
HETATM    8  C   UNL     1      43.477 -17.742   4.223  1.00  0.00     0.063 A 
HETATM    9  C   UNL     1      42.633 -16.809   6.070  1.00  0.00     0.156 A 
HETATM   10  N   UNL     1      43.854 -18.395   5.364  1.00  0.00    -0.277 N 
HETATM   11  C   UNL     1      43.787 -17.973   2.882  1.00  0.00     0.034 A 
HETATM   12  H   UNL     1      44.450 -19.211   5.435  1.00  0.00     0.189 HD
HETATM   13  N   UNL     1      43.372 -17.859   6.497  1.00  0.00    -0.168 NA
HETATM   14  C   UNL     1      43.238 -17.090   1.944  1.00  0.00     0.032 A 
BRANCH   9  15
HETATM   15  C   UNL     1      41.941 -15.931   7.024  1.00  0.00     0.270 C 
HETATM   16  N   UNL     1      42.778 -15.121   7.744  1.00  0.00    -0.365 N 
HETATM   17  H   UNL     1      43.774 -15.169   7.563  1.00  0.00     0.159 HD
HETATM   18  H   UNL     1      42.390 -14.465   8.402  1.00  0.00     0.159 HD
HETATM   19  O   UNL     1      40.726 -15.888   7.184  1.00  0.00    -0.266 OA
ENDBRANCH   9  15
ENDBRANCH   2   5
BRANCH   1  20
HETATM   20  C   UNL     1      40.385 -14.048  -0.228  1.00  0.00     0.032 A 
HETATM   21  C   UNL     1      40.864 -12.736  -0.112  1.00  0.00     0.020 A 
HETATM   22  C   UNL     1      40.562 -11.781  -1.094  1.00  0.00     0.038 A 
HETATM   23  C   UNL     1      39.793 -12.131  -2.203  1.00  0.00     0.068 A 
HETATM   24  C   UNL     1      39.358 -13.449  -2.345  1.00  0.00     0.038 A 
HETATM   25  C   UNL     1      39.647 -14.402  -1.365  1.00  0.00     0.020 A 
BRANCH  23  26
HETATM   26  O   UNL     1      39.429 -11.292  -3.219  1.00  0.00    -0.351 OA
BRANCH  26  27
HETATM   27  C   UNL     1      39.384  -9.896  -2.911  1.00  0.00     0.176 C 
BRANCH  27  28
HETATM   28  C   UNL     1      40.476  -9.208  -3.731  1.00  0.00     0.030 C 
BRANCH  28  29
HETATM   29  C   UNL     1      41.609  -8.612  -2.879  1.00  0.00    -0.021 C 
HETATM   30  C   UNL     1      41.097  -8.014  -1.567  1.00  0.00     0.009 C 
HETATM   31  C   UNL     1      42.352  -7.539  -3.678  1.00  0.00     0.009 C 
ENDBRANCH  28  29
ENDBRANCH  27  28
ENDBRANCH  26  27
ENDBRANCH  23  26
ENDBRANCH   1  20
TORSDOF 7
ENDMDL
MODEL 8
REMARK VINA RESULT:      -7.4      5.112      8.631
REMARK  7 active torsions:
REMARK  status: ('A' for Active; 'I' for Inactive)
REMARK    1  A    between atoms: C_2  and  C_3 
REMARK    2  A    between atoms: C_3  and  C_4 
REMARK    3  A    between atoms: C_4  and  O_5 
REMARK    4  A    between atoms: O_5  and  C_6 
REMARK    5  A    between atoms: C_9  and  C_10 
REMARK       I    between atoms: C_10  and  N_11 
REMARK    6  A    between atoms: N_11  and  C_12 
REMARK    7  A    between atoms: C_19  and  C_20 
REMARK       I    between atoms: C_20  and  N_21 
ROOT
HETATM    1  C   UNL     1      43.299  -9.675  11.874  1.00  0.00     0.256 C 
HETATM    2  N   UNL     1      43.680  -8.954  10.755  1.00  0.00    -0.323 N 
HETATM    3  O   UNL     1      43.293 -10.896  11.979  1.00  0.00    -0.267 OA
HETATM    4  H   UNL     1      43.623  -7.948  10.805  1.00  0.00     0.169 HD
ENDROOT
BRANCH   2   5
HETATM    5  C   UNL     1      44.209  -9.462   9.546  1.00  0.00     0.036 A 
HETATM    6  C   UNL     1      43.440 -10.093   8.560  1.00  0.00     0.046 A 
HETATM    7  C   UNL     1      44.070 -10.610   7.406  1.00  0.00     0.030 A 
HETATM    8  C   UNL     1      45.443 -10.455   7.267  1.00  0.00     0.063 A 
HETATM    9  C   UNL     1      43.661 -11.329   6.242  1.00  0.00     0.156 A 
HETATM   10  N   UNL     1      45.756 -11.038   6.071  1.00  0.00    -0.277 N 
HETATM   11  C   UNL     1      46.240  -9.821   8.222  1.00  0.00     0.034 A 
HETATM   12  H   UNL     1      46.671 -11.106   5.642  1.00  0.00     0.189 HD
HETATM   13  N   UNL     1      44.710 -11.582   5.427  1.00  0.00    -0.168 NA
HETATM   14  C   UNL     1      45.595  -9.339   9.367  1.00  0.00     0.032 A 
BRANCH   9  15
HETATM   15  C   UNL     1      42.307 -11.789   5.900  1.00  0.00     0.270 C 
HETATM   16  N   UNL     1      41.938 -12.949   6.526  1.00  0.00    -0.365 N 
HETATM   17  H   UNL     1      42.591 -13.382   7.169  1.00  0.00     0.159 HD
HETATM   18  H   UNL     1      41.016 -13.325   6.374  1.00  0.00     0.159 HD
HETATM   19  O   UNL     1      41.541 -11.210   5.138  1.00  0.00    -0.266 OA
ENDBRANCH   9  15
ENDBRANCH   2   5
BRANCH   1  20
HETATM   20  C   UNL     1      42.882  -8.865  13.063  1.00  0.00     0.032 A 
HETATM   21  C   UNL     1      41.901  -9.282  13.973  1.00  0.00     0.020 A 
HETATM   22  C   UNL     1      41.527  -8.453  15.041  1.00  0.00     0.038 A 
HETATM   23  C   UNL     1      42.136  -7.211  15.216  1.00  0.00     0.068 A 
HETATM   24  C   UNL     1      43.148  -6.817  14.340  1.00  0.00     0.038 A 
HETATM   25  C   UNL     1      43.518  -7.634  13.269  1.00  0.00     0.020 A 
BRANCH  23  26
HETATM   26  O   UNL     1      41.854  -6.315  16.209  1.00  0.00    -0.351 OA
BRANCH  26  27
HETATM   27  C   UNL     1      40.956  -5.253  15.877  1.00  0.00     0.176 C 
BRANCH  27  28
HETATM   28  C   UNL     1      39.661  -5.480  16.656  1.00  0.00     0.030 C 
BRANCH  28  29
HETATM   29  C   UNL     1      38.411  -5.586  15.766  1.00  0.00    -0.021 C 
HETATM   30  C   UNL     1      38.745  -6.057  14.349  1.00  0.00     0.009 C 
HETATM   31  C   UNL     1      37.701  -4.232  15.705  1.00  0.00     0.009 C 
ENDBRANCH  28  29
ENDBRANCH  27  28
ENDBRANCH  26  27
ENDBRANCH  23  26
ENDBRANCH   1  20
TORSDOF 7
ENDMDL
MODEL 9
REMARK VINA RESULT:      -7.2     16.314     18.615
REMARK  7 active torsions:
REMARK  status: ('A' for Active; 'I' for Inactive)
REMARK    1  A    between atoms: C_2  and  C_3 
REMARK    2  A    between atoms: C_3  and  C_4 
REMARK    3  A    between atoms: C_4  and  O_5 
REMARK    4  A    between atoms: O_5  and  C_6 
REMARK    5  A    between atoms: C_9  and  C_10 
REMARK       I    between atoms: C_10  and  N_11 
REMARK    6  A    between atoms: N_11  and  C_12 
REMARK    7  A    between atoms: C_19  and  C_20 
REMARK       I    between atoms: C_20  and  N_21 
ROOT
HETATM    1  C   UNL     1      42.554 -31.911   1.757  1.00  0.00     0.256 C 
HETATM    2  N   UNL     1      41.911 -31.132   2.704  1.00  0.00    -0.323 N 
HETATM    3  O   UNL     1      42.618 -33.135   1.749  1.00  0.00    -0.267 OA
HETATM    4  H   UNL     1      41.950 -30.131   2.591  1.00  0.00     0.169 HD
ENDROOT
BRANCH   2   5
HETATM    5  C   UNL     1      41.139 -31.579   3.801  1.00  0.00     0.036 A 
HETATM    6  C   UNL     1      39.881 -32.182   3.678  1.00  0.00     0.046 A 
HETATM    7  C   UNL     1      39.166 -32.551   4.840  1.00  0.00     0.030 A 
HETATM    8  C   UNL     1      39.746 -32.328   6.082  1.00  0.00     0.063 A 
HETATM    9  C   UNL     1      37.891 -33.127   5.127  1.00  0.00     0.156 A 
HETATM   10  N   UNL     1      38.838 -32.787   6.995  1.00  0.00    -0.277 N 
HETATM   11  C   UNL     1      41.003 -31.742   6.243  1.00  0.00     0.034 A 
HETATM   12  H   UNL     1      38.931 -32.790   8.004  1.00  0.00     0.189 HD
HETATM   13  N   UNL     1      37.705 -33.269   6.459  1.00  0.00    -0.168 NA
HETATM   14  C   UNL     1      41.680 -31.363   5.078  1.00  0.00     0.032 A 
BRANCH   9  15
HETATM   15  C   UNL     1      36.849 -33.525   4.169  1.00  0.00     0.270 C 
HETATM   16  N   UNL     1      35.816 -32.633   4.068  1.00  0.00    -0.365 N 
HETATM   17  H   UNL     1      35.848 -31.787   4.625  1.00  0.00     0.159 HD
HETATM   18  H   UNL     1      35.069 -32.809   3.415  1.00  0.00     0.159 HD
HETATM   19  O   UNL     1      36.871 -34.548   3.494  1.00  0.00    -0.266 OA
ENDBRANCH   9  15
ENDBRANCH   2   5
BRANCH   1  20
HETATM   20  C   UNL     1      43.204 -31.167   0.631  1.00  0.00     0.032 A 
HETATM   21  C   UNL     1      43.855 -31.800  -0.437  1.00  0.00     0.020 A 
HETATM   22  C   UNL     1      44.483 -31.041  -1.436  1.00  0.00     0.038 A 
HETATM   23  C   UNL     1      44.454 -29.648  -1.384  1.00  0.00     0.068 A 
HETATM   24  C   UNL     1      43.764 -29.017  -0.349  1.00  0.00     0.038 A 
HETATM   25  C   UNL     1      43.146 -29.768   0.654  1.00  0.00     0.020 A 
BRANCH  23  26
HETATM   26  O   UNL     1      45.032 -28.804  -2.290  1.00  0.00    -0.351 OA
BRANCH  26  27
HETATM   27  C   UNL     1      46.440 -28.950  -2.495  1.00  0.00     0.176 C 
BRANCH  27  28
HETATM   28  C   UNL     1      47.145 -27.913  -1.620  1.00  0.00     0.030 C 
BRANCH  28  29
HETATM   29  C   UNL     1      47.891 -28.518  -0.420  1.00  0.00    -0.021 C 
HETATM   30  C   UNL     1      48.060 -30.034  -0.544  1.00  0.00     0.009 C 
HETATM   31  C   UNL     1      47.147 -28.187   0.876  1.00  0.00     0.009 C 
ENDBRANCH  28  29
ENDBRANCH  27  28
ENDBRANCH  26  27
ENDBRANCH  23  26
ENDBRANCH   1  20
TORSDOF 7
ENDMDL
MODEL 10
REMARK VINA RESULT:      -7.1      1.756      2.762
REMARK  7 active torsions:
REMARK  status: ('A' for Active; 'I' for Inactive)
REMARK    1  A    between atoms: C_2  and  C_3 
REMARK    2  A    between atoms: C_3  and  C_4 
REMARK    3  A    between atoms: C_4  and  O_5 
REMARK    4  A    between atoms: O_5  and  C_6 
REMARK    5  A    between atoms: C_9  and  C_10 
REMARK       I    between atoms: C_10  and  N_11 
REMARK    6  A    between atoms: N_11  and  C_12 
REMARK    7  A    between atoms: C_19  and  C_20 
REMARK       I    between atoms: C_20  and  N_21 
ROOT
HETATM    1  C   UNL     1      42.226 -11.471   6.181  1.00  0.00     0.256 C 
HETATM    2  N   UNL     1      43.276 -12.147   5.581  1.00  0.00    -0.323 N 
HETATM    3  O   UNL     1      41.033 -11.695   6.015  1.00  0.00    -0.267 OA
HETATM    4  H   UNL     1      44.213 -11.846   5.802  1.00  0.00     0.169 HD
ENDROOT
BRANCH   2   5
HETATM    5  C   UNL     1      43.195 -13.270   4.725  1.00  0.00     0.036 A 
HETATM    6  C   UNL     1      43.235 -14.597   5.171  1.00  0.00     0.046 A 
HETATM    7  C   UNL     1      43.195 -15.651   4.231  1.00  0.00     0.030 A 
HETATM    8  C   UNL     1      43.091 -15.341   2.881  1.00  0.00     0.063 A 
HETATM    9  C   UNL     1      43.253 -17.077   4.277  1.00  0.00     0.156 A 
HETATM   10  N   UNL     1      43.067 -16.544   2.232  1.00  0.00    -0.277 N 
HETATM   11  C   UNL     1      43.037 -14.031   2.401  1.00  0.00     0.034 A 
HETATM   12  H   UNL     1      42.992 -16.701   1.234  1.00  0.00     0.189 HD
HETATM   13  N   UNL     1      43.170 -17.613   3.038  1.00  0.00    -0.168 NA
HETATM   14  C   UNL     1      43.103 -13.005   3.351  1.00  0.00     0.032 A 
BRANCH   9  15
HETATM   15  C   UNL     1      43.402 -17.932   5.464  1.00  0.00     0.270 C 
HETATM   16  N   UNL     1      44.033 -19.121   5.218  1.00  0.00    -0.365 N 
HETATM   17  H   UNL     1      44.356 -19.314   4.277  1.00  0.00     0.159 HD
HETATM   18  H   UNL     1      44.205 -19.760   5.978  1.00  0.00     0.159 HD
HETATM   19  O   UNL     1      43.020 -17.639   6.592  1.00  0.00    -0.266 OA
ENDBRANCH   9  15
ENDBRANCH   2   5
BRANCH   1  20
HETATM   20  C   UNL     1      42.611 -10.385   7.139  1.00  0.00     0.032 A 
HETATM   21  C   UNL     1      43.932 -10.141   7.537  1.00  0.00     0.020 A 
HETATM   22  C   UNL     1      44.217  -9.137   8.474  1.00  0.00     0.038 A 
HETATM   23  C   UNL     1      43.189  -8.360   9.008  1.00  0.00     0.068 A 
HETATM   24  C   UNL     1      41.879  -8.569   8.575  1.00  0.00     0.038 A 
HETATM   25  C   UNL     1      41.589  -9.575   7.651  1.00  0.00     0.020 A 
BRANCH  23  26
HETATM   26  O   UNL     1      43.339  -7.361   9.928  1.00  0.00    -0.351 OA
BRANCH  26  27
HETATM   27  C   UNL     1      42.649  -7.525  11.170  1.00  0.00     0.176 C 
BRANCH  27  28
HETATM   28  C   UNL     1      43.524  -8.393  12.075  1.00  0.00     0.030 C 
BRANCH  28  29
HETATM   29  C   UNL     1      42.915  -9.768  12.394  1.00  0.00    -0.021 C 
HETATM   30  C   UNL     1      43.645 -10.907  11.680  1.00  0.00     0.009 C 
HETATM   31  C   UNL     1      41.434  -9.783  12.007  1.00  0.00     0.009 C 
ENDBRANCH  28  29
ENDBRANCH  27  28
ENDBRANCH  26  27
ENDBRANCH  23  26
ENDBRANCH   1  20
TORSDOF 7
ENDMDL
