MODEL 1
REMARK VINA RESULT:      -7.8      0.000      0.000
REMARK  1 active torsions:
REMARK  status: ('A' for Active; 'I' for Inactive)
REMARK    1  A    between atoms: C_8  and  C_9 
ROOT
HETATM    1  C   UNL     1      43.520 -15.006   1.582  1.00  0.00     0.073 C 
HETATM    2  C   UNL     1      42.287 -15.333   2.344  1.00  0.00     0.062 C 
HETATM    3  N   UNL     1      41.122 -15.439   1.695  1.00  0.00    -0.178 NA
HETATM    4  N   UNL     1      40.248 -15.768   2.655  1.00  0.00    -0.262 N 
HETATM    5  H   UNL     1      39.280 -15.912   2.389  1.00  0.00     0.191 HD
HETATM    6  C   UNL     1      40.785 -15.741   3.911  1.00  0.00     0.134 C 
HETATM    7  C   UNL     1      42.147 -15.586   3.747  1.00  0.00     0.032 C 
HETATM    8  C   UNL     1      43.252 -15.730   4.739  1.00  0.00     0.119 C 
HETATM    9  S   UNL     1      43.121 -14.901   6.344  1.00  0.00    -0.141 SA
HETATM   10  C   UNL     1      41.397 -14.339   6.447  1.00  0.00     0.136 C 
HETATM   11  C   UNL     1      41.120 -13.061   5.661  1.00  0.00     0.031 C 
HETATM   12  C   UNL     1      40.345 -15.433   6.272  1.00  0.00     0.236 C 
HETATM   13  O   UNL     1      39.696 -15.853   7.236  1.00  0.00    -0.272 OA
HETATM   14  N   UNL     1      40.011 -15.895   5.029  1.00  0.00    -0.311 N 
HETATM   15  H   UNL     1      39.130 -16.393   4.983  1.00  0.00     0.170 HD
ENDROOT
BRANCH   8  16
HETATM   16  C   UNL     1      43.500 -17.237   4.854  1.00  0.00    -0.040 A 
HETATM   17  C   UNL     1      43.307 -17.879   6.093  1.00  0.00     0.010 A 
HETATM   18  C   UNL     1      43.558 -19.246   6.248  1.00  0.00     0.024 A 
HETATM   19  C   UNL     1      43.999 -19.997   5.162  1.00  0.00     0.034 A 
HETATM   20 CL   UNL     1      44.312 -21.677   5.353  1.00  0.00    -0.084 Cl
HETATM   21  C   UNL     1      44.187 -19.392   3.924  1.00  0.00     0.024 A 
HETATM   22  C   UNL     1      43.943 -18.024   3.773  1.00  0.00     0.010 A 
ENDBRANCH   8  16
TORSDOF 1
ENDMDL
MODEL 2
REMARK VINA RESULT:      -7.4      2.492      3.253
REMARK  1 active torsions:
REMARK  status: ('A' for Active; 'I' for Inactive)
REMARK    1  A    between atoms: C_8  and  C_9 
ROOT
HETATM    1  C   UNL     1      41.316 -12.001   0.193  1.00  0.00     0.073 C 
HETATM    2  C   UNL     1      40.473 -12.492   1.314  1.00  0.00     0.062 C 
HETATM    3  N   UNL     1      39.156 -12.637   1.132  1.00  0.00    -0.178 NA
HETATM    4  N   UNL     1      38.720 -13.117   2.303  1.00  0.00    -0.262 N 
HETATM    5  H   UNL     1      37.730 -13.316   2.398  1.00  0.00     0.191 HD
HETATM    6  C   UNL     1      39.686 -13.153   3.268  1.00  0.00     0.134 C 
HETATM    7  C   UNL     1      40.880 -12.874   2.634  1.00  0.00     0.032 C 
HETATM    8  C   UNL     1      42.280 -13.010   3.128  1.00  0.00     0.119 C 
HETATM    9  S   UNL     1      42.722 -12.334   4.749  1.00  0.00    -0.141 SA
HETATM   10  C   UNL     1      41.139 -11.927   5.539  1.00  0.00     0.136 C 
HETATM   11  C   UNL     1      40.532 -10.613   5.055  1.00  0.00     0.031 C 
HETATM   12  C   UNL     1      40.148 -13.084   5.645  1.00  0.00     0.236 C 
HETATM   13  O   UNL     1      39.925 -13.636   6.727  1.00  0.00    -0.272 OA
HETATM   14  N   UNL     1      39.394 -13.464   4.569  1.00  0.00    -0.311 N 
HETATM   15  H   UNL     1      38.583 -14.026   4.795  1.00  0.00     0.170 HD
ENDROOT
BRANCH   8  16
HETATM   16  C   UNL     1      42.620 -14.496   2.978  1.00  0.00    -0.040 A 
HETATM   17  C   UNL     1      42.609 -15.328   4.115  1.00  0.00     0.010 A 
HETATM   18  C   UNL     1      42.949 -16.682   4.026  1.00  0.00     0.024 A 
HETATM   19  C   UNL     1      43.298 -17.229   2.795  1.00  0.00     0.034 A 
HETATM   20 CL   UNL     1      43.720 -18.892   2.685  1.00  0.00    -0.084 Cl
HETATM   21  C   UNL     1      43.307 -16.434   1.654  1.00  0.00     0.024 A 
HETATM   22  C   UNL     1      42.974 -15.079   1.746  1.00  0.00     0.010 A 
ENDBRANCH   8  16
TORSDOF 1
ENDMDL
MODEL 3
REMARK VINA RESULT:      -7.3      2.909      3.775
REMARK  1 active torsions:
REMARK  status: ('A' for Active; 'I' for Inactive)
REMARK    1  A    between atoms: C_8  and  C_9 
ROOT
HETATM    1  C   UNL     1      44.636 -11.886   6.768  1.00  0.00     0.073 C 
HETATM    2  C   UNL     1      43.942 -11.984   5.457  1.00  0.00     0.062 C 
HETATM    3  N   UNL     1      44.409 -11.292   4.412  1.00  0.00    -0.178 NA
HETATM    4  N   UNL     1      43.589 -11.629   3.410  1.00  0.00    -0.262 N 
HETATM    5  H   UNL     1      43.759 -11.223   2.496  1.00  0.00     0.191 HD
HETATM    6  C   UNL     1      42.535 -12.403   3.807  1.00  0.00     0.134 C 
HETATM    7  C   UNL     1      42.792 -12.767   5.114  1.00  0.00     0.032 C 
HETATM    8  C   UNL     1      42.123 -13.788   5.971  1.00  0.00     0.119 C 
HETATM    9  S   UNL     1      40.315 -13.813   6.081  1.00  0.00    -0.141 SA
HETATM   10  C   UNL     1      39.746 -12.708   4.758  1.00  0.00     0.136 C 
HETATM   11  C   UNL     1      39.839 -11.227   5.113  1.00  0.00     0.031 C 
HETATM   12  C   UNL     1      40.247 -13.057   3.357  1.00  0.00     0.236 C 
HETATM   13  O   UNL     1      39.493 -13.561   2.518  1.00  0.00    -0.272 OA
HETATM   14  N   UNL     1      41.509 -12.716   2.957  1.00  0.00    -0.311 N 
HETATM   15  H   UNL     1      41.654 -12.725   1.954  1.00  0.00     0.170 HD
ENDROOT
BRANCH   8  16
HETATM   16  C   UNL     1      42.723 -15.131   5.544  1.00  0.00    -0.040 A 
HETATM   17  C   UNL     1      43.863 -15.624   6.208  1.00  0.00     0.010 A 
HETATM   18  C   UNL     1      44.463 -16.828   5.823  1.00  0.00     0.024 A 
HETATM   19  C   UNL     1      43.924 -17.565   4.773  1.00  0.00     0.034 A 
HETATM   20 CL   UNL     1      44.663 -19.043   4.297  1.00  0.00    -0.084 Cl
HETATM   21  C   UNL     1      42.793 -17.108   4.106  1.00  0.00     0.024 A 
HETATM   22  C   UNL     1      42.199 -15.901   4.487  1.00  0.00     0.010 A 
ENDBRANCH   8  16
TORSDOF 1
ENDMDL
MODEL 4
REMARK VINA RESULT:      -7.3      2.990      4.236
REMARK  1 active torsions:
REMARK  status: ('A' for Active; 'I' for Inactive)
REMARK    1  A    between atoms: C_8  and  C_9 
ROOT
HETATM    1  C   UNL     1      39.143 -12.684   3.209  1.00  0.00     0.073 C 
HETATM    2  C   UNL     1      39.923 -12.877   4.458  1.00  0.00     0.062 C 
HETATM    3  N   UNL     1      39.276 -13.079   5.612  1.00  0.00    -0.178 NA
HETATM    4  N   UNL     1      40.258 -13.244   6.507  1.00  0.00    -0.262 N 
HETATM    5  H   UNL     1      40.000 -13.424   7.471  1.00  0.00     0.191 HD
HETATM    6  C   UNL     1      41.504 -13.019   5.993  1.00  0.00     0.134 C 
HETATM    7  C   UNL     1      41.345 -12.900   4.628  1.00  0.00     0.032 C 
HETATM    8  C   UNL     1      42.370 -12.888   3.543  1.00  0.00     0.119 C 
HETATM    9  S   UNL     1      43.817 -11.810   3.697  1.00  0.00    -0.141 SA
HETATM   10  C   UNL     1      43.793 -11.230   5.418  1.00  0.00     0.136 C 
HETATM   11  C   UNL     1      42.806 -10.094   5.669  1.00  0.00     0.031 C 
HETATM   12  C   UNL     1      43.775 -12.332   6.476  1.00  0.00     0.236 C 
HETATM   13  O   UNL     1      44.781 -12.587   7.147  1.00  0.00    -0.272 OA
HETATM   14  N   UNL     1      42.617 -12.985   6.790  1.00  0.00    -0.311 N 
HETATM   15  H   UNL     1      42.633 -13.479   7.674  1.00  0.00     0.170 HD
ENDROOT
BRANCH   8  16
HETATM   16  C   UNL     1      42.731 -14.358   3.311  1.00  0.00    -0.040 A 
HETATM   17  C   UNL     1      42.977 -14.813   2.001  1.00  0.00     0.010 A 
HETATM   18  C   UNL     1      43.272 -16.155   1.743  1.00  0.00     0.024 A 
HETATM   19  C   UNL     1      43.337 -17.065   2.795  1.00  0.00     0.034 A 
HETATM   20 CL   UNL     1      43.697 -18.716   2.479  1.00  0.00    -0.084 Cl
HETATM   21  C   UNL     1      43.110 -16.641   4.100  1.00  0.00     0.024 A 
HETATM   22  C   UNL     1      42.806 -15.300   4.355  1.00  0.00     0.010 A 
ENDBRANCH   8  16
TORSDOF 1
ENDMDL
MODEL 5
REMARK VINA RESULT:      -7.1      3.511      4.794
REMARK  1 active torsions:
REMARK  status: ('A' for Active; 'I' for Inactive)
REMARK    1  A    between atoms: C_8  and  C_9 
ROOT
HETATM    1  C   UNL     1      44.045 -11.582   4.539  1.00  0.00     0.073 C 
HETATM    2  C   UNL     1      42.805 -12.109   5.166  1.00  0.00     0.062 C 
HETATM    3  N   UNL     1      42.001 -11.275   5.836  1.00  0.00    -0.178 NA
HETATM    4  N   UNL     1      40.987 -12.053   6.230  1.00  0.00    -0.262 N 
HETATM    5  H   UNL     1      40.235 -11.625   6.760  1.00  0.00     0.191 HD
HETATM    6  C   UNL     1      41.180 -13.378   5.956  1.00  0.00     0.134 C 
HETATM    7  C   UNL     1      42.296 -13.448   5.148  1.00  0.00     0.032 C 
HETATM    8  C   UNL     1      42.831 -14.591   4.353  1.00  0.00     0.119 C 
HETATM    9  S   UNL     1      43.020 -16.212   5.140  1.00  0.00    -0.141 SA
HETATM   10  C   UNL     1      42.131 -16.078   6.717  1.00  0.00     0.136 C 
HETATM   11  C   UNL     1      42.919 -15.355   7.806  1.00  0.00     0.031 C 
HETATM   12  C   UNL     1      40.667 -15.654   6.606  1.00  0.00     0.236 C 
HETATM   13  O   UNL     1      39.754 -16.466   6.784  1.00  0.00    -0.272 OA
HETATM   14  N   UNL     1      40.328 -14.342   6.423  1.00  0.00    -0.311 N 
HETATM   15  H   UNL     1      39.365 -14.117   6.644  1.00  0.00     0.170 HD
ENDROOT
BRANCH   8  16
HETATM   16  C   UNL     1      41.982 -14.631   3.079  1.00  0.00    -0.040 A 
HETATM   17  C   UNL     1      41.037 -15.662   2.907  1.00  0.00     0.010 A 
HETATM   18  C   UNL     1      40.269 -15.755   1.742  1.00  0.00     0.024 A 
HETATM   19  C   UNL     1      40.427 -14.811   0.731  1.00  0.00     0.034 A 
HETATM   20 CL   UNL     1      39.486 -14.926  -0.703  1.00  0.00    -0.084 Cl
HETATM   21  C   UNL     1      41.345 -13.776   0.878  1.00  0.00     0.024 A 
HETATM   22  C   UNL     1      42.117 -13.689   2.041  1.00  0.00     0.010 A 
ENDBRANCH   8  16
TORSDOF 1
ENDMDL
MODEL 6
REMARK VINA RESULT:      -6.7      4.004      5.893
REMARK  1 active torsions:
REMARK  status: ('A' for Active; 'I' for Inactive)
REMARK    1  A    between atoms: C_8  and  C_9 
ROOT
HETATM    1  C   UNL     1      42.991 -16.543   7.007  1.00  0.00     0.073 C 
HETATM    2  C   UNL     1      41.816 -15.800   6.483  1.00  0.00     0.062 C 
HETATM    3  N   UNL     1      40.603 -16.043   6.993  1.00  0.00    -0.178 NA
HETATM    4  N   UNL     1      39.801 -15.199   6.334  1.00  0.00    -0.262 N 
HETATM    5  H   UNL     1      38.814 -15.200   6.566  1.00  0.00     0.191 HD
HETATM    6  C   UNL     1      40.432 -14.524   5.327  1.00  0.00     0.134 C 
HETATM    7  C   UNL     1      41.779 -14.789   5.468  1.00  0.00     0.032 C 
HETATM    8  C   UNL     1      42.954 -14.144   4.814  1.00  0.00     0.119 C 
HETATM    9  S   UNL     1      42.956 -13.909   3.018  1.00  0.00    -0.141 SA
HETATM   10  C   UNL     1      41.252 -14.255   2.494  1.00  0.00     0.136 C 
HETATM   11  C   UNL     1      40.932 -15.744   2.392  1.00  0.00     0.031 C 
HETATM   12  C   UNL     1      40.176 -13.421   3.187  1.00  0.00     0.236 C 
HETATM   13  O   UNL     1      39.597 -12.507   2.591  1.00  0.00    -0.272 OA
HETATM   14  N   UNL     1      39.743 -13.737   4.444  1.00  0.00    -0.311 N 
HETATM   15  H   UNL     1      38.855 -13.326   4.705  1.00  0.00     0.170 HD
ENDROOT
BRANCH   8  16
HETATM   16  C   UNL     1      43.191 -12.848   5.594  1.00  0.00    -0.040 A 
HETATM   17  C   UNL     1      44.011 -12.868   6.739  1.00  0.00     0.010 A 
HETATM   18  C   UNL     1      44.222 -11.713   7.501  1.00  0.00     0.024 A 
HETATM   19  C   UNL     1      43.622 -10.515   7.123  1.00  0.00     0.034 A 
HETATM   20 CL   UNL     1      43.878  -9.097   8.060  1.00  0.00    -0.084 Cl
HETATM   21  C   UNL     1      42.816 -10.464   5.991  1.00  0.00     0.024 A 
HETATM   22  C   UNL     1      42.600 -11.620   5.236  1.00  0.00     0.010 A 
ENDBRANCH   8  16
TORSDOF 1
ENDMDL
MODEL 7
REMARK VINA RESULT:      -6.4      4.312      6.173
REMARK  1 active torsions:
REMARK  status: ('A' for Active; 'I' for Inactive)
REMARK    1  A    between atoms: C_8  and  C_9 
ROOT
HETATM    1  C   UNL     1      40.793  -9.966   2.742  1.00  0.00     0.073 C 
HETATM    2  C   UNL     1      40.332 -11.277   3.267  1.00  0.00     0.062 C 
HETATM    3  N   UNL     1      39.306 -11.318   4.124  1.00  0.00    -0.178 NA
HETATM    4  N   UNL     1      39.137 -12.624   4.362  1.00  0.00    -0.262 N 
HETATM    5  H   UNL     1      38.392 -12.902   4.992  1.00  0.00     0.191 HD
HETATM    6  C   UNL     1      40.103 -13.409   3.798  1.00  0.00     0.134 C 
HETATM    7  C   UNL     1      40.834 -12.585   2.966  1.00  0.00     0.032 C 
HETATM    8  C   UNL     1      41.845 -12.932   1.925  1.00  0.00     0.119 C 
HETATM    9  S   UNL     1      43.179 -14.088   2.330  1.00  0.00    -0.141 SA
HETATM   10  C   UNL     1      42.702 -14.823   3.919  1.00  0.00     0.136 C 
HETATM   11  C   UNL     1      42.990 -13.928   5.121  1.00  0.00     0.031 C 
HETATM   12  C   UNL     1      41.328 -15.492   3.941  1.00  0.00     0.236 C 
HETATM   13  O   UNL     1      41.219 -16.723   3.957  1.00  0.00    -0.272 OA
HETATM   14  N   UNL     1      40.187 -14.749   4.061  1.00  0.00    -0.311 N 
HETATM   15  H   UNL     1      39.368 -15.271   4.350  1.00  0.00     0.170 HD
ENDROOT
BRANCH   8  16
HETATM   16  C   UNL     1      41.033 -13.349   0.696  1.00  0.00    -0.040 A 
HETATM   17  C   UNL     1      40.770 -12.404  -0.315  1.00  0.00     0.010 A 
HETATM   18  C   UNL     1      40.001 -12.735  -1.435  1.00  0.00     0.024 A 
HETATM   19  C   UNL     1      39.490 -14.023  -1.568  1.00  0.00     0.034 A 
HETATM   20 CL   UNL     1      38.542 -14.431  -2.944  1.00  0.00    -0.084 Cl
HETATM   21  C   UNL     1      39.743 -14.980  -0.592  1.00  0.00     0.024 A 
HETATM   22  C   UNL     1      40.506 -14.644   0.531  1.00  0.00     0.010 A 
ENDBRANCH   8  16
TORSDOF 1
ENDMDL
MODEL 8
REMARK VINA RESULT:      -6.4     13.628     14.906
REMARK  1 active torsions:
REMARK  status: ('A' for Active; 'I' for Inactive)
REMARK    1  A    between atoms: C_8  and  C_9 
ROOT
HETATM    1  C   UNL     1      44.333 -31.382  -3.074  1.00  0.00     0.073 C 
HETATM    2  C   UNL     1      44.654 -30.145  -2.315  1.00  0.00     0.062 C 
HETATM    3  N   UNL     1      44.405 -28.952  -2.867  1.00  0.00    -0.178 NA
HETATM    4  N   UNL     1      44.772 -28.078  -1.923  1.00  0.00    -0.262 N 
HETATM    5  H   UNL     1      44.662 -27.089  -2.119  1.00  0.00     0.191 HD
HETATM    6  C   UNL     1      45.373 -28.664  -0.845  1.00  0.00     0.134 C 
HETATM    7  C   UNL     1      45.205 -30.025  -0.998  1.00  0.00     0.032 C 
HETATM    8  C   UNL     1      45.436 -31.133  -0.027  1.00  0.00     0.119 C 
HETATM    9  S   UNL     1      46.996 -31.200   0.891  1.00  0.00    -0.141 SA
HETATM   10  C   UNL     1      47.787 -29.593   0.598  1.00  0.00     0.136 C 
HETATM   11  C   UNL     1      48.483 -29.489  -0.756  1.00  0.00     0.031 C 
HETATM   12  C   UNL     1      46.945 -28.375   0.975  1.00  0.00     0.236 C 
HETATM   13  O   UNL     1      47.205 -27.708   1.981  1.00  0.00    -0.272 OA
HETATM   14  N   UNL     1      45.956 -27.921   0.147  1.00  0.00    -0.311 N 
HETATM   15  H   UNL     1      45.653 -26.972   0.327  1.00  0.00     0.170 HD
ENDROOT
BRANCH   8  16
HETATM   16  C   UNL     1      44.200 -31.144   0.877  1.00  0.00    -0.040 A 
HETATM   17  C   UNL     1      44.252 -30.505   2.131  1.00  0.00     0.010 A 
HETATM   18  C   UNL     1      43.157 -30.525   3.001  1.00  0.00     0.024 A 
HETATM   19  C   UNL     1      41.986 -31.178   2.626  1.00  0.00     0.034 A 
HETATM   20 CL   UNL     1      40.641 -31.206   3.697  1.00  0.00    -0.084 Cl
HETATM   21  C   UNL     1      41.903 -31.808   1.390  1.00  0.00     0.024 A 
HETATM   22  C   UNL     1      43.001 -31.793   0.524  1.00  0.00     0.010 A 
ENDBRANCH   8  16
TORSDOF 1
ENDMDL
MODEL 9
REMARK VINA RESULT:      -6.4     18.316     19.801
REMARK  1 active torsions:
REMARK  status: ('A' for Active; 'I' for Inactive)
REMARK    1  A    between atoms: C_8  and  C_9 
ROOT
HETATM    1  C   UNL     1      62.699 -11.059   3.231  1.00  0.00     0.073 C 
HETATM    2  C   UNL     1      61.243 -10.766   3.303  1.00  0.00     0.062 C 
HETATM    3  N   UNL     1      60.680 -10.520   4.492  1.00  0.00    -0.178 NA
HETATM    4  N   UNL     1      59.400 -10.270   4.195  1.00  0.00    -0.262 N 
HETATM    5  H   UNL     1      58.769 -10.044   4.957  1.00  0.00     0.191 HD
HETATM    6  C   UNL     1      59.095 -10.482   2.880  1.00  0.00     0.134 C 
HETATM    7  C   UNL     1      60.296 -10.685   2.232  1.00  0.00     0.032 C 
HETATM    8  C   UNL     1      60.600 -10.724   0.772  1.00  0.00     0.119 C 
HETATM    9  S   UNL     1      59.576 -11.741  -0.323  1.00  0.00    -0.141 SA
HETATM   10  C   UNL     1      58.142 -12.221   0.680  1.00  0.00     0.136 C 
HETATM   11  C   UNL     1      58.422 -13.374   1.640  1.00  0.00     0.031 C 
HETATM   12  C   UNL     1      57.359 -11.061   1.294  1.00  0.00     0.236 C 
HETATM   13  O   UNL     1      56.254 -10.733   0.850  1.00  0.00    -0.272 OA
HETATM   14  N   UNL     1      57.806 -10.430   2.422  1.00  0.00    -0.311 N 
HETATM   15  H   UNL     1      57.106  -9.886   2.911  1.00  0.00     0.170 HD
ENDROOT
BRANCH   8  16
HETATM   16  C   UNL     1      60.683  -9.259   0.335  1.00  0.00    -0.040 A 
HETATM   17  C   UNL     1      59.667  -8.717  -0.476  1.00  0.00     0.010 A 
HETATM   18  C   UNL     1      59.726  -7.395  -0.926  1.00  0.00     0.024 A 
HETATM   19  C   UNL     1      60.799  -6.586  -0.563  1.00  0.00     0.034 A 
HETATM   20 CL   UNL     1      60.874  -4.961  -1.119  1.00  0.00    -0.084 Cl
HETATM   21  C   UNL     1      61.811  -7.090   0.247  1.00  0.00     0.024 A 
HETATM   22  C   UNL     1      61.755  -8.415   0.689  1.00  0.00     0.010 A 
ENDBRANCH   8  16
TORSDOF 1
ENDMDL
MODEL 10
REMARK VINA RESULT:      -6.3      3.976      5.692
REMARK  1 active torsions:
REMARK  status: ('A' for Active; 'I' for Inactive)
REMARK    1  A    between atoms: C_8  and  C_9 
ROOT
HETATM    1  C   UNL     1      43.443 -16.174   4.037  1.00  0.00     0.073 C 
HETATM    2  C   UNL     1      42.127 -15.518   4.250  1.00  0.00     0.062 C 
HETATM    3  N   UNL     1      41.101 -16.238   4.717  1.00  0.00    -0.178 NA
HETATM    4  N   UNL     1      40.105 -15.350   4.818  1.00  0.00    -0.262 N 
HETATM    5  H   UNL     1      39.210 -15.675   5.168  1.00  0.00     0.191 HD
HETATM    6  C   UNL     1      40.416 -14.123   4.305  1.00  0.00     0.134 C 
HETATM    7  C   UNL     1      41.770 -14.147   4.037  1.00  0.00     0.032 C 
HETATM    8  C   UNL     1      42.697 -13.029   3.696  1.00  0.00     0.119 C 
HETATM    9  S   UNL     1      42.232 -11.848   2.404  1.00  0.00    -0.141 SA
HETATM   10  C   UNL     1      40.478 -12.179   2.071  1.00  0.00     0.136 C 
HETATM   11  C   UNL     1      40.241 -13.392   1.176  1.00  0.00     0.031 C 
HETATM   12  C   UNL     1      39.558 -12.100   3.288  1.00  0.00     0.236 C 
HETATM   13  O   UNL     1      38.788 -11.146   3.443  1.00  0.00    -0.272 OA
HETATM   14  N   UNL     1      39.477 -13.135   4.176  1.00  0.00    -0.311 N 
HETATM   15  H   UNL     1      38.658 -13.122   4.772  1.00  0.00     0.170 HD
ENDROOT
BRANCH   8  16
HETATM   16  C   UNL     1      43.037 -12.362   5.032  1.00  0.00    -0.040 A 
HETATM   17  C   UNL     1      42.547 -11.071   5.307  1.00  0.00     0.010 A 
HETATM   18  C   UNL     1      42.866 -10.413   6.500  1.00  0.00     0.024 A 
HETATM   19  C   UNL     1      43.672 -11.042   7.444  1.00  0.00     0.034 A 
HETATM   20 CL   UNL     1      44.067 -10.233   8.909  1.00  0.00    -0.084 Cl
HETATM   21  C   UNL     1      44.161 -12.322   7.204  1.00  0.00     0.024 A 
HETATM   22  C   UNL     1      43.848 -12.975   6.008  1.00  0.00     0.010 A 
ENDBRANCH   8  16
TORSDOF 1
ENDMDL
