MODEL 1
REMARK VINA RESULT:      -8.2      0.000      0.000
REMARK  8 active torsions:
REMARK  status: ('A' for Active; 'I' for Inactive)
REMARK    1  A    between atoms: C_2  and  O_3 
REMARK    2  A    between atoms: O_3  and  C_4 
REMARK    3  A    between atoms: C_5  and  O_6 
REMARK    4  A    between atoms: O_6  and  C_7 
REMARK    5  A    between atoms: C_10  and  C_11 
REMARK    6  A    between atoms: C_11  and  N_12 
REMARK    7  A    between atoms: N_12  and  C_13 
REMARK    8  A    between atoms: C_20  and  C_21 
REMARK       I    between atoms: C_21  and  N_22 
ROOT
HETATM    1  C   UNL     1      40.266 -14.622   0.984  1.00  0.00     0.009 A 
HETATM    2  C   UNL     1      39.636 -14.921  -0.239  1.00  0.00     0.039 A 
HETATM    3  C   UNL     1      39.766 -14.052  -1.343  1.00  0.00     0.030 A 
HETATM    4  C   UNL     1      40.495 -12.882  -1.187  1.00  0.00     0.063 A 
HETATM    5  N   UNL     1      40.436 -12.254  -2.399  1.00  0.00    -0.277 N 
HETATM    6  H   UNL     1      40.855 -11.366  -2.650  1.00  0.00     0.189 HD
HETATM    7  N   UNL     1      39.735 -12.915  -3.335  1.00  0.00    -0.168 NA
HETATM    8  C   UNL     1      39.311 -14.029  -2.695  1.00  0.00     0.156 A 
HETATM    9  C   UNL     1      41.102 -12.523   0.016  1.00  0.00     0.034 A 
HETATM   10  C   UNL     1      40.958 -13.409   1.094  1.00  0.00     0.026 A 
ENDROOT
BRANCH   1  11
HETATM   11  N   UNL     1      40.046 -15.483   2.066  1.00  0.00    -0.289 NA
HETATM   12  H   UNL     1      40.154 -16.463   1.805  1.00  0.00     0.128 HD
BRANCH  11  13
HETATM   13  C   UNL     1      40.644 -15.185   3.358  1.00  0.00     0.131 C 
BRANCH  13  14
HETATM   14  C   UNL     1      41.724 -16.197   3.661  1.00  0.00    -0.042 A 
HETATM   15  C   UNL     1      42.037 -16.542   4.985  1.00  0.00     0.048 A 
HETATM   16  C   UNL     1      43.030 -17.491   5.263  1.00  0.00     0.102 A 
HETATM   17  C   UNL     1      43.720 -18.109   4.202  1.00  0.00     0.102 A 
HETATM   18  C   UNL     1      43.426 -17.749   2.884  1.00  0.00     0.040 A 
HETATM   19  C   UNL     1      42.436 -16.800   2.617  1.00  0.00     0.011 A 
BRANCH  16  20
HETATM   20  O   UNL     1      43.386 -17.893   6.527  1.00  0.00    -0.349 OA
BRANCH  20  21
HETATM   21  C   UNL     1      43.812 -16.897   7.451  1.00  0.00     0.171 C 
HETATM   22  C   UNL     1      45.012 -16.186   6.853  1.00  0.00     0.034 C 
ENDBRANCH  20  21
ENDBRANCH  16  20
BRANCH  17  23
HETATM   23  O   UNL     1      44.670 -19.037   4.558  1.00  0.00    -0.349 OA
BRANCH  23  24
HETATM   24  C   UNL     1      44.221 -20.346   4.894  1.00  0.00     0.171 C 
HETATM   25  C   UNL     1      43.883 -21.070   3.603  1.00  0.00     0.034 C 
ENDBRANCH  23  24
ENDBRANCH  17  23
ENDBRANCH  13  14
ENDBRANCH  11  13
ENDBRANCH   1  11
BRANCH   8  26
HETATM   26  C   UNL     1      38.493 -15.039  -3.378  1.00  0.00     0.270 C 
HETATM   27  N   UNL     1      38.293 -16.181  -2.650  1.00  0.00    -0.365 N 
HETATM   28  H   UNL     1      38.708 -16.247  -1.728  1.00  0.00     0.159 HD
HETATM   29  H   UNL     1      37.745 -16.933  -3.037  1.00  0.00     0.159 HD
HETATM   30  O   UNL     1      38.013 -14.907  -4.499  1.00  0.00    -0.266 OA
ENDBRANCH   8  26
TORSDOF 8
ENDMDL
MODEL 2
REMARK VINA RESULT:      -8.1      5.696      8.734
REMARK  8 active torsions:
REMARK  status: ('A' for Active; 'I' for Inactive)
REMARK    1  A    between atoms: C_2  and  O_3 
REMARK    2  A    between atoms: O_3  and  C_4 
REMARK    3  A    between atoms: C_5  and  O_6 
REMARK    4  A    between atoms: O_6  and  C_7 
REMARK    5  A    between atoms: C_10  and  C_11 
REMARK    6  A    between atoms: C_11  and  N_12 
REMARK    7  A    between atoms: N_12  and  C_13 
REMARK    8  A    between atoms: C_20  and  C_21 
REMARK       I    between atoms: C_21  and  N_22 
ROOT
HETATM    1  C   UNL     1      43.756 -12.270   7.038  1.00  0.00     0.009 A 
HETATM    2  C   UNL     1      43.513 -11.127   7.823  1.00  0.00     0.039 A 
HETATM    3  C   UNL     1      44.488 -10.115   7.937  1.00  0.00     0.030 A 
HETATM    4  C   UNL     1      45.704 -10.286   7.290  1.00  0.00     0.063 A 
HETATM    5  N   UNL     1      46.433  -9.169   7.588  1.00  0.00    -0.277 N 
HETATM    6  H   UNL     1      47.377  -8.955   7.287  1.00  0.00     0.189 HD
HETATM    7  N   UNL     1      45.797  -8.281   8.370  1.00  0.00    -0.168 NA
HETATM    8  C   UNL     1      44.593  -8.854   8.597  1.00  0.00     0.156 A 
HETATM    9  C   UNL     1      46.007 -11.419   6.535  1.00  0.00     0.034 A 
HETATM   10  C   UNL     1      45.015 -12.406   6.438  1.00  0.00     0.026 A 
ENDROOT
BRANCH   1  11
HETATM   11  N   UNL     1      42.782 -13.275   7.016  1.00  0.00    -0.289 NA
HETATM   12  H   UNL     1      42.256 -13.281   6.142  1.00  0.00     0.128 HD
BRANCH  11  13
HETATM   13  C   UNL     1      43.117 -14.615   7.471  1.00  0.00     0.131 C 
BRANCH  13  14
HETATM   14  C   UNL     1      43.191 -15.548   6.284  1.00  0.00    -0.042 A 
HETATM   15  C   UNL     1      42.202 -15.527   5.289  1.00  0.00     0.048 A 
HETATM   16  C   UNL     1      42.279 -16.384   4.183  1.00  0.00     0.102 A 
HETATM   17  C   UNL     1      43.364 -17.276   4.066  1.00  0.00     0.102 A 
HETATM   18  C   UNL     1      44.337 -17.314   5.070  1.00  0.00     0.040 A 
HETATM   19  C   UNL     1      44.250 -16.458   6.170  1.00  0.00     0.011 A 
BRANCH  16  20
HETATM   20  O   UNL     1      41.363 -16.416   3.161  1.00  0.00    -0.349 OA
BRANCH  20  21
HETATM   21  C   UNL     1      41.104 -15.206   2.456  1.00  0.00     0.171 C 
HETATM   22  C   UNL     1      42.315 -14.899   1.594  1.00  0.00     0.034 C 
ENDBRANCH  20  21
ENDBRANCH  16  20
BRANCH  17  23
HETATM   23  O   UNL     1      43.373 -18.073   2.948  1.00  0.00    -0.349 OA
BRANCH  23  24
HETATM   24  C   UNL     1      44.002 -19.347   3.049  1.00  0.00     0.171 C 
HETATM   25  C   UNL     1      43.352 -20.271   2.035  1.00  0.00     0.034 C 
ENDBRANCH  23  24
ENDBRANCH  17  23
ENDBRANCH  13  14
ENDBRANCH  11  13
ENDBRANCH   1  11
BRANCH   8  26
HETATM   26  C   UNL     1      43.576  -8.195   9.426  1.00  0.00     0.270 C 
HETATM   27  N   UNL     1      43.441  -6.854   9.185  1.00  0.00    -0.365 N 
HETATM   28  H   UNL     1      44.032  -6.428   8.480  1.00  0.00     0.159 HD
HETATM   29  H   UNL     1      42.769  -6.316   9.706  1.00  0.00     0.159 HD
HETATM   30  O   UNL     1      42.887  -8.763  10.268  1.00  0.00    -0.266 OA
ENDBRANCH   8  26
TORSDOF 8
ENDMDL
MODEL 3
REMARK VINA RESULT:      -8.1      1.952      2.380
REMARK  8 active torsions:
REMARK  status: ('A' for Active; 'I' for Inactive)
REMARK    1  A    between atoms: C_2  and  O_3 
REMARK    2  A    between atoms: O_3  and  C_4 
REMARK    3  A    between atoms: C_5  and  O_6 
REMARK    4  A    between atoms: O_6  and  C_7 
REMARK    5  A    between atoms: C_10  and  C_11 
REMARK    6  A    between atoms: C_11  and  N_12 
REMARK    7  A    between atoms: N_12  and  C_13 
REMARK    8  A    between atoms: C_20  and  C_21 
REMARK       I    between atoms: C_21  and  N_22 
ROOT
HETATM    1  C   UNL     1      40.038 -13.171   2.005  1.00  0.00     0.009 A 
HETATM    2  C   UNL     1      40.096 -13.111   0.600  1.00  0.00     0.039 A 
HETATM    3  C   UNL     1      40.687 -12.005  -0.046  1.00  0.00     0.030 A 
HETATM    4  C   UNL     1      41.176 -10.963   0.731  1.00  0.00     0.063 A 
HETATM    5  N   UNL     1      41.669 -10.050  -0.157  1.00  0.00    -0.277 N 
HETATM    6  H   UNL     1      42.100  -9.158   0.057  1.00  0.00     0.189 HD
HETATM    7  N   UNL     1      41.549 -10.406  -1.447  1.00  0.00    -0.168 NA
HETATM    8  C   UNL     1      40.940 -11.613  -1.394  1.00  0.00     0.156 A 
HETATM    9  C   UNL     1      41.103 -10.960   2.124  1.00  0.00     0.034 A 
HETATM   10  C   UNL     1      40.513 -12.075   2.736  1.00  0.00     0.026 A 
ENDROOT
BRANCH   1  11
HETATM   11  N   UNL     1      39.378 -14.258   2.591  1.00  0.00    -0.289 NA
HETATM   12  H   UNL     1      38.382 -14.082   2.715  1.00  0.00     0.128 HD
BRANCH  11  13
HETATM   13  C   UNL     1      39.647 -15.607   2.115  1.00  0.00     0.131 C 
BRANCH  13  14
HETATM   14  C   UNL     1      40.866 -16.157   2.819  1.00  0.00    -0.042 A 
HETATM   15  C   UNL     1      40.948 -16.164   4.220  1.00  0.00     0.048 A 
HETATM   16  C   UNL     1      42.074 -16.687   4.870  1.00  0.00     0.102 A 
HETATM   17  C   UNL     1      43.135 -17.215   4.109  1.00  0.00     0.102 A 
HETATM   18  C   UNL     1      43.065 -17.187   2.713  1.00  0.00     0.040 A 
HETATM   19  C   UNL     1      41.940 -16.661   2.074  1.00  0.00     0.011 A 
BRANCH  16  20
HETATM   20  O   UNL     1      42.225 -16.743   6.234  1.00  0.00    -0.349 OA
BRANCH  20  21
HETATM   21  C   UNL     1      41.968 -15.561   6.985  1.00  0.00     0.171 C 
HETATM   22  C   UNL     1      43.224 -14.710   6.963  1.00  0.00     0.034 C 
ENDBRANCH  20  21
ENDBRANCH  16  20
BRANCH  17  23
HETATM   23  O   UNL     1      44.197 -17.719   4.821  1.00  0.00    -0.349 OA
BRANCH  23  24
HETATM   24  C   UNL     1      44.654 -19.027   4.488  1.00  0.00     0.171 C 
HETATM   25  C   UNL     1      43.947 -20.015   5.398  1.00  0.00     0.034 C 
ENDBRANCH  23  24
ENDBRANCH  17  23
ENDBRANCH  13  14
ENDBRANCH  11  13
ENDBRANCH   1  11
BRANCH   8  26
HETATM   26  C   UNL     1      40.618 -12.361  -2.615  1.00  0.00     0.270 C 
HETATM   27  N   UNL     1      41.702 -12.941  -3.218  1.00  0.00    -0.365 N 
HETATM   28  H   UNL     1      42.615 -12.816  -2.796  1.00  0.00     0.159 HD
HETATM   29  H   UNL     1      41.580 -13.475  -4.063  1.00  0.00     0.159 HD
HETATM   30  O   UNL     1      39.490 -12.481  -3.083  1.00  0.00    -0.266 OA
ENDBRANCH   8  26
TORSDOF 8
ENDMDL
MODEL 4
REMARK VINA RESULT:      -8.0      1.866      3.040
REMARK  8 active torsions:
REMARK  status: ('A' for Active; 'I' for Inactive)
REMARK    1  A    between atoms: C_2  and  O_3 
REMARK    2  A    between atoms: O_3  and  C_4 
REMARK    3  A    between atoms: C_5  and  O_6 
REMARK    4  A    between atoms: O_6  and  C_7 
REMARK    5  A    between atoms: C_10  and  C_11 
REMARK    6  A    between atoms: C_11  and  N_12 
REMARK    7  A    between atoms: N_12  and  C_13 
REMARK    8  A    between atoms: C_20  and  C_21 
REMARK       I    between atoms: C_21  and  N_22 
ROOT
HETATM    1  C   UNL     1      39.167 -13.024   1.756  1.00  0.00     0.009 A 
HETATM    2  C   UNL     1      39.608 -13.232   0.435  1.00  0.00     0.039 A 
HETATM    3  C   UNL     1      39.411 -12.243  -0.550  1.00  0.00     0.030 A 
HETATM    4  C   UNL     1      38.741 -11.079  -0.200  1.00  0.00     0.063 A 
HETATM    5  N   UNL     1      38.694 -10.331  -1.342  1.00  0.00    -0.277 N 
HETATM    6  H   UNL     1      38.271  -9.417  -1.460  1.00  0.00     0.189 HD
HETATM    7  N   UNL     1      39.278 -10.903  -2.408  1.00  0.00    -0.168 NA
HETATM    8  C   UNL     1      39.724 -12.089  -1.933  1.00  0.00     0.156 A 
HETATM    9  C   UNL     1      38.249 -10.846   1.084  1.00  0.00     0.034 A 
HETATM   10  C   UNL     1      38.464 -11.847   2.043  1.00  0.00     0.026 A 
ENDROOT
BRANCH   1  11
HETATM   11  N   UNL     1      39.327 -14.067   2.676  1.00  0.00    -0.289 NA
HETATM   12  H   UNL     1      38.599 -14.065   3.389  1.00  0.00     0.128 HD
BRANCH  11  13
HETATM   13  C   UNL     1      39.634 -15.408   2.201  1.00  0.00     0.131 C 
BRANCH  13  14
HETATM   14  C   UNL     1      40.743 -16.000   3.039  1.00  0.00    -0.042 A 
HETATM   15  C   UNL     1      41.701 -16.852   2.468  1.00  0.00     0.048 A 
HETATM   16  C   UNL     1      42.736 -17.389   3.245  1.00  0.00     0.102 A 
HETATM   17  C   UNL     1      42.819 -17.069   4.614  1.00  0.00     0.102 A 
HETATM   18  C   UNL     1      41.851 -16.240   5.189  1.00  0.00     0.040 A 
HETATM   19  C   UNL     1      40.821 -15.711   4.407  1.00  0.00     0.011 A 
BRANCH  16  20
HETATM   20  O   UNL     1      43.719 -18.218   2.761  1.00  0.00    -0.349 OA
BRANCH  20  21
HETATM   21  C   UNL     1      43.320 -19.409   2.091  1.00  0.00     0.171 C 
HETATM   22  C   UNL     1      43.737 -20.590   2.950  1.00  0.00     0.034 C 
ENDBRANCH  20  21
ENDBRANCH  16  20
BRANCH  17  23
HETATM   23  O   UNL     1      43.869 -17.626   5.303  1.00  0.00    -0.349 OA
BRANCH  23  24
HETATM   24  C   UNL     1      43.593 -18.204   6.575  1.00  0.00     0.171 C 
HETATM   25  C   UNL     1      43.414 -19.699   6.381  1.00  0.00     0.034 C 
ENDBRANCH  23  24
ENDBRANCH  17  23
ENDBRANCH  13  14
ENDBRANCH  11  13
ENDBRANCH   1  11
BRANCH   8  26
HETATM   26  C   UNL     1      40.435 -13.040  -2.797  1.00  0.00     0.270 C 
HETATM   27  N   UNL     1      41.678 -12.620  -3.187  1.00  0.00    -0.365 N 
HETATM   28  H   UNL     1      42.007 -11.716  -2.865  1.00  0.00     0.159 HD
HETATM   29  H   UNL     1      42.242 -13.204  -3.783  1.00  0.00     0.159 HD
HETATM   30  O   UNL     1      39.989 -14.125  -3.157  1.00  0.00    -0.266 OA
ENDBRANCH   8  26
TORSDOF 8
ENDMDL
MODEL 5
REMARK VINA RESULT:      -7.8      2.250      3.973
REMARK  8 active torsions:
REMARK  status: ('A' for Active; 'I' for Inactive)
REMARK    1  A    between atoms: C_2  and  O_3 
REMARK    2  A    between atoms: O_3  and  C_4 
REMARK    3  A    between atoms: C_5  and  O_6 
REMARK    4  A    between atoms: O_6  and  C_7 
REMARK    5  A    between atoms: C_10  and  C_11 
REMARK    6  A    between atoms: C_11  and  N_12 
REMARK    7  A    between atoms: N_12  and  C_13 
REMARK    8  A    between atoms: C_20  and  C_21 
REMARK       I    between atoms: C_21  and  N_22 
ROOT
HETATM    1  C   UNL     1      39.873 -13.910   0.080  1.00  0.00     0.009 A 
HETATM    2  C   UNL     1      40.402 -12.606   0.038  1.00  0.00     0.039 A 
HETATM    3  C   UNL     1      40.646 -11.971  -1.198  1.00  0.00     0.030 A 
HETATM    4  C   UNL     1      40.388 -12.671  -2.368  1.00  0.00     0.063 A 
HETATM    5  N   UNL     1      40.724 -11.818  -3.381  1.00  0.00    -0.277 N 
HETATM    6  H   UNL     1      40.670 -11.999  -4.377  1.00  0.00     0.189 HD
HETATM    7  N   UNL     1      41.175 -10.620  -2.975  1.00  0.00    -0.168 NA
HETATM    8  C   UNL     1      41.135 -10.701  -1.625  1.00  0.00     0.156 A 
HETATM    9  C   UNL     1      39.903 -13.978  -2.376  1.00  0.00     0.034 A 
HETATM   10  C   UNL     1      39.667 -14.581  -1.132  1.00  0.00     0.026 A 
ENDROOT
BRANCH   1  11
HETATM   11  N   UNL     1      39.716 -14.517   1.332  1.00  0.00    -0.289 NA
HETATM   12  H   UNL     1      38.883 -14.187   1.817  1.00  0.00     0.128 HD
BRANCH  11  13
HETATM   13  C   UNL     1      39.902 -15.954   1.465  1.00  0.00     0.131 C 
BRANCH  13  14
HETATM   14  C   UNL     1      40.987 -16.232   2.480  1.00  0.00    -0.042 A 
HETATM   15  C   UNL     1      42.001 -17.164   2.213  1.00  0.00     0.048 A 
HETATM   16  C   UNL     1      43.013 -17.410   3.151  1.00  0.00     0.102 A 
HETATM   17  C   UNL     1      43.015 -16.712   4.374  1.00  0.00     0.102 A 
HETATM   18  C   UNL     1      41.991 -15.800   4.651  1.00  0.00     0.040 A 
HETATM   19  C   UNL     1      40.985 -15.564   3.711  1.00  0.00     0.011 A 
BRANCH  16  20
HETATM   20  O   UNL     1      44.047 -18.293   2.961  1.00  0.00    -0.349 OA
BRANCH  20  21
HETATM   21  C   UNL     1      43.799 -19.675   3.200  1.00  0.00     0.171 C 
HETATM   22  C   UNL     1      43.642 -20.362   1.856  1.00  0.00     0.034 C 
ENDBRANCH  20  21
ENDBRANCH  16  20
BRANCH  17  23
HETATM   23  O   UNL     1      44.047 -17.001   5.234  1.00  0.00    -0.349 OA
BRANCH  23  24
HETATM   24  C   UNL     1      43.732 -17.702   6.433  1.00  0.00     0.171 C 
HETATM   25  C   UNL     1      43.874 -16.731   7.592  1.00  0.00     0.034 C 
ENDBRANCH  23  24
ENDBRANCH  17  23
ENDBRANCH  13  14
ENDBRANCH  11  13
ENDBRANCH   1  11
BRANCH   8  26
HETATM   26  C   UNL     1      41.556  -9.577  -0.778  1.00  0.00     0.270 C 
HETATM   27  N   UNL     1      41.214  -8.347  -1.272  1.00  0.00    -0.365 N 
HETATM   28  H   UNL     1      40.715  -8.301  -2.153  1.00  0.00     0.159 HD
HETATM   29  H   UNL     1      41.462  -7.515  -0.761  1.00  0.00     0.159 HD
HETATM   30  O   UNL     1      42.161  -9.692   0.284  1.00  0.00    -0.266 OA
ENDBRANCH   8  26
TORSDOF 8
ENDMDL
MODEL 6
REMARK VINA RESULT:      -7.8      2.056      2.300
REMARK  8 active torsions:
REMARK  status: ('A' for Active; 'I' for Inactive)
REMARK    1  A    between atoms: C_2  and  O_3 
REMARK    2  A    between atoms: O_3  and  C_4 
REMARK    3  A    between atoms: C_5  and  O_6 
REMARK    4  A    between atoms: O_6  and  C_7 
REMARK    5  A    between atoms: C_10  and  C_11 
REMARK    6  A    between atoms: C_11  and  N_12 
REMARK    7  A    between atoms: N_12  and  C_13 
REMARK    8  A    between atoms: C_20  and  C_21 
REMARK       I    between atoms: C_21  and  N_22 
ROOT
HETATM    1  C   UNL     1      40.124 -12.211   1.861  1.00  0.00     0.009 A 
HETATM    2  C   UNL     1      40.044 -12.951   0.666  1.00  0.00     0.039 A 
HETATM    3  C   UNL     1      39.083 -12.628  -0.314  1.00  0.00     0.030 A 
HETATM    4  C   UNL     1      38.197 -11.590  -0.061  1.00  0.00     0.063 A 
HETATM    5  N   UNL     1      37.396 -11.521  -1.166  1.00  0.00    -0.277 N 
HETATM    6  H   UNL     1      36.628 -10.878  -1.327  1.00  0.00     0.189 HD
HETATM    7  N   UNL     1      37.684 -12.420  -2.121  1.00  0.00    -0.168 NA
HETATM    8  C   UNL     1      38.725 -13.115  -1.606  1.00  0.00     0.156 A 
HETATM    9  C   UNL     1      38.211 -10.855   1.124  1.00  0.00     0.034 A 
HETATM   10  C   UNL     1      39.181 -11.199   2.078  1.00  0.00     0.026 A 
ENDROOT
BRANCH   1  11
HETATM   11  N   UNL     1      41.050 -12.619   2.828  1.00  0.00    -0.289 NA
HETATM   12  H   UNL     1      40.662 -13.317   3.461  1.00  0.00     0.128 HD
BRANCH  11  13
HETATM   13  C   UNL     1      42.417 -12.926   2.435  1.00  0.00     0.131 C 
BRANCH  13  14
HETATM   14  C   UNL     1      42.718 -14.375   2.742  1.00  0.00    -0.042 A 
HETATM   15  C   UNL     1      42.868 -14.814   4.066  1.00  0.00     0.048 A 
HETATM   16  C   UNL     1      43.134 -16.160   4.349  1.00  0.00     0.102 A 
HETATM   17  C   UNL     1      43.250 -17.085   3.292  1.00  0.00     0.102 A 
HETATM   18  C   UNL     1      43.124 -16.644   1.972  1.00  0.00     0.040 A 
HETATM   19  C   UNL     1      42.862 -15.300   1.700  1.00  0.00     0.011 A 
BRANCH  16  20
HETATM   20  O   UNL     1      43.280 -16.673   5.615  1.00  0.00    -0.349 OA
BRANCH  20  21
HETATM   21  C   UNL     1      42.256 -16.406   6.567  1.00  0.00     0.171 C 
HETATM   22  C   UNL     1      42.887 -15.681   7.742  1.00  0.00     0.034 C 
ENDBRANCH  20  21
ENDBRANCH  16  20
BRANCH  17  23
HETATM   23  O   UNL     1      43.499 -18.387   3.653  1.00  0.00    -0.349 OA
BRANCH  23  24
HETATM   24  C   UNL     1      44.259 -19.189   2.753  1.00  0.00     0.171 C 
HETATM   25  C   UNL     1      43.356 -20.295   2.237  1.00  0.00     0.034 C 
ENDBRANCH  23  24
ENDBRANCH  17  23
ENDBRANCH  13  14
ENDBRANCH  11  13
ENDBRANCH   1  11
BRANCH   8  26
HETATM   26  C   UNL     1      39.353 -14.215  -2.350  1.00  0.00     0.270 C 
HETATM   27  N   UNL     1      38.654 -15.390  -2.304  1.00  0.00    -0.365 N 
HETATM   28  H   UNL     1      37.787 -15.418  -1.779  1.00  0.00     0.159 HD
HETATM   29  H   UNL     1      39.006 -16.203  -2.784  1.00  0.00     0.159 HD
HETATM   30  O   UNL     1      40.408 -14.125  -2.971  1.00  0.00    -0.266 OA
ENDBRANCH   8  26
TORSDOF 8
ENDMDL
MODEL 7
REMARK VINA RESULT:      -7.8      3.991      6.197
REMARK  8 active torsions:
REMARK  status: ('A' for Active; 'I' for Inactive)
REMARK    1  A    between atoms: C_2  and  O_3 
REMARK    2  A    between atoms: O_3  and  C_4 
REMARK    3  A    between atoms: C_5  and  O_6 
REMARK    4  A    between atoms: O_6  and  C_7 
REMARK    5  A    between atoms: C_10  and  C_11 
REMARK    6  A    between atoms: C_11  and  N_12 
REMARK    7  A    between atoms: N_12  and  C_13 
REMARK    8  A    between atoms: C_20  and  C_21 
REMARK       I    between atoms: C_21  and  N_22 
ROOT
HETATM    1  C   UNL     1      40.886 -13.215   3.913  1.00  0.00     0.009 A 
HETATM    2  C   UNL     1      42.126 -12.739   4.379  1.00  0.00     0.039 A 
HETATM    3  C   UNL     1      42.188 -11.860   5.481  1.00  0.00     0.030 A 
HETATM    4  C   UNL     1      41.002 -11.448   6.071  1.00  0.00     0.063 A 
HETATM    5  N   UNL     1      41.374 -10.610   7.085  1.00  0.00    -0.277 N 
HETATM    6  H   UNL     1      40.765 -10.117   7.727  1.00  0.00     0.189 HD
HETATM    7  N   UNL     1      42.701 -10.443   7.211  1.00  0.00    -0.168 NA
HETATM    8  C   UNL     1      43.218 -11.209   6.222  1.00  0.00     0.156 A 
HETATM    9  C   UNL     1      39.749 -11.859   5.619  1.00  0.00     0.034 A 
HETATM   10  C   UNL     1      39.720 -12.736   4.524  1.00  0.00     0.026 A 
ENDROOT
BRANCH   1  11
HETATM   11  N   UNL     1      40.878 -14.029   2.774  1.00  0.00    -0.289 NA
HETATM   12  H   UNL     1      41.747 -13.960   2.247  1.00  0.00     0.128 HD
BRANCH  11  13
HETATM   13  C   UNL     1      40.394 -15.398   2.869  1.00  0.00     0.131 C 
BRANCH  13  14
HETATM   14  C   UNL     1      41.531 -16.309   3.273  1.00  0.00    -0.042 A 
HETATM   15  C   UNL     1      41.921 -16.422   4.616  1.00  0.00     0.048 A 
HETATM   16  C   UNL     1      42.966 -17.277   4.989  1.00  0.00     0.102 A 
HETATM   17  C   UNL     1      43.632 -18.035   4.005  1.00  0.00     0.102 A 
HETATM   18  C   UNL     1      43.260 -17.904   2.664  1.00  0.00     0.040 A 
HETATM   19  C   UNL     1      42.219 -17.047   2.301  1.00  0.00     0.011 A 
BRANCH  16  20
HETATM   20  O   UNL     1      43.399 -17.456   6.280  1.00  0.00    -0.349 OA
BRANCH  20  21
HETATM   21  C   UNL     1      44.052 -16.367   6.924  1.00  0.00     0.171 C 
HETATM   22  C   UNL     1      43.078 -15.756   7.915  1.00  0.00     0.034 C 
ENDBRANCH  20  21
ENDBRANCH  16  20
BRANCH  17  23
HETATM   23  O   UNL     1      44.637 -18.858   4.453  1.00  0.00    -0.349 OA
BRANCH  23  24
HETATM   24  C   UNL     1      44.270 -20.148   4.933  1.00  0.00     0.171 C 
HETATM   25  C   UNL     1      43.907 -21.006   3.735  1.00  0.00     0.034 C 
ENDBRANCH  23  24
ENDBRANCH  17  23
ENDBRANCH  13  14
ENDBRANCH  11  13
ENDBRANCH   1  11
BRANCH   8  26
HETATM   26  C   UNL     1      44.668 -11.306   6.009  1.00  0.00     0.270 C 
HETATM   27  N   UNL     1      45.388 -11.521   7.152  1.00  0.00    -0.365 N 
HETATM   28  H   UNL     1      44.889 -11.593   8.032  1.00  0.00     0.159 HD
HETATM   29  H   UNL     1      46.391 -11.600   7.107  1.00  0.00     0.159 HD
HETATM   30  O   UNL     1      45.220 -11.210   4.917  1.00  0.00    -0.266 OA
ENDBRANCH   8  26
TORSDOF 8
ENDMDL
MODEL 8
REMARK VINA RESULT:      -7.7      5.151      8.440
REMARK  8 active torsions:
REMARK  status: ('A' for Active; 'I' for Inactive)
REMARK    1  A    between atoms: C_2  and  O_3 
REMARK    2  A    between atoms: O_3  and  C_4 
REMARK    3  A    between atoms: C_5  and  O_6 
REMARK    4  A    between atoms: O_6  and  C_7 
REMARK    5  A    between atoms: C_10  and  C_11 
REMARK    6  A    between atoms: C_11  and  N_12 
REMARK    7  A    between atoms: N_12  and  C_13 
REMARK    8  A    between atoms: C_20  and  C_21 
REMARK       I    between atoms: C_21  and  N_22 
ROOT
HETATM    1  C   UNL     1      43.277 -15.647   4.193  1.00  0.00     0.009 A 
HETATM    2  C   UNL     1      43.463 -16.933   4.736  1.00  0.00     0.039 A 
HETATM    3  C   UNL     1      43.534 -18.063   3.895  1.00  0.00     0.030 A 
HETATM    4  C   UNL     1      43.381 -17.885   2.527  1.00  0.00     0.063 A 
HETATM    5  N   UNL     1      43.486 -19.135   1.985  1.00  0.00    -0.277 N 
HETATM    6  H   UNL     1      43.418 -19.386   1.005  1.00  0.00     0.189 HD
HETATM    7  N   UNL     1      43.698 -20.114   2.880  1.00  0.00    -0.168 NA
HETATM    8  C   UNL     1      43.728 -19.465   4.067  1.00  0.00     0.156 A 
HETATM    9  C   UNL     1      43.153 -16.637   1.947  1.00  0.00     0.034 A 
HETATM   10  C   UNL     1      43.091 -15.533   2.809  1.00  0.00     0.026 A 
ENDROOT
BRANCH   1  11
HETATM   11  N   UNL     1      43.144 -14.571   5.078  1.00  0.00    -0.289 NA
HETATM   12  H   UNL     1      44.045 -14.249   5.429  1.00  0.00     0.128 HD
BRANCH  11  13
HETATM   13  C   UNL     1      42.252 -13.470   4.747  1.00  0.00     0.131 C 
BRANCH  13  14
HETATM   14  C   UNL     1      42.451 -12.344   5.734  1.00  0.00    -0.042 A 
HETATM   15  C   UNL     1      43.595 -12.289   6.544  1.00  0.00     0.048 A 
HETATM   16  C   UNL     1      43.783 -11.236   7.449  1.00  0.00     0.102 A 
HETATM   17  C   UNL     1      42.814 -10.218   7.545  1.00  0.00     0.102 A 
HETATM   18  C   UNL     1      41.663 -10.284   6.756  1.00  0.00     0.040 A 
HETATM   19  C   UNL     1      41.483 -11.339   5.858  1.00  0.00     0.011 A 
BRANCH  16  20
HETATM   20  O   UNL     1      44.879 -11.102   8.265  1.00  0.00    -0.349 OA
BRANCH  20  21
HETATM   21  C   UNL     1      46.126 -10.770   7.663  1.00  0.00     0.171 C 
HETATM   22  C   UNL     1      46.435  -9.321   7.993  1.00  0.00     0.034 C 
ENDBRANCH  20  21
ENDBRANCH  16  20
BRANCH  17  23
HETATM   23  O   UNL     1      43.079  -9.215   8.447  1.00  0.00    -0.349 OA
BRANCH  23  24
HETATM   24  C   UNL     1      42.145  -9.014   9.504  1.00  0.00     0.171 C 
HETATM   25  C   UNL     1      42.752  -8.021  10.479  1.00  0.00     0.034 C 
ENDBRANCH  23  24
ENDBRANCH  17  23
ENDBRANCH  13  14
ENDBRANCH  11  13
ENDBRANCH   1  11
BRANCH   8  26
HETATM   26  C   UNL     1      43.941 -20.187   5.328  1.00  0.00     0.270 C 
HETATM   27  N   UNL     1      44.715 -21.309   5.206  1.00  0.00    -0.365 N 
HETATM   28  H   UNL     1      45.072 -21.554   4.289  1.00  0.00     0.159 HD
HETATM   29  H   UNL     1      44.916 -21.871   6.017  1.00  0.00     0.159 HD
HETATM   30  O   UNL     1      43.483 -19.845   6.414  1.00  0.00    -0.266 OA
ENDBRANCH   8  26
TORSDOF 8
ENDMDL
MODEL 9
REMARK VINA RESULT:      -7.7      2.884      9.420
REMARK  8 active torsions:
REMARK  status: ('A' for Active; 'I' for Inactive)
REMARK    1  A    between atoms: C_2  and  O_3 
REMARK    2  A    between atoms: O_3  and  C_4 
REMARK    3  A    between atoms: C_5  and  O_6 
REMARK    4  A    between atoms: O_6  and  C_7 
REMARK    5  A    between atoms: C_10  and  C_11 
REMARK    6  A    between atoms: C_11  and  N_12 
REMARK    7  A    between atoms: N_12  and  C_13 
REMARK    8  A    between atoms: C_20  and  C_21 
REMARK       I    between atoms: C_21  and  N_22 
ROOT
HETATM    1  C   UNL     1      42.688 -15.870   2.496  1.00  0.00     0.009 A 
HETATM    2  C   UNL     1      42.466 -15.765   3.882  1.00  0.00     0.039 A 
HETATM    3  C   UNL     1      42.903 -16.781   4.758  1.00  0.00     0.030 A 
HETATM    4  C   UNL     1      43.522 -17.901   4.221  1.00  0.00     0.063 A 
HETATM    5  N   UNL     1      43.817 -18.698   5.291  1.00  0.00    -0.277 N 
HETATM    6  H   UNL     1      44.271 -19.605   5.273  1.00  0.00     0.189 HD
HETATM    7  N   UNL     1      43.449 -18.194   6.480  1.00  0.00    -0.168 NA
HETATM    8  C   UNL     1      42.878 -17.009   6.166  1.00  0.00     0.156 A 
HETATM    9  C   UNL     1      43.727 -18.069   2.852  1.00  0.00     0.034 A 
HETATM   10  C   UNL     1      43.284 -17.040   2.008  1.00  0.00     0.026 A 
ENDROOT
BRANCH   1  11
HETATM   11  N   UNL     1      42.172 -14.867   1.668  1.00  0.00    -0.289 NA
HETATM   12  H   UNL     1      42.831 -14.595   0.939  1.00  0.00     0.128 HD
BRANCH  11  13
HETATM   13  C   UNL     1      40.808 -14.970   1.173  1.00  0.00     0.131 C 
BRANCH  13  14
HETATM   14  C   UNL     1      40.582 -13.937   0.093  1.00  0.00    -0.042 A 
HETATM   15  C   UNL     1      40.064 -14.305  -1.158  1.00  0.00     0.048 A 
HETATM   16  C   UNL     1      39.843 -13.342  -2.152  1.00  0.00     0.102 A 
HETATM   17  C   UNL     1      40.141 -11.990  -1.893  1.00  0.00     0.102 A 
HETATM   18  C   UNL     1      40.679 -11.627  -0.655  1.00  0.00     0.040 A 
HETATM   19  C   UNL     1      40.899 -12.593   0.329  1.00  0.00     0.011 A 
BRANCH  16  20
HETATM   20  O   UNL     1      39.327 -13.616  -3.395  1.00  0.00    -0.349 OA
BRANCH  20  21
HETATM   21  C   UNL     1      38.098 -14.332  -3.467  1.00  0.00     0.171 C 
HETATM   22  C   UNL     1      37.001 -13.435  -2.922  1.00  0.00     0.034 C 
ENDBRANCH  20  21
ENDBRANCH  16  20
BRANCH  17  23
HETATM   23  O   UNL     1      39.884 -11.108  -2.915  1.00  0.00    -0.349 OA
BRANCH  23  24
HETATM   24  C   UNL     1      40.996 -10.454  -3.519  1.00  0.00     0.171 C 
HETATM   25  C   UNL     1      40.502  -9.151  -4.120  1.00  0.00     0.034 C 
ENDBRANCH  23  24
ENDBRANCH  17  23
ENDBRANCH  13  14
ENDBRANCH  11  13
ENDBRANCH   1  11
BRANCH   8  26
HETATM   26  C   UNL     1      42.330 -16.125   7.202  1.00  0.00     0.270 C 
HETATM   27  N   UNL     1      43.132 -15.990   8.303  1.00  0.00    -0.365 N 
HETATM   28  H   UNL     1      44.013 -16.492   8.325  1.00  0.00     0.159 HD
HETATM   29  H   UNL     1      42.840 -15.405   9.069  1.00  0.00     0.159 HD
HETATM   30  O   UNL     1      41.254 -15.540   7.123  1.00  0.00    -0.266 OA
ENDBRANCH   8  26
TORSDOF 8
ENDMDL
MODEL 10
REMARK VINA RESULT:      -7.7      2.773      9.040
REMARK  8 active torsions:
REMARK  status: ('A' for Active; 'I' for Inactive)
REMARK    1  A    between atoms: C_2  and  O_3 
REMARK    2  A    between atoms: O_3  and  C_4 
REMARK    3  A    between atoms: C_5  and  O_6 
REMARK    4  A    between atoms: O_6  and  C_7 
REMARK    5  A    between atoms: C_10  and  C_11 
REMARK    6  A    between atoms: C_11  and  N_12 
REMARK    7  A    between atoms: N_12  and  C_13 
REMARK    8  A    between atoms: C_20  and  C_21 
REMARK       I    between atoms: C_21  and  N_22 
ROOT
HETATM    1  C   UNL     1      42.597 -15.814   2.338  1.00  0.00     0.009 A 
HETATM    2  C   UNL     1      42.847 -17.191   2.184  1.00  0.00     0.039 A 
HETATM    3  C   UNL     1      43.373 -17.947   3.253  1.00  0.00     0.030 A 
HETATM    4  C   UNL     1      43.672 -17.299   4.443  1.00  0.00     0.063 A 
HETATM    5  N   UNL     1      44.165 -18.269   5.269  1.00  0.00    -0.277 N 
HETATM    6  H   UNL     1      44.492 -18.155   6.222  1.00  0.00     0.189 HD
HETATM    7  N   UNL     1      44.210 -19.496   4.724  1.00  0.00    -0.168 NA
HETATM    8  C   UNL     1      43.725 -19.311   3.475  1.00  0.00     0.156 A 
HETATM    9  C   UNL     1      43.481 -15.930   4.628  1.00  0.00     0.034 A 
HETATM   10  C   UNL     1      42.953 -15.207   3.548  1.00  0.00     0.026 A 
ENDROOT
BRANCH   1  11
HETATM   11  N   UNL     1      42.141 -15.100   1.224  1.00  0.00    -0.289 NA
HETATM   12  H   UNL     1      42.173 -15.656   0.371  1.00  0.00     0.128 HD
BRANCH  11  13
HETATM   13  C   UNL     1      40.924 -14.309   1.324  1.00  0.00     0.131 C 
BRANCH  13  14
HETATM   14  C   UNL     1      40.753 -13.483   0.069  1.00  0.00    -0.042 A 
HETATM   15  C   UNL     1      40.210 -14.048  -1.096  1.00  0.00     0.048 A 
HETATM   16  C   UNL     1      40.041 -13.276  -2.253  1.00  0.00     0.102 A 
HETATM   17  C   UNL     1      40.416 -11.918  -2.248  1.00  0.00     0.102 A 
HETATM   18  C   UNL     1      40.978 -11.362  -1.095  1.00  0.00     0.040 A 
HETATM   19  C   UNL     1      41.146 -12.139   0.053  1.00  0.00     0.011 A 
BRANCH  16  20
HETATM   20  O   UNL     1      39.506 -13.747  -3.427  1.00  0.00    -0.349 OA
BRANCH  20  21
HETATM   21  C   UNL     1      38.295 -14.493  -3.359  1.00  0.00     0.171 C 
HETATM   22  C   UNL     1      37.187 -13.549  -2.930  1.00  0.00     0.034 C 
ENDBRANCH  20  21
ENDBRANCH  16  20
BRANCH  17  23
HETATM   23  O   UNL     1      40.206 -11.229  -3.418  1.00  0.00    -0.349 OA
BRANCH  23  24
HETATM   24  C   UNL     1      39.680  -9.908  -3.321  1.00  0.00     0.171 C 
HETATM   25  C   UNL     1      38.176 -10.016  -3.146  1.00  0.00     0.034 C 
ENDBRANCH  23  24
ENDBRANCH  17  23
ENDBRANCH  13  14
ENDBRANCH  11  13
ENDBRANCH   1  11
BRANCH   8  26
HETATM   26  C   UNL     1      43.606 -20.428   2.528  1.00  0.00     0.270 C 
HETATM   27  N   UNL     1      42.538 -20.329   1.678  1.00  0.00    -0.365 N 
HETATM   28  H   UNL     1      41.927 -19.523   1.760  1.00  0.00     0.159 HD
HETATM   29  H   UNL     1      42.373 -21.048   0.993  1.00  0.00     0.159 HD
HETATM   30  O   UNL     1      44.377 -21.381   2.472  1.00  0.00    -0.266 OA
ENDBRANCH   8  26
TORSDOF 8
ENDMDL
