MODEL 1
REMARK VINA RESULT:      -9.1      0.000      0.000
REMARK  3 active torsions:
REMARK  status: ('A' for Active; 'I' for Inactive)
REMARK    1  A    between atoms: C_4  and  C_5 
REMARK    2  A    between atoms: C_11  and  C_12 
REMARK    3  A    between atoms: C_21  and  N_22 
ROOT
HETATM    1  C   UNL     1      43.495 -17.243   5.812  1.00  0.00     0.098 A 
HETATM    2  N   UNL     1      43.606 -17.821   7.026  1.00  0.00    -0.172 NA
HETATM    3  N   UNL     1      43.558 -16.801   7.901  1.00  0.00    -0.256 N 
HETATM    4  H   UNL     1      43.636 -17.000   8.891  1.00  0.00     0.191 HD
HETATM    5  C   UNL     1      43.418 -15.598   7.294  1.00  0.00     0.175 A 
HETATM    6  C   UNL     1      43.337 -15.835   5.948  1.00  0.00     0.036 A 
HETATM    7  C   UNL     1      43.081 -14.692   5.001  1.00  0.00     0.077 C 
HETATM    8  C   UNL     1      43.377 -13.374   5.747  1.00  0.00     0.076 C 
HETATM    9  C   UNL     1      43.722 -12.234   4.963  1.00  0.00     0.100 C 
HETATM   10  N   UNL     1      44.068 -11.315   4.345  1.00  0.00    -0.192 NA
HETATM   11  C   UNL     1      43.476 -13.295   7.105  1.00  0.00     0.140 C 
HETATM   12  O   UNL     1      43.373 -14.432   7.924  1.00  0.00    -0.279 OA
ENDROOT
BRANCH   7  13
HETATM   13  C   UNL     1      41.648 -14.842   4.375  1.00  0.00     0.003 C 
HETATM   14  C   UNL     1      40.493 -14.376   5.286  1.00  0.00     0.032 C 
HETATM   15  C   UNL     1      40.119 -12.937   5.117  1.00  0.00    -0.030 C 
HETATM   16  C   UNL     1      40.415 -12.228   4.021  1.00  0.00    -0.031 C 
HETATM   17  C   UNL     1      41.136 -12.791   2.836  1.00  0.00     0.027 C 
HETATM   18  C   UNL     1      41.497 -14.275   2.948  1.00  0.00     0.009 C 
ENDBRANCH   7  13
BRANCH  11  19
HETATM   19  N   UNL     1      43.742 -12.152   7.828  1.00  0.00    -0.282 NA
HETATM   20  H   UNL     1      44.701 -11.814   7.783  1.00  0.00     0.126 HD
HETATM   21  H   UNL     1      43.380 -12.206   8.775  1.00  0.00     0.126 HD
ENDBRANCH  11  19
BRANCH   1  22
HETATM   22  C   UNL     1      43.514 -18.056   4.598  1.00  0.00    -0.005 A 
HETATM   23  C   UNL     1      43.939 -19.391   4.656  1.00  0.00     0.014 A 
HETATM   24  C   UNL     1      43.957 -20.183   3.506  1.00  0.00     0.001 A 
HETATM   25  C   UNL     1      43.555 -19.645   2.285  1.00  0.00     0.000 A 
HETATM   26  C   UNL     1      43.142 -18.316   2.212  1.00  0.00     0.001 A 
HETATM   27  C   UNL     1      43.124 -17.524   3.362  1.00  0.00     0.014 A 
ENDBRANCH   1  22
TORSDOF 3
ENDMDL
MODEL 2
REMARK VINA RESULT:      -9.1      1.166      1.452
REMARK  3 active torsions:
REMARK  status: ('A' for Active; 'I' for Inactive)
REMARK    1  A    between atoms: C_4  and  C_5 
REMARK    2  A    between atoms: C_11  and  C_12 
REMARK    3  A    between atoms: C_21  and  N_22 
ROOT
HETATM    1  C   UNL     1      43.513 -17.621   5.973  1.00  0.00     0.098 A 
HETATM    2  N   UNL     1      43.641 -17.869   7.293  1.00  0.00    -0.172 NA
HETATM    3  N   UNL     1      43.418 -16.685   7.890  1.00  0.00    -0.256 N 
HETATM    4  H   UNL     1      43.475 -16.627   8.901  1.00  0.00     0.191 HD
HETATM    5  C   UNL     1      43.150 -15.695   7.006  1.00  0.00     0.175 A 
HETATM    6  C   UNL     1      43.165 -16.257   5.758  1.00  0.00     0.036 A 
HETATM    7  C   UNL     1      42.805 -15.423   4.557  1.00  0.00     0.077 C 
HETATM    8  C   UNL     1      42.890 -13.936   4.961  1.00  0.00     0.076 C 
HETATM    9  C   UNL     1      43.118 -12.982   3.927  1.00  0.00     0.100 C 
HETATM   10  N   UNL     1      43.369 -12.199   3.108  1.00  0.00    -0.192 NA
HETATM   11  C   UNL     1      42.914 -13.519   6.260  1.00  0.00     0.140 C 
HETATM   12  O   UNL     1      42.923 -14.430   7.331  1.00  0.00    -0.279 OA
ENDROOT
BRANCH   7  13
HETATM   13  C   UNL     1      41.435 -15.917   3.967  1.00  0.00     0.003 C 
HETATM   14  C   UNL     1      40.256 -14.943   4.170  1.00  0.00     0.032 C 
HETATM   15  C   UNL     1      40.070 -13.961   3.058  1.00  0.00    -0.030 C 
HETATM   16  C   UNL     1      40.556 -14.152   1.825  1.00  0.00    -0.031 C 
HETATM   17  C   UNL     1      41.323 -15.368   1.413  1.00  0.00     0.027 C 
HETATM   18  C   UNL     1      41.497 -16.422   2.510  1.00  0.00     0.009 C 
ENDBRANCH   7  13
BRANCH  11  19
HETATM   19  N   UNL     1      42.993 -12.211   6.685  1.00  0.00    -0.282 NA
HETATM   20  H   UNL     1      43.907 -11.907   7.013  1.00  0.00     0.126 HD
HETATM   21  H   UNL     1      42.239 -11.969   7.319  1.00  0.00     0.126 HD
ENDBRANCH  11  19
BRANCH   1  22
HETATM   22  C   UNL     1      43.695 -18.692   4.995  1.00  0.00    -0.005 A 
HETATM   23  C   UNL     1      43.726 -20.028   5.418  1.00  0.00     0.014 A 
HETATM   24  C   UNL     1      43.894 -21.063   4.496  1.00  0.00     0.001 A 
HETATM   25  C   UNL     1      44.038 -20.771   3.141  1.00  0.00     0.000 A 
HETATM   26  C   UNL     1      44.021 -19.445   2.709  1.00  0.00     0.001 A 
HETATM   27  C   UNL     1      43.854 -18.410   3.632  1.00  0.00     0.014 A 
ENDBRANCH   1  22
TORSDOF 3
ENDMDL
MODEL 3
REMARK VINA RESULT:      -8.7      1.600      5.188
REMARK  3 active torsions:
REMARK  status: ('A' for Active; 'I' for Inactive)
REMARK    1  A    between atoms: C_4  and  C_5 
REMARK    2  A    between atoms: C_11  and  C_12 
REMARK    3  A    between atoms: C_21  and  N_22 
ROOT
HETATM    1  C   UNL     1      41.894 -14.474   4.285  1.00  0.00     0.098 A 
HETATM    2  N   UNL     1      41.944 -13.232   4.810  1.00  0.00    -0.172 NA
HETATM    3  N   UNL     1      42.595 -13.376   5.978  1.00  0.00    -0.256 N 
HETATM    4  H   UNL     1      42.742 -12.560   6.561  1.00  0.00     0.191 HD
HETATM    5  C   UNL     1      42.965 -14.657   6.215  1.00  0.00     0.175 A 
HETATM    6  C   UNL     1      42.566 -15.397   5.135  1.00  0.00     0.036 A 
HETATM    7  C   UNL     1      42.922 -16.858   5.057  1.00  0.00     0.077 C 
HETATM    8  C   UNL     1      43.334 -17.329   6.468  1.00  0.00     0.076 C 
HETATM    9  C   UNL     1      43.199 -18.717   6.767  1.00  0.00     0.100 C 
HETATM   10  N   UNL     1      43.034 -19.830   7.049  1.00  0.00    -0.192 NA
HETATM   11  C   UNL     1      43.665 -16.467   7.472  1.00  0.00     0.140 C 
HETATM   12  O   UNL     1      43.594 -15.074   7.306  1.00  0.00    -0.279 OA
ENDROOT
BRANCH   7  13
HETATM   13  C   UNL     1      43.966 -17.083   3.905  1.00  0.00     0.003 C 
HETATM   14  C   UNL     1      44.867 -18.323   4.083  1.00  0.00     0.032 C 
HETATM   15  C   UNL     1      44.324 -19.572   3.464  1.00  0.00    -0.030 C 
HETATM   16  C   UNL     1      43.403 -19.566   2.492  1.00  0.00    -0.031 C 
HETATM   17  C   UNL     1      42.824 -18.318   1.903  1.00  0.00     0.027 C 
HETATM   18  C   UNL     1      43.386 -17.014   2.477  1.00  0.00     0.009 C 
ENDBRANCH   7  13
BRANCH  11  19
HETATM   19  N   UNL     1      44.035 -16.824   8.750  1.00  0.00    -0.282 NA
HETATM   20  H   UNL     1      44.005 -16.080   9.443  1.00  0.00     0.126 HD
HETATM   21  H   UNL     1      44.905 -17.348   8.763  1.00  0.00     0.126 HD
ENDBRANCH  11  19
BRANCH   1  22
HETATM   22  C   UNL     1      41.243 -14.711   2.998  1.00  0.00    -0.005 A 
HETATM   23  C   UNL     1      41.565 -13.909   1.893  1.00  0.00     0.014 A 
HETATM   24  C   UNL     1      40.955 -14.126   0.656  1.00  0.00     0.001 A 
HETATM   25  C   UNL     1      40.014 -15.144   0.512  1.00  0.00     0.000 A 
HETATM   26  C   UNL     1      39.677 -15.939   1.606  1.00  0.00     0.001 A 
HETATM   27  C   UNL     1      40.286 -15.722   2.845  1.00  0.00     0.014 A 
ENDBRANCH   1  22
TORSDOF 3
ENDMDL
MODEL 4
REMARK VINA RESULT:      -8.4      2.764      6.360
REMARK  3 active torsions:
REMARK  status: ('A' for Active; 'I' for Inactive)
REMARK    1  A    between atoms: C_4  and  C_5 
REMARK    2  A    between atoms: C_11  and  C_12 
REMARK    3  A    between atoms: C_21  and  N_22 
ROOT
HETATM    1  C   UNL     1      42.204 -11.606   5.592  1.00  0.00     0.098 A 
HETATM    2  N   UNL     1      41.250 -10.652   5.560  1.00  0.00    -0.172 NA
HETATM    3  N   UNL     1      40.228 -11.208   4.886  1.00  0.00    -0.256 N 
HETATM    4  H   UNL     1      39.390 -10.660   4.727  1.00  0.00     0.191 HD
HETATM    5  C   UNL     1      40.489 -12.477   4.492  1.00  0.00     0.175 A 
HETATM    6  C   UNL     1      41.739 -12.791   4.954  1.00  0.00     0.036 A 
HETATM    7  C   UNL     1      42.283 -14.181   4.757  1.00  0.00     0.077 C 
HETATM    8  C   UNL     1      41.438 -14.878   3.668  1.00  0.00     0.076 C 
HETATM    9  C   UNL     1      42.045 -15.944   2.942  1.00  0.00     0.100 C 
HETATM   10  N   UNL     1      42.545 -16.769   2.297  1.00  0.00    -0.192 NA
HETATM   11  C   UNL     1      40.216 -14.421   3.270  1.00  0.00     0.140 C 
HETATM   12  O   UNL     1      39.662 -13.238   3.789  1.00  0.00    -0.279 OA
ENDROOT
BRANCH   7  13
HETATM   13  C   UNL     1      42.381 -14.908   6.146  1.00  0.00     0.003 C 
HETATM   14  C   UNL     1      41.733 -16.307   6.190  1.00  0.00     0.032 C 
HETATM   15  C   UNL     1      42.662 -17.428   5.845  1.00  0.00    -0.030 C 
HETATM   16  C   UNL     1      43.995 -17.321   5.919  1.00  0.00    -0.031 C 
HETATM   17  C   UNL     1      44.706 -16.084   6.366  1.00  0.00     0.027 C 
HETATM   18  C   UNL     1      43.790 -14.926   6.774  1.00  0.00     0.009 C 
ENDBRANCH   7  13
BRANCH  11  19
HETATM   19  N   UNL     1      39.418 -14.993   2.305  1.00  0.00    -0.282 NA
HETATM   20  H   UNL     1      39.452 -16.009   2.248  1.00  0.00     0.126 HD
HETATM   21  H   UNL     1      39.522 -14.538   1.403  1.00  0.00     0.126 HD
ENDBRANCH  11  19
BRANCH   1  22
HETATM   22  C   UNL     1      43.485 -11.353   6.249  1.00  0.00    -0.005 A 
HETATM   23  C   UNL     1      43.515 -10.949   7.591  1.00  0.00     0.014 A 
HETATM   24  C   UNL     1      44.731 -10.710   8.235  1.00  0.00     0.001 A 
HETATM   25  C   UNL     1      45.929 -10.867   7.540  1.00  0.00     0.000 A 
HETATM   26  C   UNL     1      45.911 -11.256   6.202  1.00  0.00     0.001 A 
HETATM   27  C   UNL     1      44.695 -11.496   5.557  1.00  0.00     0.014 A 
ENDBRANCH   1  22
TORSDOF 3
ENDMDL
MODEL 5
REMARK VINA RESULT:      -8.3      7.130     10.166
REMARK  3 active torsions:
REMARK  status: ('A' for Active; 'I' for Inactive)
REMARK    1  A    between atoms: C_4  and  C_5 
REMARK    2  A    between atoms: C_11  and  C_12 
REMARK    3  A    between atoms: C_21  and  N_22 
ROOT
HETATM    1  C   UNL     1      42.485  -8.084   9.389  1.00  0.00     0.098 A 
HETATM    2  N   UNL     1      42.185  -6.900   8.816  1.00  0.00    -0.172 NA
HETATM    3  N   UNL     1      41.124  -6.441   9.504  1.00  0.00    -0.256 N 
HETATM    4  H   UNL     1      40.713  -5.554   9.237  1.00  0.00     0.191 HD
HETATM    5  C   UNL     1      40.740  -7.282  10.493  1.00  0.00     0.175 A 
HETATM    6  C   UNL     1      41.609  -8.340  10.482  1.00  0.00     0.036 A 
HETATM    7  C   UNL     1      41.501  -9.409  11.536  1.00  0.00     0.077 C 
HETATM    8  C   UNL     1      40.113  -9.290  12.201  1.00  0.00     0.076 C 
HETATM    9  C   UNL     1      39.572 -10.457  12.817  1.00  0.00     0.100 C 
HETATM   10  N   UNL     1      39.089 -11.412  13.264  1.00  0.00    -0.192 NA
HETATM   11  C   UNL     1      39.327  -8.180  12.087  1.00  0.00     0.140 C 
HETATM   12  O   UNL     1      39.707  -7.080  11.300  1.00  0.00    -0.279 OA
ENDROOT
BRANCH   7  13
HETATM   13  C   UNL     1      42.748  -9.334  12.489  1.00  0.00     0.003 C 
HETATM   14  C   UNL     1      43.543  -8.015  12.409  1.00  0.00     0.032 C 
HETATM   15  C   UNL     1      43.088  -6.963  13.370  1.00  0.00    -0.030 C 
HETATM   16  C   UNL     1      42.386  -7.237  14.476  1.00  0.00    -0.031 C 
HETATM   17  C   UNL     1      41.988  -8.620  14.887  1.00  0.00     0.027 C 
HETATM   18  C   UNL     1      42.474  -9.733  13.954  1.00  0.00     0.009 C 
ENDBRANCH   7  13
BRANCH  11  19
HETATM   19  N   UNL     1      38.081  -8.015  12.651  1.00  0.00    -0.282 NA
HETATM   20  H   UNL     1      37.687  -7.079  12.587  1.00  0.00     0.126 HD
HETATM   21  H   UNL     1      38.029  -8.408  13.586  1.00  0.00     0.126 HD
ENDBRANCH  11  19
BRANCH   1  22
HETATM   22  C   UNL     1      43.599  -8.889   8.892  1.00  0.00    -0.005 A 
HETATM   23  C   UNL     1      43.398 -10.238   8.569  1.00  0.00     0.014 A 
HETATM   24  C   UNL     1      44.451 -11.019   8.088  1.00  0.00     0.001 A 
HETATM   25  C   UNL     1      45.717 -10.459   7.929  1.00  0.00     0.000 A 
HETATM   26  C   UNL     1      45.932  -9.121   8.258  1.00  0.00     0.001 A 
HETATM   27  C   UNL     1      44.879  -8.340   8.741  1.00  0.00     0.014 A 
ENDBRANCH   1  22
TORSDOF 3
ENDMDL
MODEL 6
REMARK VINA RESULT:      -8.3      2.207      2.704
REMARK  3 active torsions:
REMARK  status: ('A' for Active; 'I' for Inactive)
REMARK    1  A    between atoms: C_4  and  C_5 
REMARK    2  A    between atoms: C_11  and  C_12 
REMARK    3  A    between atoms: C_21  and  N_22 
ROOT
HETATM    1  C   UNL     1      41.310 -15.998   5.181  1.00  0.00     0.098 A 
HETATM    2  N   UNL     1      40.541 -16.585   6.120  1.00  0.00    -0.172 NA
HETATM    3  N   UNL     1      39.864 -15.574   6.694  1.00  0.00    -0.256 N 
HETATM    4  H   UNL     1      39.220 -15.781   7.450  1.00  0.00     0.191 HD
HETATM    5  C   UNL     1      40.168 -14.369   6.156  1.00  0.00     0.175 A 
HETATM    6  C   UNL     1      41.070 -14.595   5.152  1.00  0.00     0.036 A 
HETATM    7  C   UNL     1      41.535 -13.449   4.292  1.00  0.00     0.077 C 
HETATM    8  C   UNL     1      41.184 -12.131   5.015  1.00  0.00     0.076 C 
HETATM    9  C   UNL     1      41.957 -10.977   4.696  1.00  0.00     0.100 C 
HETATM   10  N   UNL     1      42.618 -10.044   4.498  1.00  0.00    -0.192 NA
HETATM   11  C   UNL     1      40.289 -12.063   6.043  1.00  0.00     0.140 C 
HETATM   12  O   UNL     1      39.663 -13.211   6.557  1.00  0.00    -0.279 OA
ENDROOT
BRANCH   7  13
HETATM   13  C   UNL     1      40.972 -13.625   2.835  1.00  0.00     0.003 C 
HETATM   14  C   UNL     1      39.468 -13.318   2.683  1.00  0.00     0.032 C 
HETATM   15  C   UNL     1      39.162 -11.896   2.336  1.00  0.00    -0.030 C 
HETATM   16  C   UNL     1      40.058 -11.069   1.782  1.00  0.00    -0.031 C 
HETATM   17  C   UNL     1      41.456 -11.472   1.433  1.00  0.00     0.027 C 
HETATM   18  C   UNL     1      41.798 -12.935   1.730  1.00  0.00     0.009 C 
ENDBRANCH   7  13
BRANCH  11  19
HETATM   19  N   UNL     1      39.938 -10.922   6.730  1.00  0.00    -0.282 NA
HETATM   20  H   UNL     1      39.405 -11.067   7.584  1.00  0.00     0.126 HD
HETATM   21  H   UNL     1      39.535 -10.218   6.121  1.00  0.00     0.126 HD
ENDBRANCH  11  19
BRANCH   1  22
HETATM   22  C   UNL     1      42.203 -16.798   4.346  1.00  0.00    -0.005 A 
HETATM   23  C   UNL     1      43.291 -17.467   4.925  1.00  0.00     0.014 A 
HETATM   24  C   UNL     1      44.150 -18.240   4.141  1.00  0.00     0.001 A 
HETATM   25  C   UNL     1      43.931 -18.349   2.769  1.00  0.00     0.000 A 
HETATM   26  C   UNL     1      42.860 -17.679   2.180  1.00  0.00     0.001 A 
HETATM   27  C   UNL     1      42.001 -16.904   2.964  1.00  0.00     0.014 A 
ENDBRANCH   1  22
TORSDOF 3
ENDMDL
MODEL 7
REMARK VINA RESULT:      -8.1      1.909      2.859
REMARK  3 active torsions:
REMARK  status: ('A' for Active; 'I' for Inactive)
REMARK    1  A    between atoms: C_4  and  C_5 
REMARK    2  A    between atoms: C_11  and  C_12 
REMARK    3  A    between atoms: C_21  and  N_22 
ROOT
HETATM    1  C   UNL     1      43.183 -15.049   5.188  1.00  0.00     0.098 A 
HETATM    2  N   UNL     1      43.472 -14.977   6.504  1.00  0.00    -0.172 NA
HETATM    3  N   UNL     1      43.166 -13.715   6.856  1.00  0.00    -0.256 N 
HETATM    4  H   UNL     1      43.315 -13.424   7.816  1.00  0.00     0.191 HD
HETATM    5  C   UNL     1      42.690 -12.984   5.821  1.00  0.00     0.175 A 
HETATM    6  C   UNL     1      42.649 -13.811   4.731  1.00  0.00     0.036 A 
HETATM    7  C   UNL     1      42.071 -13.312   3.433  1.00  0.00     0.077 C 
HETATM    8  C   UNL     1      42.010 -11.771   3.495  1.00  0.00     0.076 C 
HETATM    9  C   UNL     1      42.014 -11.059   2.260  1.00  0.00     0.100 C 
HETATM   10  N   UNL     1      42.083 -10.462   1.267  1.00  0.00    -0.192 NA
HETATM   11  C   UNL     1      42.112 -11.069   4.661  1.00  0.00     0.140 C 
HETATM   12  O   UNL     1      42.341 -11.707   5.892  1.00  0.00    -0.279 OA
ENDROOT
BRANCH   7  13
HETATM   13  C   UNL     1      40.721 -14.060   3.139  1.00  0.00     0.003 C 
HETATM   14  C   UNL     1      39.450 -13.271   3.517  1.00  0.00     0.032 C 
HETATM   15  C   UNL     1      38.903 -12.420   2.414  1.00  0.00    -0.030 C 
HETATM   16  C   UNL     1      39.184 -12.628   1.122  1.00  0.00    -0.031 C 
HETATM   17  C   UNL     1      40.060 -13.737   0.630  1.00  0.00     0.027 C 
HETATM   18  C   UNL     1      40.604 -14.661   1.723  1.00  0.00     0.009 C 
ENDBRANCH   7  13
BRANCH  11  19
HETATM   19  N   UNL     1      42.070  -9.698   4.781  1.00  0.00    -0.282 NA
HETATM   20  H   UNL     1      42.723  -9.182   4.195  1.00  0.00     0.126 HD
HETATM   21  H   UNL     1      42.081  -9.399   5.751  1.00  0.00     0.126 HD
ENDBRANCH  11  19
BRANCH   1  22
HETATM   22  C   UNL     1      43.399 -16.291   4.448  1.00  0.00    -0.005 A 
HETATM   23  C   UNL     1      43.191 -16.324   3.062  1.00  0.00     0.014 A 
HETATM   24  C   UNL     1      43.398 -17.501   2.340  1.00  0.00     0.001 A 
HETATM   25  C   UNL     1      43.810 -18.659   2.998  1.00  0.00     0.000 A 
HETATM   26  C   UNL     1      44.008 -18.641   4.378  1.00  0.00     0.001 A 
HETATM   27  C   UNL     1      43.800 -17.464   5.101  1.00  0.00     0.014 A 
ENDBRANCH   1  22
TORSDOF 3
ENDMDL
MODEL 8
REMARK VINA RESULT:      -8.1      2.972      4.391
REMARK  3 active torsions:
REMARK  status: ('A' for Active; 'I' for Inactive)
REMARK    1  A    between atoms: C_4  and  C_5 
REMARK    2  A    between atoms: C_11  and  C_12 
REMARK    3  A    between atoms: C_21  and  N_22 
ROOT
HETATM    1  C   UNL     1      41.637 -16.036   2.727  1.00  0.00     0.098 A 
HETATM    2  N   UNL     1      41.230 -16.329   1.475  1.00  0.00    -0.172 NA
HETATM    3  N   UNL     1      40.450 -15.295   1.114  1.00  0.00    -0.256 N 
HETATM    4  H   UNL     1      40.016 -15.304   0.198  1.00  0.00     0.191 HD
HETATM    5  C   UNL     1      40.348 -14.354   2.082  1.00  0.00     0.175 A 
HETATM    6  C   UNL     1      41.125 -14.770   3.130  1.00  0.00     0.036 A 
HETATM    7  C   UNL     1      41.296 -13.882   4.334  1.00  0.00     0.077 C 
HETATM    8  C   UNL     1      40.182 -12.814   4.306  1.00  0.00     0.076 C 
HETATM    9  C   UNL     1      39.804 -12.220   5.545  1.00  0.00     0.100 C 
HETATM   10  N   UNL     1      39.438 -11.775   6.553  1.00  0.00    -0.192 NA
HETATM   11  C   UNL     1      39.449 -12.534   3.190  1.00  0.00     0.140 C 
HETATM   12  O   UNL     1      39.619 -13.250   1.992  1.00  0.00    -0.279 OA
ENDROOT
BRANCH   7  13
HETATM   13  C   UNL     1      42.775 -13.358   4.394  1.00  0.00     0.003 C 
HETATM   14  C   UNL     1      43.048 -12.098   3.546  1.00  0.00     0.032 C 
HETATM   15  C   UNL     1      42.850 -10.809   4.279  1.00  0.00    -0.030 C 
HETATM   16  C   UNL     1      42.869 -10.716   5.614  1.00  0.00    -0.031 C 
HETATM   17  C   UNL     1      43.104 -11.879   6.525  1.00  0.00     0.027 C 
HETATM   18  C   UNL     1      43.358 -13.212   5.815  1.00  0.00     0.009 C 
ENDBRANCH   7  13
BRANCH  11  19
HETATM   19  N   UNL     1      38.442 -11.599   3.102  1.00  0.00    -0.282 NA
HETATM   20  H   UNL     1      37.513 -11.965   2.908  1.00  0.00     0.126 HD
HETATM   21  H   UNL     1      38.696 -10.818   2.505  1.00  0.00     0.126 HD
ENDBRANCH  11  19
BRANCH   1  22
HETATM   22  C   UNL     1      42.511 -16.952   3.458  1.00  0.00    -0.005 A 
HETATM   23  C   UNL     1      43.309 -17.867   2.756  1.00  0.00     0.014 A 
HETATM   24  C   UNL     1      44.152 -18.745   3.439  1.00  0.00     0.001 A 
HETATM   25  C   UNL     1      44.203 -18.720   4.832  1.00  0.00     0.000 A 
HETATM   26  C   UNL     1      43.405 -17.824   5.541  1.00  0.00     0.001 A 
HETATM   27  C   UNL     1      42.560 -16.945   4.857  1.00  0.00     0.014 A 
ENDBRANCH   1  22
TORSDOF 3
ENDMDL
MODEL 9
REMARK VINA RESULT:      -7.8     14.542     16.166
REMARK  3 active torsions:
REMARK  status: ('A' for Active; 'I' for Inactive)
REMARK    1  A    between atoms: C_4  and  C_5 
REMARK    2  A    between atoms: C_11  and  C_12 
REMARK    3  A    between atoms: C_21  and  N_22 
ROOT
HETATM    1  C   UNL     1      43.829 -29.371  -0.092  1.00  0.00     0.098 A 
HETATM    2  N   UNL     1      42.608 -28.971   0.319  1.00  0.00    -0.172 NA
HETATM    3  N   UNL     1      42.557 -29.300   1.622  1.00  0.00    -0.256 N 
HETATM    4  H   UNL     1      41.712 -29.101   2.146  1.00  0.00     0.191 HD
HETATM    5  C   UNL     1      43.697 -29.887   2.058  1.00  0.00     0.175 A 
HETATM    6  C   UNL     1      44.561 -29.923   0.997  1.00  0.00     0.036 A 
HETATM    7  C   UNL     1      45.963 -30.438   1.190  1.00  0.00     0.077 C 
HETATM    8  C   UNL     1      46.006 -31.229   2.515  1.00  0.00     0.076 C 
HETATM    9  C   UNL     1      47.016 -32.226   2.657  1.00  0.00     0.100 C 
HETATM   10  N   UNL     1      47.789 -33.085   2.763  1.00  0.00    -0.192 NA
HETATM   11  C   UNL     1      45.040 -31.128   3.473  1.00  0.00     0.140 C 
HETATM   12  O   UNL     1      43.897 -30.332   3.291  1.00  0.00    -0.279 OA
ENDROOT
BRANCH   7  13
HETATM   13  C   UNL     1      46.982 -29.251   1.043  1.00  0.00     0.003 C 
HETATM   14  C   UNL     1      47.226 -28.446   2.336  1.00  0.00     0.032 C 
HETATM   15  C   UNL     1      48.356 -28.954   3.174  1.00  0.00    -0.030 C 
HETATM   16  C   UNL     1      49.337 -29.725   2.688  1.00  0.00    -0.031 C 
HETATM   17  C   UNL     1      49.427 -30.154   1.257  1.00  0.00     0.027 C 
HETATM   18  C   UNL     1      48.313 -29.617   0.354  1.00  0.00     0.009 C 
ENDBRANCH   7  13
BRANCH  11  19
HETATM   19  N   UNL     1      45.020 -31.808   4.670  1.00  0.00    -0.282 NA
HETATM   20  H   UNL     1      45.039 -32.823   4.602  1.00  0.00     0.126 HD
HETATM   21  H   UNL     1      44.297 -31.462   5.294  1.00  0.00     0.126 HD
ENDBRANCH  11  19
BRANCH   1  22
HETATM   22  C   UNL     1      44.245 -29.179  -1.480  1.00  0.00    -0.005 A 
HETATM   23  C   UNL     1      43.915 -30.138  -2.449  1.00  0.00     0.014 A 
HETATM   24  C   UNL     1      44.301 -29.966  -3.780  1.00  0.00     0.001 A 
HETATM   25  C   UNL     1      45.024 -28.835  -4.155  1.00  0.00     0.000 A 
HETATM   26  C   UNL     1      45.368 -27.881  -3.199  1.00  0.00     0.001 A 
HETATM   27  C   UNL     1      44.983 -28.053  -1.867  1.00  0.00     0.014 A 
ENDBRANCH   1  22
TORSDOF 3
ENDMDL
MODEL 10
REMARK VINA RESULT:      -7.8      3.040      4.280
REMARK  3 active torsions:
REMARK  status: ('A' for Active; 'I' for Inactive)
REMARK    1  A    between atoms: C_4  and  C_5 
REMARK    2  A    between atoms: C_11  and  C_12 
REMARK    3  A    between atoms: C_21  and  N_22 
ROOT
HETATM    1  C   UNL     1      41.049 -14.452   4.687  1.00  0.00     0.098 A 
HETATM    2  N   UNL     1      40.929 -15.029   5.901  1.00  0.00    -0.172 NA
HETATM    3  N   UNL     1      40.190 -14.166   6.621  1.00  0.00    -0.256 N 
HETATM    4  H   UNL     1      39.978 -14.390   7.587  1.00  0.00     0.191 HD
HETATM    5  C   UNL     1      39.831 -13.068   5.915  1.00  0.00     0.175 A 
HETATM    6  C   UNL     1      40.332 -13.223   4.650  1.00  0.00     0.036 A 
HETATM    7  C   UNL     1      40.017 -12.201   3.590  1.00  0.00     0.077 C 
HETATM    8  C   UNL     1      39.504 -10.924   4.290  1.00  0.00     0.076 C 
HETATM    9  C   UNL     1      39.646  -9.687   3.596  1.00  0.00     0.100 C 
HETATM   10  N   UNL     1      39.813  -8.664   3.075  1.00  0.00    -0.192 NA
HETATM   11  C   UNL     1      39.074 -10.909   5.585  1.00  0.00     0.140 C 
HETATM   12  O   UNL     1      39.125 -12.054   6.397  1.00  0.00    -0.279 OA
ENDROOT
BRANCH   7  13
HETATM   13  C   UNL     1      39.074 -12.840   2.508  1.00  0.00     0.003 C 
HETATM   14  C   UNL     1      38.043 -11.869   1.896  1.00  0.00     0.032 C 
HETATM   15  C   UNL     1      38.519 -11.160   0.668  1.00  0.00    -0.030 C 
HETATM   16  C   UNL     1      39.527 -11.608  -0.091  1.00  0.00    -0.031 C 
HETATM   17  C   UNL     1      40.281 -12.869   0.189  1.00  0.00     0.027 C 
HETATM   18  C   UNL     1      39.796 -13.652   1.413  1.00  0.00     0.009 C 
ENDBRANCH   7  13
BRANCH  11  19
HETATM   19  N   UNL     1      38.610  -9.805   6.266  1.00  0.00    -0.282 NA
HETATM   20  H   UNL     1      37.601  -9.752   6.386  1.00  0.00     0.126 HD
HETATM   21  H   UNL     1      39.018  -8.942   5.919  1.00  0.00     0.126 HD
ENDBRANCH  11  19
BRANCH   1  22
HETATM   22  C   UNL     1      41.807 -15.110   3.624  1.00  0.00    -0.005 A 
HETATM   23  C   UNL     1      41.528 -16.442   3.287  1.00  0.00     0.014 A 
HETATM   24  C   UNL     1      42.239 -17.083   2.271  1.00  0.00     0.001 A 
HETATM   25  C   UNL     1      43.240 -16.399   1.584  1.00  0.00     0.000 A 
HETATM   26  C   UNL     1      43.535 -15.078   1.918  1.00  0.00     0.001 A 
HETATM   27  C   UNL     1      42.824 -14.437   2.935  1.00  0.00     0.014 A 
ENDBRANCH   1  22
TORSDOF 3
ENDMDL
