MODEL 1
REMARK VINA RESULT:      -8.6      0.000      0.000
REMARK  8 active torsions:
REMARK  status: ('A' for Active; 'I' for Inactive)
REMARK    1  A    between atoms: C_5  and  O_6 
REMARK    2  A    between atoms: O_6  and  C_7 
REMARK    3  A    between atoms: C_7  and  C_8 
REMARK    4  A    between atoms: C_8  and  C_9 
REMARK    5  A    between atoms: C_9  and  C_10 
REMARK    6  A    between atoms: C_10  and  N_11 
REMARK       I    between atoms: N_11  and  C_12 
REMARK    7  A    between atoms: C_12  and  C_13 
REMARK    8  A    between atoms: C_17  and  C_18 
ROOT
HETATM    1  N   UNL     1      43.621 -10.959   8.175  1.00  0.00    -0.345 N 
HETATM    2  C   UNL     1      44.505 -10.668   9.184  1.00  0.00     0.270 C 
HETATM    3  O   UNL     1      45.721 -10.727   9.033  1.00  0.00    -0.266 OA
HETATM    4  H   UNL     1      42.633 -10.816   8.311  1.00  0.00     0.163 HD
ENDROOT
BRANCH   2   5
HETATM    5  C   UNL     1      43.905 -10.286  10.431  1.00  0.00     0.120 A 
HETATM    6  N   UNL     1      43.301 -11.200  11.248  1.00  0.00    -0.272 N 
HETATM    7  H   UNL     1      43.215 -12.198  11.083  1.00  0.00     0.189 HD
HETATM    8  N   UNL     1      42.774 -10.678  12.366  1.00  0.00    -0.174 NA
HETATM    9  C   UNL     1      43.052  -9.366  12.292  1.00  0.00     0.089 A 
HETATM   10  C   UNL     1      43.759  -9.081  11.090  1.00  0.00     0.071 A 
BRANCH   9  11
HETATM   11  C   UNL     1      42.638  -8.428  13.341  1.00  0.00    -0.003 A 
HETATM   12  C   UNL     1      41.895  -8.871  14.447  1.00  0.00     0.053 A 
HETATM   13  C   UNL     1      41.543  -7.947  15.410  1.00  0.00     0.106 A 
HETATM   14  C   UNL     1      41.896  -6.623  15.313  1.00  0.00     0.105 A 
HETATM   15  O   UNL     1      40.829  -8.213  16.537  1.00  0.00    -0.323 OA
HETATM   16  O   UNL     1      41.451  -5.887  16.366  1.00  0.00    -0.323 OA
HETATM   17  C   UNL     1      42.619  -6.145  14.244  1.00  0.00     0.040 A 
HETATM   18  C   UNL     1      40.771  -6.901  17.136  1.00  0.00     0.352 A 
HETATM   19  C   UNL     1      42.989  -7.060  13.250  1.00  0.00     0.017 A 
ENDBRANCH   9  11
ENDBRANCH   2   5
BRANCH   1  20
HETATM   20  C   UNL     1      44.089 -11.308   6.860  1.00  0.00     0.217 C 
BRANCH  20  21
HETATM   21  C   UNL     1      43.879 -12.737   6.624  1.00  0.00    -0.085 C 
BRANCH  21  22
HETATM   22  C   UNL     1      43.712 -14.014   6.422  1.00  0.00    -0.078 C 
BRANCH  22  23
HETATM   23  C   UNL     1      43.517 -15.503   6.185  1.00  0.00     0.269 C 
BRANCH  23  24
HETATM   24  O   UNL     1      42.894 -15.687   4.917  1.00  0.00    -0.338 OA
BRANCH  24  25
HETATM   25  C   UNL     1      43.176 -16.853   4.265  1.00  0.00     0.087 A 
HETATM   26  C   UNL     1      43.979 -17.894   4.713  1.00  0.00     0.153 A 
HETATM   27  N   UNL     1      44.214 -19.033   4.015  1.00  0.00    -0.263 NA
HETATM   28  C   UNL     1      43.623 -19.152   2.804  1.00  0.00     0.030 A 
HETATM   29  C   UNL     1      43.880 -20.412   2.032  1.00  0.00     0.070 C 
HETATM   30  C   UNL     1      42.807 -18.159   2.271  1.00  0.00     0.029 A 
HETATM   31  C   UNL     1      42.586 -17.001   3.014  1.00  0.00     0.040 A 
ENDBRANCH  24  25
ENDBRANCH  23  24
ENDBRANCH  22  23
ENDBRANCH  21  22
ENDBRANCH  20  21
ENDBRANCH   1  20
TORSDOF 8
ENDMDL
MODEL 2
REMARK VINA RESULT:      -8.1      2.402     12.899
REMARK  8 active torsions:
REMARK  status: ('A' for Active; 'I' for Inactive)
REMARK    1  A    between atoms: C_5  and  O_6 
REMARK    2  A    between atoms: O_6  and  C_7 
REMARK    3  A    between atoms: C_7  and  C_8 
REMARK    4  A    between atoms: C_8  and  C_9 
REMARK    5  A    between atoms: C_9  and  C_10 
REMARK    6  A    between atoms: C_10  and  N_11 
REMARK       I    between atoms: N_11  and  C_12 
REMARK    7  A    between atoms: C_12  and  C_13 
REMARK    8  A    between atoms: C_17  and  C_18 
ROOT
HETATM    1  N   UNL     1      43.740 -12.075   7.243  1.00  0.00    -0.345 N 
HETATM    2  C   UNL     1      42.826 -12.669   6.411  1.00  0.00     0.270 C 
HETATM    3  O   UNL     1      41.994 -12.028   5.777  1.00  0.00    -0.266 OA
HETATM    4  H   UNL     1      44.462 -12.626   7.678  1.00  0.00     0.163 HD
ENDROOT
BRANCH   2   5
HETATM    5  C   UNL     1      42.913 -14.101   6.330  1.00  0.00     0.120 A 
HETATM    6  N   UNL     1      42.712 -14.896   7.423  1.00  0.00    -0.272 N 
HETATM    7  H   UNL     1      42.485 -14.589   8.363  1.00  0.00     0.189 HD
HETATM    8  N   UNL     1      42.848 -16.209   7.182  1.00  0.00    -0.174 NA
HETATM    9  C   UNL     1      43.137 -16.287   5.873  1.00  0.00     0.089 A 
HETATM   10  C   UNL     1      43.190 -14.984   5.304  1.00  0.00     0.071 A 
BRANCH   9  11
HETATM   11  C   UNL     1      43.365 -17.573   5.207  1.00  0.00    -0.003 A 
HETATM   12  C   UNL     1      43.271 -17.684   3.810  1.00  0.00     0.053 A 
HETATM   13  C   UNL     1      43.507 -18.916   3.235  1.00  0.00     0.106 A 
HETATM   14  C   UNL     1      43.826 -20.022   3.987  1.00  0.00     0.105 A 
HETATM   15  O   UNL     1      43.458 -19.190   1.904  1.00  0.00    -0.323 OA
HETATM   16  O   UNL     1      44.019 -21.131   3.224  1.00  0.00    -0.323 OA
HETATM   17  C   UNL     1      43.924 -19.959   5.358  1.00  0.00     0.040 A 
HETATM   18  C   UNL     1      43.779 -20.597   1.905  1.00  0.00     0.352 A 
HETATM   19  C   UNL     1      43.688 -18.722   5.969  1.00  0.00     0.017 A 
ENDBRANCH   9  11
ENDBRANCH   2   5
BRANCH   1  20
HETATM   20  C   UNL     1      43.796 -10.644   7.378  1.00  0.00     0.217 C 
BRANCH  20  21
HETATM   21  C   UNL     1      43.839 -10.283   8.796  1.00  0.00    -0.085 C 
BRANCH  21  22
HETATM   22  C   UNL     1      43.878  -9.982  10.064  1.00  0.00    -0.078 C 
BRANCH  22  23
HETATM   23  C   UNL     1      43.924  -9.631  11.542  1.00  0.00     0.269 C 
BRANCH  23  24
HETATM   24  O   UNL     1      42.597  -9.661  12.061  1.00  0.00    -0.338 OA
BRANCH  24  25
HETATM   25  C   UNL     1      42.362  -8.904  13.173  1.00  0.00     0.087 A 
HETATM   26  C   UNL     1      41.375  -9.099  14.130  1.00  0.00     0.153 A 
HETATM   27  N   UNL     1      41.200  -8.310  15.219  1.00  0.00    -0.263 NA
HETATM   28  C   UNL     1      42.048  -7.267  15.373  1.00  0.00     0.030 A 
HETATM   29  C   UNL     1      41.856  -6.396  16.579  1.00  0.00     0.070 C 
HETATM   30  C   UNL     1      43.063  -6.991  14.464  1.00  0.00     0.029 A 
HETATM   31  C   UNL     1      43.217  -7.821  13.355  1.00  0.00     0.040 A 
ENDBRANCH  24  25
ENDBRANCH  23  24
ENDBRANCH  22  23
ENDBRANCH  21  22
ENDBRANCH  20  21
ENDBRANCH   1  20
TORSDOF 8
ENDMDL
MODEL 3
REMARK VINA RESULT:      -8.1      1.586      1.898
REMARK  8 active torsions:
REMARK  status: ('A' for Active; 'I' for Inactive)
REMARK    1  A    between atoms: C_5  and  O_6 
REMARK    2  A    between atoms: O_6  and  C_7 
REMARK    3  A    between atoms: C_7  and  C_8 
REMARK    4  A    between atoms: C_8  and  C_9 
REMARK    5  A    between atoms: C_9  and  C_10 
REMARK    6  A    between atoms: C_10  and  N_11 
REMARK       I    between atoms: N_11  and  C_12 
REMARK    7  A    between atoms: C_12  and  C_13 
REMARK    8  A    between atoms: C_17  and  C_18 
ROOT
HETATM    1  N   UNL     1      43.708 -11.404   8.200  1.00  0.00    -0.345 N 
HETATM    2  C   UNL     1      44.514 -10.630   8.997  1.00  0.00     0.270 C 
HETATM    3  O   UNL     1      45.640 -10.281   8.657  1.00  0.00    -0.266 OA
HETATM    4  H   UNL     1      42.759 -11.596   8.476  1.00  0.00     0.163 HD
ENDROOT
BRANCH   2   5
HETATM    5  C   UNL     1      43.943 -10.252  10.260  1.00  0.00     0.120 A 
HETATM    6  N   UNL     1      43.445 -11.180  11.130  1.00  0.00    -0.272 N 
HETATM    7  H   UNL     1      43.424 -12.187  10.998  1.00  0.00     0.189 HD
HETATM    8  N   UNL     1      42.931 -10.661  12.255  1.00  0.00    -0.174 NA
HETATM    9  C   UNL     1      43.109  -9.336  12.131  1.00  0.00     0.089 A 
HETATM   10  C   UNL     1      43.739  -9.040  10.890  1.00  0.00     0.071 A 
BRANCH   9  11
HETATM   11  C   UNL     1      42.674  -8.397  13.170  1.00  0.00    -0.003 A 
HETATM   12  C   UNL     1      42.030  -8.859  14.330  1.00  0.00     0.053 A 
HETATM   13  C   UNL     1      41.653  -7.932  15.281  1.00  0.00     0.106 A 
HETATM   14  C   UNL     1      41.890  -6.587  15.122  1.00  0.00     0.105 A 
HETATM   15  O   UNL     1      41.024  -8.213  16.453  1.00  0.00    -0.323 OA
HETATM   16  O   UNL     1      41.441  -5.852  16.174  1.00  0.00    -0.323 OA
HETATM   17  C   UNL     1      42.514  -6.092  14.000  1.00  0.00     0.040 A 
HETATM   18  C   UNL     1      40.889  -6.889  17.012  1.00  0.00     0.352 A 
HETATM   19  C   UNL     1      42.906  -7.009  13.017  1.00  0.00     0.017 A 
ENDBRANCH   9  11
ENDBRANCH   2   5
BRANCH   1  20
HETATM   20  C   UNL     1      44.137 -11.811   6.889  1.00  0.00     0.217 C 
BRANCH  20  21
HETATM   21  C   UNL     1      43.921 -13.249   6.723  1.00  0.00    -0.085 C 
BRANCH  21  22
HETATM   22  C   UNL     1      43.723 -14.527   6.554  1.00  0.00    -0.078 C 
BRANCH  22  23
HETATM   23  C   UNL     1      43.491 -16.016   6.359  1.00  0.00     0.269 C 
BRANCH  23  24
HETATM   24  O   UNL     1      43.832 -16.361   5.019  1.00  0.00    -0.338 OA
BRANCH  24  25
HETATM   25  C   UNL     1      42.867 -16.160   4.075  1.00  0.00     0.087 A 
HETATM   26  C   UNL     1      41.493 -16.280   4.238  1.00  0.00     0.153 A 
HETATM   27  N   UNL     1      40.586 -16.058   3.255  1.00  0.00    -0.263 NA
HETATM   28  C   UNL     1      41.061 -15.698   2.040  1.00  0.00     0.030 A 
HETATM   29  C   UNL     1      40.057 -15.450   0.953  1.00  0.00     0.070 C 
HETATM   30  C   UNL     1      42.420 -15.559   1.782  1.00  0.00     0.029 A 
HETATM   31  C   UNL     1      43.327 -15.793   2.814  1.00  0.00     0.040 A 
ENDBRANCH  24  25
ENDBRANCH  23  24
ENDBRANCH  22  23
ENDBRANCH  21  22
ENDBRANCH  20  21
ENDBRANCH   1  20
TORSDOF 8
ENDMDL
MODEL 4
REMARK VINA RESULT:      -8.0      2.708     12.601
REMARK  8 active torsions:
REMARK  status: ('A' for Active; 'I' for Inactive)
REMARK    1  A    between atoms: C_5  and  O_6 
REMARK    2  A    between atoms: O_6  and  C_7 
REMARK    3  A    between atoms: C_7  and  C_8 
REMARK    4  A    between atoms: C_8  and  C_9 
REMARK    5  A    between atoms: C_9  and  C_10 
REMARK    6  A    between atoms: C_10  and  N_11 
REMARK       I    between atoms: N_11  and  C_12 
REMARK    7  A    between atoms: C_12  and  C_13 
REMARK    8  A    between atoms: C_17  and  C_18 
ROOT
HETATM    1  N   UNL     1      43.162 -11.929   5.316  1.00  0.00    -0.345 N 
HETATM    2  C   UNL     1      42.515 -12.284   4.159  1.00  0.00     0.270 C 
HETATM    3  O   UNL     1      41.711 -11.546   3.598  1.00  0.00    -0.266 OA
HETATM    4  H   UNL     1      43.878 -12.525   5.699  1.00  0.00     0.163 HD
ENDROOT
BRANCH   2   5
HETATM    5  C   UNL     1      42.847 -13.585   3.648  1.00  0.00     0.120 A 
HETATM    6  N   UNL     1      43.275 -13.764   2.362  1.00  0.00    -0.272 N 
HETATM    7  H   UNL     1      43.406 -13.043   1.660  1.00  0.00     0.189 HD
HETATM    8  N   UNL     1      43.526 -15.041   2.037  1.00  0.00    -0.174 NA
HETATM    9  C   UNL     1      43.266 -15.735   3.157  1.00  0.00     0.089 A 
HETATM   10  C   UNL     1      42.835 -14.855   4.190  1.00  0.00     0.071 A 
BRANCH   9  11
HETATM   11  C   UNL     1      43.420 -17.192   3.217  1.00  0.00    -0.003 A 
HETATM   12  C   UNL     1      43.798 -17.824   4.413  1.00  0.00     0.053 A 
HETATM   13  C   UNL     1      43.917 -19.199   4.416  1.00  0.00     0.106 A 
HETATM   14  C   UNL     1      43.677 -19.954   3.292  1.00  0.00     0.105 A 
HETATM   15  O   UNL     1      44.271 -19.960   5.486  1.00  0.00    -0.323 OA
HETATM   16  O   UNL     1      43.849 -21.284   3.512  1.00  0.00    -0.323 OA
HETATM   17  C   UNL     1      43.310 -19.375   2.099  1.00  0.00     0.040 A 
HETATM   18  C   UNL     1      44.230 -21.281   4.904  1.00  0.00     0.352 A 
HETATM   19  C   UNL     1      43.183 -17.981   2.066  1.00  0.00     0.017 A 
ENDBRANCH   9  11
ENDBRANCH   2   5
BRANCH   1  20
HETATM   20  C   UNL     1      42.958 -10.634   5.908  1.00  0.00     0.217 C 
BRANCH  20  21
HETATM   21  C   UNL     1      43.501 -10.621   7.267  1.00  0.00    -0.085 C 
BRANCH  21  22
HETATM   22  C   UNL     1      43.988 -10.589   8.476  1.00  0.00    -0.078 C 
BRANCH  22  23
HETATM   23  C   UNL     1      44.556 -10.551   9.885  1.00  0.00     0.269 C 
BRANCH  23  24
HETATM   24  O   UNL     1      44.371  -9.242  10.418  1.00  0.00    -0.338 OA
BRANCH  24  25
HETATM   25  C   UNL     1      43.577  -9.143  11.524  1.00  0.00     0.087 A 
HETATM   26  C   UNL     1      42.646 -10.069  11.976  1.00  0.00     0.153 A 
HETATM   27  N   UNL     1      41.890  -9.910  13.090  1.00  0.00    -0.263 NA
HETATM   28  C   UNL     1      42.061  -8.771  13.801  1.00  0.00     0.030 A 
HETATM   29  C   UNL     1      41.228  -8.596  15.035  1.00  0.00     0.070 C 
HETATM   30  C   UNL     1      42.966  -7.785  13.422  1.00  0.00     0.029 A 
HETATM   31  C   UNL     1      43.728  -7.979  12.271  1.00  0.00     0.040 A 
ENDBRANCH  24  25
ENDBRANCH  23  24
ENDBRANCH  22  23
ENDBRANCH  21  22
ENDBRANCH  20  21
ENDBRANCH   1  20
TORSDOF 8
ENDMDL
MODEL 5
REMARK VINA RESULT:      -7.9      3.434     11.398
REMARK  8 active torsions:
REMARK  status: ('A' for Active; 'I' for Inactive)
REMARK    1  A    between atoms: C_5  and  O_6 
REMARK    2  A    between atoms: O_6  and  C_7 
REMARK    3  A    between atoms: C_7  and  C_8 
REMARK    4  A    between atoms: C_8  and  C_9 
REMARK    5  A    between atoms: C_9  and  C_10 
REMARK    6  A    between atoms: C_10  and  N_11 
REMARK       I    between atoms: N_11  and  C_12 
REMARK    7  A    between atoms: C_12  and  C_13 
REMARK    8  A    between atoms: C_17  and  C_18 
ROOT
HETATM    1  N   UNL     1      40.340 -10.604   7.065  1.00  0.00    -0.345 N 
HETATM    2  C   UNL     1      39.662 -11.614   6.431  1.00  0.00     0.270 C 
HETATM    3  O   UNL     1      38.439 -11.710   6.463  1.00  0.00    -0.266 OA
HETATM    4  H   UNL     1      41.335 -10.508   6.944  1.00  0.00     0.163 HD
ENDROOT
BRANCH   2   5
HETATM    5  C   UNL     1      40.486 -12.552   5.721  1.00  0.00     0.120 A 
HETATM    6  N   UNL     1      40.894 -12.323   4.437  1.00  0.00    -0.272 N 
HETATM    7  H   UNL     1      40.681 -11.509   3.869  1.00  0.00     0.189 HD
HETATM    8  N   UNL     1      41.643 -13.305   3.913  1.00  0.00    -0.174 NA
HETATM    9  C   UNL     1      41.745 -14.216   4.894  1.00  0.00     0.089 A 
HETATM   10  C   UNL     1      41.030 -13.780   6.045  1.00  0.00     0.071 A 
BRANCH   9  11
HETATM   11  C   UNL     1      42.497 -15.462   4.716  1.00  0.00    -0.003 A 
HETATM   12  C   UNL     1      42.308 -16.257   3.574  1.00  0.00     0.053 A 
HETATM   13  C   UNL     1      43.052 -17.414   3.453  1.00  0.00     0.106 A 
HETATM   14  C   UNL     1      43.959 -17.800   4.411  1.00  0.00     0.105 A 
HETATM   15  O   UNL     1      42.988 -18.290   2.414  1.00  0.00    -0.323 OA
HETATM   16  O   UNL     1      44.583 -18.967   4.095  1.00  0.00    -0.323 OA
HETATM   17  C   UNL     1      44.172 -17.054   5.546  1.00  0.00     0.040 A 
HETATM   18  C   UNL     1      43.959 -19.274   2.831  1.00  0.00     0.352 A 
HETATM   19  C   UNL     1      43.431 -15.876   5.697  1.00  0.00     0.017 A 
ENDBRANCH   9  11
ENDBRANCH   2   5
BRANCH   1  20
HETATM   20  C   UNL     1      39.633  -9.568   7.770  1.00  0.00     0.217 C 
BRANCH  20  21
HETATM   21  C   UNL     1      40.287  -9.311   9.054  1.00  0.00    -0.085 C 
BRANCH  21  22
HETATM   22  C   UNL     1      40.852  -9.069  10.204  1.00  0.00    -0.078 C 
BRANCH  22  23
HETATM   23  C   UNL     1      41.511  -8.785  11.544  1.00  0.00     0.269 C 
BRANCH  23  24
HETATM   24  O   UNL     1      42.540  -7.818  11.353  1.00  0.00    -0.338 OA
BRANCH  24  25
HETATM   25  C   UNL     1      43.522  -8.142  10.462  1.00  0.00     0.087 A 
HETATM   26  C   UNL     1      43.852  -7.469   9.293  1.00  0.00     0.153 A 
HETATM   27  N   UNL     1      44.848  -7.843   8.452  1.00  0.00    -0.263 NA
HETATM   28  C   UNL     1      45.560  -8.946   8.783  1.00  0.00     0.030 A 
HETATM   29  C   UNL     1      46.663  -9.358   7.855  1.00  0.00     0.070 C 
HETATM   30  C   UNL     1      45.298  -9.685   9.931  1.00  0.00     0.029 A 
HETATM   31  C   UNL     1      44.267  -9.274  10.775  1.00  0.00     0.040 A 
ENDBRANCH  24  25
ENDBRANCH  23  24
ENDBRANCH  22  23
ENDBRANCH  21  22
ENDBRANCH  20  21
ENDBRANCH   1  20
TORSDOF 8
ENDMDL
MODEL 6
REMARK VINA RESULT:      -7.9      3.569     11.354
REMARK  8 active torsions:
REMARK  status: ('A' for Active; 'I' for Inactive)
REMARK    1  A    between atoms: C_5  and  O_6 
REMARK    2  A    between atoms: O_6  and  C_7 
REMARK    3  A    between atoms: C_7  and  C_8 
REMARK    4  A    between atoms: C_8  and  C_9 
REMARK    5  A    between atoms: C_9  and  C_10 
REMARK    6  A    between atoms: C_10  and  N_11 
REMARK       I    between atoms: N_11  and  C_12 
REMARK    7  A    between atoms: C_12  and  C_13 
REMARK    8  A    between atoms: C_17  and  C_18 
ROOT
HETATM    1  N   UNL     1      41.093 -11.302   6.459  1.00  0.00    -0.345 N 
HETATM    2  C   UNL     1      42.384 -11.615   6.116  1.00  0.00     0.270 C 
HETATM    3  O   UNL     1      43.230 -10.759   5.875  1.00  0.00    -0.266 OA
HETATM    4  H   UNL     1      40.451 -12.028   6.734  1.00  0.00     0.163 HD
ENDROOT
BRANCH   2   5
HETATM    5  C   UNL     1      42.679 -13.020   6.063  1.00  0.00     0.120 A 
HETATM    6  N   UNL     1      42.943 -13.742   7.193  1.00  0.00    -0.272 N 
HETATM    7  H   UNL     1      42.956 -13.394   8.147  1.00  0.00     0.189 HD
HETATM    8  N   UNL     1      43.217 -15.036   6.969  1.00  0.00    -0.174 NA
HETATM    9  C   UNL     1      43.117 -15.179   5.638  1.00  0.00     0.089 A 
HETATM   10  C   UNL     1      42.783 -13.935   5.034  1.00  0.00     0.071 A 
BRANCH   9  11
HETATM   11  C   UNL     1      43.347 -16.470   4.980  1.00  0.00    -0.003 A 
HETATM   12  C   UNL     1      43.601 -17.625   5.737  1.00  0.00     0.053 A 
HETATM   13  C   UNL     1      43.799 -18.815   5.066  1.00  0.00     0.106 A 
HETATM   14  C   UNL     1      43.755 -18.895   3.694  1.00  0.00     0.105 A 
HETATM   15  O   UNL     1      44.054 -20.018   5.647  1.00  0.00    -0.323 OA
HETATM   16  O   UNL     1      43.974 -20.157   3.239  1.00  0.00    -0.323 OA
HETATM   17  C   UNL     1      43.514 -17.787   2.915  1.00  0.00     0.040 A 
HETATM   18  C   UNL     1      44.168 -20.863   4.483  1.00  0.00     0.352 A 
HETATM   19  C   UNL     1      43.311 -16.565   3.568  1.00  0.00     0.017 A 
ENDBRANCH   9  11
ENDBRANCH   2   5
BRANCH   1  20
HETATM   20  C   UNL     1      40.676  -9.932   6.597  1.00  0.00     0.217 C 
BRANCH  20  21
HETATM   21  C   UNL     1      40.824  -9.508   7.990  1.00  0.00    -0.085 C 
BRANCH  21  22
HETATM   22  C   UNL     1      40.944  -9.148   9.238  1.00  0.00    -0.078 C 
BRANCH  22  23
HETATM   23  C   UNL     1      41.081  -8.728  10.691  1.00  0.00     0.269 C 
BRANCH  23  24
HETATM   24  O   UNL     1      42.193  -7.844  10.810  1.00  0.00    -0.338 OA
BRANCH  24  25
HETATM   25  C   UNL     1      43.309  -8.172  10.096  1.00  0.00     0.087 A 
HETATM   26  C   UNL     1      43.848  -7.485   9.016  1.00  0.00     0.153 A 
HETATM   27  N   UNL     1      44.968  -7.864   8.352  1.00  0.00    -0.263 NA
HETATM   28  C   UNL     1      45.593  -8.986   8.777  1.00  0.00     0.030 A 
HETATM   29  C   UNL     1      46.834  -9.403   8.045  1.00  0.00     0.070 C 
HETATM   30  C   UNL     1      45.124  -9.741   9.846  1.00  0.00     0.029 A 
HETATM   31  C   UNL     1      43.970  -9.325  10.508  1.00  0.00     0.040 A 
ENDBRANCH  24  25
ENDBRANCH  23  24
ENDBRANCH  22  23
ENDBRANCH  21  22
ENDBRANCH  20  21
ENDBRANCH   1  20
TORSDOF 8
ENDMDL
MODEL 7
REMARK VINA RESULT:      -7.8      1.257      1.455
REMARK  8 active torsions:
REMARK  status: ('A' for Active; 'I' for Inactive)
REMARK    1  A    between atoms: C_5  and  O_6 
REMARK    2  A    between atoms: O_6  and  C_7 
REMARK    3  A    between atoms: C_7  and  C_8 
REMARK    4  A    between atoms: C_8  and  C_9 
REMARK    5  A    between atoms: C_9  and  C_10 
REMARK    6  A    between atoms: C_10  and  N_11 
REMARK       I    between atoms: N_11  and  C_12 
REMARK    7  A    between atoms: C_12  and  C_13 
REMARK    8  A    between atoms: C_17  and  C_18 
ROOT
HETATM    1  N   UNL     1      43.579 -11.049   8.114  1.00  0.00    -0.345 N 
HETATM    2  C   UNL     1      43.149  -9.762   8.320  1.00  0.00     0.270 C 
HETATM    3  O   UNL     1      43.178  -8.908   7.439  1.00  0.00    -0.266 OA
HETATM    4  H   UNL     1      43.459 -11.743   8.834  1.00  0.00     0.163 HD
ENDROOT
BRANCH   2   5
HETATM    5  C   UNL     1      42.659  -9.484   9.641  1.00  0.00     0.120 A 
HETATM    6  N   UNL     1      41.440  -9.935  10.065  1.00  0.00    -0.272 N 
HETATM    7  H   UNL     1      40.779 -10.490   9.531  1.00  0.00     0.189 HD
HETATM    8  N   UNL     1      41.124  -9.574  11.317  1.00  0.00    -0.174 NA
HETATM    9  C   UNL     1      42.182  -8.866  11.745  1.00  0.00     0.089 A 
HETATM   10  C   UNL     1      43.166  -8.786  10.720  1.00  0.00     0.071 A 
BRANCH   9  11
HETATM   11  C   UNL     1      42.230  -8.284  13.090  1.00  0.00    -0.003 A 
HETATM   12  C   UNL     1      41.292  -8.657  14.067  1.00  0.00     0.053 A 
HETATM   13  C   UNL     1      41.391  -8.086  15.320  1.00  0.00     0.106 A 
HETATM   14  C   UNL     1      42.372  -7.174  15.629  1.00  0.00     0.105 A 
HETATM   15  O   UNL     1      40.567  -8.339  16.372  1.00  0.00    -0.323 OA
HETATM   16  O   UNL     1      42.290  -6.738  16.914  1.00  0.00    -0.323 OA
HETATM   17  C   UNL     1      43.307  -6.777  14.701  1.00  0.00     0.040 A 
HETATM   18  C   UNL     1      41.141  -7.477  17.378  1.00  0.00     0.352 A 
HETATM   19  C   UNL     1      43.230  -7.338  13.421  1.00  0.00     0.017 A 
ENDBRANCH   9  11
ENDBRANCH   2   5
BRANCH   1  20
HETATM   20  C   UNL     1      44.048 -11.474   6.823  1.00  0.00     0.217 C 
BRANCH  20  21
HETATM   21  C   UNL     1      43.932 -12.929   6.710  1.00  0.00    -0.085 C 
BRANCH  21  22
HETATM   22  C   UNL     1      43.808 -14.223   6.603  1.00  0.00    -0.078 C 
BRANCH  22  23
HETATM   23  C   UNL     1      43.662 -15.730   6.479  1.00  0.00     0.269 C 
BRANCH  23  24
HETATM   24  O   UNL     1      42.633 -16.015   5.536  1.00  0.00    -0.338 OA
BRANCH  24  25
HETATM   25  C   UNL     1      42.903 -16.987   4.616  1.00  0.00     0.087 A 
HETATM   26  C   UNL     1      42.456 -17.049   3.302  1.00  0.00     0.153 A 
HETATM   27  N   UNL     1      42.767 -18.044   2.436  1.00  0.00    -0.263 NA
HETATM   28  C   UNL     1      43.566 -19.037   2.891  1.00  0.00     0.030 A 
HETATM   29  C   UNL     1      43.914 -20.136   1.931  1.00  0.00     0.070 C 
HETATM   30  C   UNL     1      44.057 -19.061   4.191  1.00  0.00     0.029 A 
HETATM   31  C   UNL     1      43.718 -18.023   5.058  1.00  0.00     0.040 A 
ENDBRANCH  24  25
ENDBRANCH  23  24
ENDBRANCH  22  23
ENDBRANCH  21  22
ENDBRANCH  20  21
ENDBRANCH   1  20
TORSDOF 8
ENDMDL
MODEL 8
REMARK VINA RESULT:      -7.5      2.725     12.453
REMARK  8 active torsions:
REMARK  status: ('A' for Active; 'I' for Inactive)
REMARK    1  A    between atoms: C_5  and  O_6 
REMARK    2  A    between atoms: O_6  and  C_7 
REMARK    3  A    between atoms: C_7  and  C_8 
REMARK    4  A    between atoms: C_8  and  C_9 
REMARK    5  A    between atoms: C_9  and  C_10 
REMARK    6  A    between atoms: C_10  and  N_11 
REMARK       I    between atoms: N_11  and  C_12 
REMARK    7  A    between atoms: C_12  and  C_13 
REMARK    8  A    between atoms: C_17  and  C_18 
ROOT
HETATM    1  N   UNL     1      42.176 -10.619   6.496  1.00  0.00    -0.345 N 
HETATM    2  C   UNL     1      42.113 -10.687   5.127  1.00  0.00     0.270 C 
HETATM    3  O   UNL     1      42.092  -9.687   4.416  1.00  0.00    -0.266 OA
HETATM    4  H   UNL     1      42.279 -11.460   7.040  1.00  0.00     0.163 HD
ENDROOT
BRANCH   2   5
HETATM    5  C   UNL     1      42.077 -12.015   4.581  1.00  0.00     0.120 A 
HETATM    6  N   UNL     1      41.086 -12.416   3.730  1.00  0.00    -0.272 N 
HETATM    7  H   UNL     1      40.308 -11.856   3.397  1.00  0.00     0.189 HD
HETATM    8  N   UNL     1      41.188 -13.692   3.327  1.00  0.00    -0.174 NA
HETATM    9  C   UNL     1      42.300 -14.150   3.925  1.00  0.00     0.089 A 
HETATM   10  C   UNL     1      42.884 -13.127   4.723  1.00  0.00     0.071 A 
BRANCH   9  11
HETATM   11  C   UNL     1      42.767 -15.527   3.737  1.00  0.00    -0.003 A 
HETATM   12  C   UNL     1      43.188 -16.297   4.833  1.00  0.00     0.053 A 
HETATM   13  C   UNL     1      43.607 -17.592   4.599  1.00  0.00     0.106 A 
HETATM   14  C   UNL     1      43.621 -18.137   3.338  1.00  0.00     0.105 A 
HETATM   15  O   UNL     1      44.043 -18.465   5.547  1.00  0.00    -0.323 OA
HETATM   16  O   UNL     1      44.066 -19.421   3.331  1.00  0.00    -0.323 OA
HETATM   17  C   UNL     1      43.222 -17.416   2.236  1.00  0.00     0.040 A 
HETATM   18  C   UNL     1      44.336 -19.621   4.735  1.00  0.00     0.352 A 
HETATM   19  C   UNL     1      42.793 -16.099   2.442  1.00  0.00     0.017 A 
ENDBRANCH   9  11
ENDBRANCH   2   5
BRANCH   1  20
HETATM   20  C   UNL     1      42.267  -9.351   7.169  1.00  0.00     0.217 C 
BRANCH  20  21
HETATM   21  C   UNL     1      42.664  -9.559   8.563  1.00  0.00    -0.085 C 
BRANCH  21  22
HETATM   22  C   UNL     1      43.036  -9.733   9.800  1.00  0.00    -0.078 C 
BRANCH  22  23
HETATM   23  C   UNL     1      43.468  -9.935  11.243  1.00  0.00     0.269 C 
BRANCH  23  24
HETATM   24  O   UNL     1      43.628  -8.659  11.857  1.00  0.00    -0.338 OA
BRANCH  24  25
HETATM   25  C   UNL     1      42.929  -8.447  13.010  1.00  0.00     0.087 A 
HETATM   26  C   UNL     1      41.881  -9.209  13.510  1.00  0.00     0.153 A 
HETATM   27  N   UNL     1      41.230  -8.945  14.670  1.00  0.00    -0.263 NA
HETATM   28  C   UNL     1      41.637  -7.866  15.378  1.00  0.00     0.030 A 
HETATM   29  C   UNL     1      40.920  -7.575  16.664  1.00  0.00     0.070 C 
HETATM   30  C   UNL     1      42.673  -7.042  14.954  1.00  0.00     0.029 A 
HETATM   31  C   UNL     1      43.322  -7.341  13.757  1.00  0.00     0.040 A 
ENDBRANCH  24  25
ENDBRANCH  23  24
ENDBRANCH  22  23
ENDBRANCH  21  22
ENDBRANCH  20  21
ENDBRANCH   1  20
TORSDOF 8
ENDMDL
MODEL 9
REMARK VINA RESULT:      -7.4      2.381     12.694
REMARK  8 active torsions:
REMARK  status: ('A' for Active; 'I' for Inactive)
REMARK    1  A    between atoms: C_5  and  O_6 
REMARK    2  A    between atoms: O_6  and  C_7 
REMARK    3  A    between atoms: C_7  and  C_8 
REMARK    4  A    between atoms: C_8  and  C_9 
REMARK    5  A    between atoms: C_9  and  C_10 
REMARK    6  A    between atoms: C_10  and  N_11 
REMARK       I    between atoms: N_11  and  C_12 
REMARK    7  A    between atoms: C_12  and  C_13 
REMARK    8  A    between atoms: C_17  and  C_18 
ROOT
HETATM    1  N   UNL     1      42.867 -10.480   7.959  1.00  0.00    -0.345 N 
HETATM    2  C   UNL     1      43.807 -11.460   7.762  1.00  0.00     0.270 C 
HETATM    3  O   UNL     1      44.918 -11.424   8.281  1.00  0.00    -0.266 OA
HETATM    4  H   UNL     1      41.937 -10.588   7.586  1.00  0.00     0.163 HD
ENDROOT
BRANCH   2   5
HETATM    5  C   UNL     1      43.396 -12.538   6.906  1.00  0.00     0.120 A 
HETATM    6  N   UNL     1      42.118 -12.632   6.431  1.00  0.00    -0.272 N 
HETATM    7  H   UNL     1      41.354 -11.988   6.612  1.00  0.00     0.189 HD
HETATM    8  N   UNL     1      41.893 -13.707   5.660  1.00  0.00    -0.174 NA
HETATM    9  C   UNL     1      43.074 -14.343   5.612  1.00  0.00     0.089 A 
HETATM   10  C   UNL     1      44.042 -13.641   6.383  1.00  0.00     0.071 A 
BRANCH   9  11
HETATM   11  C   UNL     1      43.251 -15.587   4.856  1.00  0.00    -0.003 A 
HETATM   12  C   UNL     1      43.632 -16.773   5.505  1.00  0.00     0.053 A 
HETATM   13  C   UNL     1      43.772 -17.917   4.746  1.00  0.00     0.106 A 
HETATM   14  C   UNL     1      43.552 -17.924   3.389  1.00  0.00     0.105 A 
HETATM   15  O   UNL     1      44.132 -19.141   5.219  1.00  0.00    -0.323 OA
HETATM   16  O   UNL     1      43.744 -19.151   2.837  1.00  0.00    -0.323 OA
HETATM   17  C   UNL     1      43.183 -16.784   2.713  1.00  0.00     0.040 A 
HETATM   18  C   UNL     1      44.116 -19.917   4.002  1.00  0.00     0.352 A 
HETATM   19  C   UNL     1      43.034 -15.607   3.457  1.00  0.00     0.017 A 
ENDBRANCH   9  11
ENDBRANCH   2   5
BRANCH   1  20
HETATM   20  C   UNL     1      43.130  -9.369   8.833  1.00  0.00     0.217 C 
BRANCH  20  21
HETATM   21  C   UNL     1      42.148  -9.351   9.919  1.00  0.00    -0.085 C 
BRANCH  21  22
HETATM   22  C   UNL     1      41.289  -9.333  10.900  1.00  0.00    -0.078 C 
BRANCH  22  23
HETATM   23  C   UNL     1      40.289  -9.312  12.044  1.00  0.00     0.269 C 
BRANCH  23  24
HETATM   24  O   UNL     1      41.001  -9.361  13.277  1.00  0.00    -0.338 OA
BRANCH  24  25
HETATM   25  C   UNL     1      41.020  -8.212  14.014  1.00  0.00     0.087 A 
HETATM   26  C   UNL     1      40.480  -6.981  13.666  1.00  0.00     0.153 A 
HETATM   27  N   UNL     1      40.528  -5.876  14.451  1.00  0.00    -0.263 NA
HETATM   28  C   UNL     1      41.147  -5.992  15.649  1.00  0.00     0.030 A 
HETATM   29  C   UNL     1      41.198  -4.771  16.519  1.00  0.00     0.070 C 
HETATM   30  C   UNL     1      41.722  -7.183  16.079  1.00  0.00     0.029 A 
HETATM   31  C   UNL     1      41.655  -8.300  15.249  1.00  0.00     0.040 A 
ENDBRANCH  24  25
ENDBRANCH  23  24
ENDBRANCH  22  23
ENDBRANCH  21  22
ENDBRANCH  20  21
ENDBRANCH   1  20
TORSDOF 8
ENDMDL
MODEL 10
REMARK VINA RESULT:      -7.4      2.191      2.288
REMARK  8 active torsions:
REMARK  status: ('A' for Active; 'I' for Inactive)
REMARK    1  A    between atoms: C_5  and  O_6 
REMARK    2  A    between atoms: O_6  and  C_7 
REMARK    3  A    between atoms: C_7  and  C_8 
REMARK    4  A    between atoms: C_8  and  C_9 
REMARK    5  A    between atoms: C_9  and  C_10 
REMARK    6  A    between atoms: C_10  and  N_11 
REMARK       I    between atoms: N_11  and  C_12 
REMARK    7  A    between atoms: C_12  and  C_13 
REMARK    8  A    between atoms: C_17  and  C_18 
ROOT
HETATM    1  N   UNL     1      44.118 -10.265   8.240  1.00  0.00    -0.345 N 
HETATM    2  C   UNL     1      44.130 -10.173   9.609  1.00  0.00     0.270 C 
HETATM    3  O   UNL     1      44.878 -10.847  10.310  1.00  0.00    -0.266 OA
HETATM    4  H   UNL     1      43.553  -9.634   7.695  1.00  0.00     0.163 HD
ENDROOT
BRANCH   2   5
HETATM    5  C   UNL     1      43.205  -9.225  10.166  1.00  0.00     0.120 A 
HETATM    6  N   UNL     1      43.143  -7.934   9.721  1.00  0.00    -0.272 N 
HETATM    7  H   UNL     1      43.706  -7.518   8.985  1.00  0.00     0.189 HD
HETATM    8  N   UNL     1      42.240  -7.174  10.358  1.00  0.00    -0.174 NA
HETATM    9  C   UNL     1      41.671  -7.998  11.252  1.00  0.00     0.089 A 
HETATM   10  C   UNL     1      42.252  -9.295  11.163  1.00  0.00     0.071 A 
BRANCH   9  11
HETATM   11  C   UNL     1      40.615  -7.542  12.161  1.00  0.00    -0.003 A 
HETATM   12  C   UNL     1      40.929  -7.073  13.447  1.00  0.00     0.053 A 
HETATM   13  C   UNL     1      39.896  -6.645  14.256  1.00  0.00     0.106 A 
HETATM   14  C   UNL     1      38.586  -6.668  13.840  1.00  0.00     0.105 A 
HETATM   15  O   UNL     1      40.030  -6.163  15.521  1.00  0.00    -0.323 OA
HETATM   16  O   UNL     1      37.731  -6.202  14.789  1.00  0.00    -0.323 OA
HETATM   17  C   UNL     1      38.234  -7.124  12.591  1.00  0.00     0.040 A 
HETATM   18  C   UNL     1      38.652  -5.889  15.854  1.00  0.00     0.352 A 
HETATM   19  C   UNL     1      39.261  -7.566  11.748  1.00  0.00     0.017 A 
ENDBRANCH   9  11
ENDBRANCH   2   5
BRANCH   1  20
HETATM   20  C   UNL     1      45.029 -11.139   7.550  1.00  0.00     0.217 C 
BRANCH  20  21
HETATM   21  C   UNL     1      44.307 -12.312   7.053  1.00  0.00    -0.085 C 
BRANCH  21  22
HETATM   22  C   UNL     1      43.646 -13.348   6.619  1.00  0.00    -0.078 C 
BRANCH  22  23
HETATM   23  C   UNL     1      42.877 -14.557   6.113  1.00  0.00     0.269 C 
BRANCH  23  24
HETATM   24  O   UNL     1      43.047 -14.652   4.702  1.00  0.00    -0.338 OA
BRANCH  24  25
HETATM   25  C   UNL     1      43.236 -15.905   4.194  1.00  0.00     0.087 A 
HETATM   26  C   UNL     1      43.686 -17.028   4.875  1.00  0.00     0.153 A 
HETATM   27  N   UNL     1      43.846 -18.251   4.310  1.00  0.00    -0.263 NA
HETATM   28  C   UNL     1      43.546 -18.372   2.996  1.00  0.00     0.030 A 
HETATM   29  C   UNL     1      43.720 -19.724   2.371  1.00  0.00     0.070 C 
HETATM   30  C   UNL     1      43.094 -17.301   2.233  1.00  0.00     0.029 A 
HETATM   31  C   UNL     1      42.939 -16.058   2.844  1.00  0.00     0.040 A 
ENDBRANCH  24  25
ENDBRANCH  23  24
ENDBRANCH  22  23
ENDBRANCH  21  22
ENDBRANCH  20  21
ENDBRANCH   1  20
TORSDOF 8
ENDMDL
