MODEL 1
REMARK VINA RESULT:      -8.3      0.000      0.000
REMARK  3 active torsions:
REMARK  status: ('A' for Active; 'I' for Inactive)
REMARK    1  A    between atoms: C_11  and  N_12 
REMARK       I    between atoms: N_12  and  C_13 
REMARK    2  A    between atoms: C_13  and  C_14 
REMARK    3  A    between atoms: C_15  and  C_16 
ROOT
HETATM    1  N   UNL     1      41.464 -14.709   4.526  1.00  0.00    -0.352 N 
HETATM    2  C   UNL     1      41.646 -15.911   5.197  1.00  0.00     0.255 C 
HETATM    3  O   UNL     1      40.720 -16.684   5.410  1.00  0.00    -0.268 OA
HETATM    4  H   UNL     1      42.316 -14.283   4.184  1.00  0.00     0.163 HD
ENDROOT
BRANCH   2   5
HETATM    5  C   UNL     1      43.008 -16.165   5.637  1.00  0.00     0.080 A 
HETATM    6  C   UNL     1      43.920 -17.161   5.155  1.00  0.00     0.107 A 
HETATM    7  N   UNL     1      45.112 -17.051   5.767  1.00  0.00    -0.173 NA
HETATM    8  N   UNL     1      44.973 -16.030   6.614  1.00  0.00    -0.288 N 
HETATM    9  H   UNL     1      45.778 -15.763   7.176  1.00  0.00     0.188 HD
HETATM   10  C   UNL     1      43.730 -15.472   6.594  1.00  0.00     0.128 A 
BRANCH   6  11
HETATM   11  C   UNL     1      43.708 -18.207   4.158  1.00  0.00     0.034 A 
HETATM   12  C   UNL     1      43.938 -19.555   4.449  1.00  0.00     0.129 A 
HETATM   13  F   UNL     1      44.393 -19.928   5.657  1.00  0.00    -0.205 F 
HETATM   14  C   UNL     1      43.732 -20.546   3.491  1.00  0.00     0.043 A 
HETATM   15  C   UNL     1      43.302 -20.195   2.212  1.00  0.00     0.003 A 
HETATM   16  C   UNL     1      43.090 -18.854   1.896  1.00  0.00     0.001 A 
HETATM   17  C   UNL     1      43.293 -17.865   2.862  1.00  0.00     0.017 A 
ENDBRANCH   6  11
ENDBRANCH   2   5
BRANCH   1  18
HETATM   18  C   UNL     1      40.197 -14.369   3.899  1.00  0.00     0.089 C 
HETATM   19  C   UNL     1      40.050 -15.007   2.513  1.00  0.00     0.063 C 
HETATM   20  C   UNL     1      40.834 -14.323   1.380  1.00  0.00     0.121 C 
HETATM   21  N   UNL     1      40.630 -12.826   1.432  1.00  0.00    -0.059 N 
HETATM   22  C   UNL     1      42.332 -14.652   1.379  1.00  0.00     0.046 C 
HETATM   23  C   UNL     1      40.261 -14.783   0.022  1.00  0.00     0.046 C 
HETATM   24  C   UNL     1      40.698 -12.091   2.755  1.00  0.00     0.121 C 
HETATM   25  H   UNL     1      39.700 -12.632   1.032  1.00  0.00     0.279 HD
HETATM   26  H   UNL     1      41.283 -12.375   0.774  1.00  0.00     0.279 HD
HETATM   27  C   UNL     1      42.155 -11.824   3.140  1.00  0.00     0.046 C 
HETATM   28  C   UNL     1      40.029 -10.722   2.511  1.00  0.00     0.046 C 
HETATM   29  C   UNL     1      39.896 -12.864   3.808  1.00  0.00     0.063 C 
ENDBRANCH   1  18
TORSDOF 3
ENDMDL
MODEL 2
REMARK VINA RESULT:      -8.1     14.044     15.995
REMARK  3 active torsions:
REMARK  status: ('A' for Active; 'I' for Inactive)
REMARK    1  A    between atoms: C_11  and  N_12 
REMARK       I    between atoms: N_12  and  C_13 
REMARK    2  A    between atoms: C_13  and  C_14 
REMARK    3  A    between atoms: C_15  and  C_16 
ROOT
HETATM    1  N   UNL     1      46.414 -30.715   1.325  1.00  0.00    -0.352 N 
HETATM    2  C   UNL     1      45.214 -31.245   0.869  1.00  0.00     0.255 C 
HETATM    3  O   UNL     1      45.140 -32.371   0.390  1.00  0.00    -0.268 OA
HETATM    4  H   UNL     1      46.316 -29.906   1.925  1.00  0.00     0.163 HD
ENDROOT
BRANCH   2   5
HETATM    5  C   UNL     1      44.068 -30.359   0.990  1.00  0.00     0.080 A 
HETATM    6  C   UNL     1      43.562 -29.433   0.019  1.00  0.00     0.107 A 
HETATM    7  N   UNL     1      42.449 -28.830   0.472  1.00  0.00    -0.173 NA
HETATM    8  N   UNL     1      42.249 -29.341   1.688  1.00  0.00    -0.288 N 
HETATM    9  H   UNL     1      41.435 -29.026   2.209  1.00  0.00     0.188 HD
HETATM   10  C   UNL     1      43.195 -30.247   2.059  1.00  0.00     0.128 A 
BRANCH   6  11
HETATM   11  C   UNL     1      44.089 -29.093  -1.300  1.00  0.00     0.034 A 
HETATM   12  C   UNL     1      45.080 -28.120  -1.464  1.00  0.00     0.129 A 
HETATM   13  F   UNL     1      45.560 -27.443  -0.408  1.00  0.00    -0.205 F 
HETATM   14  C   UNL     1      45.578 -27.803  -2.728  1.00  0.00     0.043 A 
HETATM   15  C   UNL     1      45.074 -28.452  -3.854  1.00  0.00     0.003 A 
HETATM   16  C   UNL     1      44.069 -29.409  -3.712  1.00  0.00     0.001 A 
HETATM   17  C   UNL     1      43.578 -29.726  -2.443  1.00  0.00     0.017 A 
ENDBRANCH   6  11
ENDBRANCH   2   5
BRANCH   1  18
HETATM   18  C   UNL     1      47.622 -31.520   1.406  1.00  0.00     0.089 C 
HETATM   19  C   UNL     1      48.421 -31.233   2.683  1.00  0.00     0.063 C 
HETATM   20  C   UNL     1      49.245 -29.934   2.674  1.00  0.00     0.121 C 
HETATM   21  N   UNL     1      50.019 -29.815   1.381  1.00  0.00    -0.059 N 
HETATM   22  C   UNL     1      48.408 -28.671   2.906  1.00  0.00     0.046 C 
HETATM   23  C   UNL     1      50.301 -30.000   3.798  1.00  0.00     0.046 C 
HETATM   24  C   UNL     1      49.350 -30.126   0.057  1.00  0.00     0.121 C 
HETATM   25  H   UNL     1      50.834 -30.442   1.455  1.00  0.00     0.279 HD
HETATM   26  H   UNL     1      50.434 -28.874   1.324  1.00  0.00     0.279 HD
HETATM   27  C   UNL     1      48.529 -28.924  -0.418  1.00  0.00     0.046 C 
HETATM   28  C   UNL     1      50.496 -30.330  -0.956  1.00  0.00     0.046 C 
HETATM   29  C   UNL     1      48.551 -31.428   0.185  1.00  0.00     0.063 C 
ENDBRANCH   1  18
TORSDOF 3
ENDMDL
MODEL 3
REMARK VINA RESULT:      -7.9      3.627      7.371
REMARK  3 active torsions:
REMARK  status: ('A' for Active; 'I' for Inactive)
REMARK    1  A    between atoms: C_11  and  N_12 
REMARK       I    between atoms: N_12  and  C_13 
REMARK    2  A    between atoms: C_13  and  C_14 
REMARK    3  A    between atoms: C_15  and  C_16 
ROOT
HETATM    1  N   UNL     1      40.711 -14.055   1.763  1.00  0.00    -0.352 N 
HETATM    2  C   UNL     1      39.943 -12.898   1.748  1.00  0.00     0.255 C 
HETATM    3  O   UNL     1      38.935 -12.778   2.433  1.00  0.00    -0.268 OA
HETATM    4  H   UNL     1      41.639 -13.950   1.371  1.00  0.00     0.163 HD
ENDROOT
BRANCH   2   5
HETATM    5  C   UNL     1      40.419 -11.859   0.849  1.00  0.00     0.080 A 
HETATM    6  C   UNL     1      40.153 -11.714  -0.552  1.00  0.00     0.107 A 
HETATM    7  N   UNL     1      40.721 -10.593  -1.031  1.00  0.00    -0.173 NA
HETATM    8  N   UNL     1      41.335 -10.041   0.017  1.00  0.00    -0.288 N 
HETATM    9  H   UNL     1      41.822  -9.160  -0.125  1.00  0.00     0.188 HD
HETATM   10  C   UNL     1      41.204 -10.763   1.165  1.00  0.00     0.128 A 
BRANCH   6  11
HETATM   11  C   UNL     1      39.400 -12.588  -1.448  1.00  0.00     0.034 A 
HETATM   12  C   UNL     1      38.037 -12.390  -1.689  1.00  0.00     0.129 A 
HETATM   13  F   UNL     1      37.368 -11.400  -1.076  1.00  0.00    -0.205 F 
HETATM   14  C   UNL     1      37.326 -13.229  -2.546  1.00  0.00     0.043 A 
HETATM   15  C   UNL     1      37.975 -14.296  -3.168  1.00  0.00     0.003 A 
HETATM   16  C   UNL     1      39.329 -14.522  -2.921  1.00  0.00     0.001 A 
HETATM   17  C   UNL     1      40.037 -13.675  -2.065  1.00  0.00     0.017 A 
ENDBRANCH   6  11
ENDBRANCH   2   5
BRANCH   1  18
HETATM   18  C   UNL     1      40.455 -15.130   2.707  1.00  0.00     0.089 C 
HETATM   19  C   UNL     1      40.801 -14.728   4.146  1.00  0.00     0.063 C 
HETATM   20  C   UNL     1      42.299 -14.732   4.495  1.00  0.00     0.121 C 
HETATM   21  N   UNL     1      42.947 -16.005   4.001  1.00  0.00    -0.059 N 
HETATM   22  C   UNL     1      43.060 -13.512   3.965  1.00  0.00     0.046 C 
HETATM   23  C   UNL     1      42.458 -14.743   6.030  1.00  0.00     0.046 C 
HETATM   24  C   UNL     1      42.640 -16.531   2.613  1.00  0.00     0.121 C 
HETATM   25  H   UNL     1      42.695 -16.753   4.664  1.00  0.00     0.279 HD
HETATM   26  H   UNL     1      43.970 -15.921   4.098  1.00  0.00     0.279 HD
HETATM   27  C   UNL     1      43.479 -15.793   1.568  1.00  0.00     0.046 C 
HETATM   28  C   UNL     1      43.096 -18.006   2.612  1.00  0.00     0.046 C 
HETATM   29  C   UNL     1      41.128 -16.470   2.370  1.00  0.00     0.063 C 
ENDBRANCH   1  18
TORSDOF 3
ENDMDL
MODEL 4
REMARK VINA RESULT:      -7.9      2.289      3.118
REMARK  3 active torsions:
REMARK  status: ('A' for Active; 'I' for Inactive)
REMARK    1  A    between atoms: C_11  and  N_12 
REMARK       I    between atoms: N_12  and  C_13 
REMARK    2  A    between atoms: C_13  and  C_14 
REMARK    3  A    between atoms: C_15  and  C_16 
ROOT
HETATM    1  N   UNL     1      41.693 -13.271   6.140  1.00  0.00    -0.352 N 
HETATM    2  C   UNL     1      41.332 -14.587   6.401  1.00  0.00     0.255 C 
HETATM    3  O   UNL     1      40.171 -14.971   6.324  1.00  0.00    -0.268 OA
HETATM    4  H   UNL     1      42.682 -13.129   5.981  1.00  0.00     0.163 HD
ENDROOT
BRANCH   2   5
HETATM    5  C   UNL     1      42.430 -15.458   6.785  1.00  0.00     0.080 A 
HETATM    6  C   UNL     1      43.294 -16.220   5.931  1.00  0.00     0.107 A 
HETATM    7  N   UNL     1      44.231 -16.860   6.650  1.00  0.00    -0.173 NA
HETATM    8  N   UNL     1      43.979 -16.532   7.918  1.00  0.00    -0.288 N 
HETATM    9  H   UNL     1      44.592 -16.903   8.639  1.00  0.00     0.188 HD
HETATM   10  C   UNL     1      42.902 -15.709   8.062  1.00  0.00     0.128 A 
BRANCH   6  11
HETATM   11  C   UNL     1      43.262 -16.371   4.478  1.00  0.00     0.034 A 
HETATM   12  C   UNL     1      43.329 -17.629   3.871  1.00  0.00     0.129 A 
HETATM   13  F   UNL     1      43.454 -18.743   4.611  1.00  0.00    -0.205 F 
HETATM   14  C   UNL     1      43.296 -17.764   2.484  1.00  0.00     0.043 A 
HETATM   15  C   UNL     1      43.211 -16.628   1.679  1.00  0.00     0.003 A 
HETATM   16  C   UNL     1      43.167 -15.364   2.265  1.00  0.00     0.001 A 
HETATM   17  C   UNL     1      43.195 -15.236   3.657  1.00  0.00     0.017 A 
ENDBRANCH   6  11
ENDBRANCH   2   5
BRANCH   1  18
HETATM   18  C   UNL     1      40.741 -12.310   5.609  1.00  0.00     0.089 C 
HETATM   19  C   UNL     1      40.951 -12.056   4.112  1.00  0.00     0.063 C 
HETATM   20  C   UNL     1      42.132 -11.138   3.753  1.00  0.00     0.121 C 
HETATM   21  N   UNL     1      42.119  -9.904   4.626  1.00  0.00    -0.059 N 
HETATM   22  C   UNL     1      43.498 -11.829   3.834  1.00  0.00     0.046 C 
HETATM   23  C   UNL     1      41.956 -10.636   2.304  1.00  0.00     0.046 C 
HETATM   24  C   UNL     1      41.867 -10.024   6.115  1.00  0.00     0.121 C 
HETATM   25  H   UNL     1      41.395  -9.274   4.252  1.00  0.00     0.279 HD
HETATM   26  H   UNL     1      42.998  -9.384   4.485  1.00  0.00     0.279 HD
HETATM   27  C   UNL     1      43.154 -10.426   6.841  1.00  0.00     0.046 C 
HETATM   28  C   UNL     1      41.493  -8.606   6.594  1.00  0.00     0.046 C 
HETATM   29  C   UNL     1      40.683 -10.967   6.356  1.00  0.00     0.063 C 
ENDBRANCH   1  18
TORSDOF 3
ENDMDL
MODEL 5
REMARK VINA RESULT:      -7.8      2.941      4.956
REMARK  3 active torsions:
REMARK  status: ('A' for Active; 'I' for Inactive)
REMARK    1  A    between atoms: C_11  and  N_12 
REMARK       I    between atoms: N_12  and  C_13 
REMARK    2  A    between atoms: C_13  and  C_14 
REMARK    3  A    between atoms: C_15  and  C_16 
ROOT
HETATM    1  N   UNL     1      41.818 -12.154   3.583  1.00  0.00    -0.352 N 
HETATM    2  C   UNL     1      42.188 -13.321   2.928  1.00  0.00     0.255 C 
HETATM    3  O   UNL     1      43.290 -13.454   2.409  1.00  0.00    -0.268 OA
HETATM    4  H   UNL     1      41.008 -12.247   4.184  1.00  0.00     0.163 HD
ENDROOT
BRANCH   2   5
HETATM    5  C   UNL     1      41.166 -14.353   2.892  1.00  0.00     0.080 A 
HETATM    6  C   UNL     1      41.114 -15.571   3.646  1.00  0.00     0.107 A 
HETATM    7  N   UNL     1      39.981 -16.246   3.384  1.00  0.00    -0.173 NA
HETATM    8  N   UNL     1      39.331 -15.498   2.491  1.00  0.00    -0.288 N 
HETATM    9  H   UNL     1      38.426 -15.825   2.164  1.00  0.00     0.188 HD
HETATM   10  C   UNL     1      39.999 -14.362   2.145  1.00  0.00     0.128 A 
BRANCH   6  11
HETATM   11  C   UNL     1      42.087 -16.120   4.588  1.00  0.00     0.034 A 
HETATM   12  C   UNL     1      43.345 -16.561   4.166  1.00  0.00     0.129 A 
HETATM   13  F   UNL     1      43.689 -16.518   2.868  1.00  0.00    -0.205 F 
HETATM   14  C   UNL     1      44.268 -17.082   5.072  1.00  0.00     0.043 A 
HETATM   15  C   UNL     1      43.933 -17.183   6.422  1.00  0.00     0.003 A 
HETATM   16  C   UNL     1      42.675 -16.771   6.857  1.00  0.00     0.001 A 
HETATM   17  C   UNL     1      41.756 -16.244   5.945  1.00  0.00     0.017 A 
ENDBRANCH   6  11
ENDBRANCH   2   5
BRANCH   1  18
HETATM   18  C   UNL     1      42.768 -11.082   3.831  1.00  0.00     0.089 C 
HETATM   19  C   UNL     1      43.984 -11.563   4.632  1.00  0.00     0.063 C 
HETATM   20  C   UNL     1      43.752 -11.753   6.141  1.00  0.00     0.121 C 
HETATM   21  N   UNL     1      43.028 -10.556   6.713  1.00  0.00    -0.059 N 
HETATM   22  C   UNL     1      43.003 -13.042   6.493  1.00  0.00     0.046 C 
HETATM   23  C   UNL     1      45.119 -11.804   6.857  1.00  0.00     0.046 C 
HETATM   24  C   UNL     1      41.843  -9.958   5.982  1.00  0.00     0.121 C 
HETATM   25  H   UNL     1      43.722  -9.802   6.819  1.00  0.00     0.279 HD
HETATM   26  H   UNL     1      42.741 -10.768   7.680  1.00  0.00     0.279 HD
HETATM   27  C   UNL     1      40.575 -10.765   6.276  1.00  0.00     0.046 C 
HETATM   28  C   UNL     1      41.643  -8.551   6.584  1.00  0.00     0.046 C 
HETATM   29  C   UNL     1      42.179  -9.826   4.493  1.00  0.00     0.063 C 
ENDBRANCH   1  18
TORSDOF 3
ENDMDL
MODEL 6
REMARK VINA RESULT:      -7.7      3.315      5.673
REMARK  3 active torsions:
REMARK  status: ('A' for Active; 'I' for Inactive)
REMARK    1  A    between atoms: C_11  and  N_12 
REMARK       I    between atoms: N_12  and  C_13 
REMARK    2  A    between atoms: C_13  and  C_14 
REMARK    3  A    between atoms: C_15  and  C_16 
ROOT
HETATM    1  N   UNL     1      41.434 -11.924   2.995  1.00  0.00    -0.352 N 
HETATM    2  C   UNL     1      41.439 -11.609   1.643  1.00  0.00     0.255 C 
HETATM    3  O   UNL     1      42.123 -10.700   1.188  1.00  0.00    -0.268 OA
HETATM    4  H   UNL     1      41.048 -12.833   3.215  1.00  0.00     0.163 HD
ENDROOT
BRANCH   2   5
HETATM    5  C   UNL     1      40.561 -12.426   0.821  1.00  0.00     0.080 A 
HETATM    6  C   UNL     1      40.505 -13.856   0.740  1.00  0.00     0.107 A 
HETATM    7  N   UNL     1      39.522 -14.248  -0.089  1.00  0.00    -0.173 NA
HETATM    8  N   UNL     1      38.970 -13.117  -0.531  1.00  0.00    -0.288 N 
HETATM    9  H   UNL     1      38.182 -13.188  -1.169  1.00  0.00     0.188 HD
HETATM   10  C   UNL     1      39.561 -11.994  -0.035  1.00  0.00     0.128 A 
BRANCH   6  11
HETATM   11  C   UNL     1      41.342 -14.855   1.401  1.00  0.00     0.034 A 
HETATM   12  C   UNL     1      40.789 -15.857   2.205  1.00  0.00     0.129 A 
HETATM   13  F   UNL     1      39.464 -15.914   2.418  1.00  0.00    -0.205 F 
HETATM   14  C   UNL     1      41.595 -16.807   2.831  1.00  0.00     0.043 A 
HETATM   15  C   UNL     1      42.979 -16.755   2.670  1.00  0.00     0.003 A 
HETATM   16  C   UNL     1      43.550 -15.749   1.891  1.00  0.00     0.001 A 
HETATM   17  C   UNL     1      42.736 -14.803   1.261  1.00  0.00     0.017 A 
ENDBRANCH   6  11
ENDBRANCH   2   5
BRANCH   1  18
HETATM   18  C   UNL     1      42.358 -11.299   3.928  1.00  0.00     0.089 C 
HETATM   19  C   UNL     1      43.187 -12.333   4.699  1.00  0.00     0.063 C 
HETATM   20  C   UNL     1      42.456 -13.048   5.848  1.00  0.00     0.121 C 
HETATM   21  N   UNL     1      41.713 -12.044   6.699  1.00  0.00    -0.059 N 
HETATM   22  C   UNL     1      41.501 -14.153   5.380  1.00  0.00     0.046 C 
HETATM   23  C   UNL     1      43.499 -13.704   6.777  1.00  0.00     0.046 C 
HETATM   24  C   UNL     1      40.902 -10.941   6.049  1.00  0.00     0.121 C 
HETATM   25  H   UNL     1      42.409 -11.583   7.304  1.00  0.00     0.279 HD
HETATM   26  H   UNL     1      41.105 -12.549   7.360  1.00  0.00     0.279 HD
HETATM   27  C   UNL     1      39.531 -11.472   5.621  1.00  0.00     0.046 C 
HETATM   28  C   UNL     1      40.664  -9.888   7.152  1.00  0.00     0.046 C 
HETATM   29  C   UNL     1      41.719 -10.310   4.916  1.00  0.00     0.063 C 
ENDBRANCH   1  18
TORSDOF 3
ENDMDL
MODEL 7
REMARK VINA RESULT:      -7.6     14.336     15.842
REMARK  3 active torsions:
REMARK  status: ('A' for Active; 'I' for Inactive)
REMARK    1  A    between atoms: C_11  and  N_12 
REMARK       I    between atoms: N_12  and  C_13 
REMARK    2  A    between atoms: C_13  and  C_14 
REMARK    3  A    between atoms: C_15  and  C_16 
ROOT
HETATM    1  N   UNL     1      47.425 -28.900  -2.052  1.00  0.00    -0.352 N 
HETATM    2  C   UNL     1      48.237 -28.658  -0.952  1.00  0.00     0.255 C 
HETATM    3  O   UNL     1      48.041 -27.718  -0.192  1.00  0.00    -0.268 OA
HETATM    4  H   UNL     1      47.517 -29.826  -2.449  1.00  0.00     0.163 HD
ENDROOT
BRANCH   2   5
HETATM    5  C   UNL     1      49.339 -29.592  -0.788  1.00  0.00     0.080 A 
HETATM    6  C   UNL     1      49.749 -30.275   0.404  1.00  0.00     0.107 A 
HETATM    7  N   UNL     1      50.777 -31.103   0.150  1.00  0.00    -0.173 NA
HETATM    8  N   UNL     1      51.026 -30.955  -1.152  1.00  0.00    -0.288 N 
HETATM    9  H   UNL     1      51.770 -31.514  -1.562  1.00  0.00     0.188 HD
HETATM   10  C   UNL     1      50.210 -30.051  -1.763  1.00  0.00     0.128 A 
BRANCH   6  11
HETATM   11  C   UNL     1      49.218 -30.169   1.761  1.00  0.00     0.034 A 
HETATM   12  C   UNL     1      50.021 -29.768   2.833  1.00  0.00     0.129 A 
HETATM   13  F   UNL     1      51.323 -29.493   2.649  1.00  0.00    -0.205 F 
HETATM   14  C   UNL     1      49.505 -29.668   4.124  1.00  0.00     0.043 A 
HETATM   15  C   UNL     1      48.169 -29.987   4.363  1.00  0.00     0.003 A 
HETATM   16  C   UNL     1      47.359 -30.411   3.311  1.00  0.00     0.001 A 
HETATM   17  C   UNL     1      47.880 -30.504   2.018  1.00  0.00     0.017 A 
ENDBRANCH   6  11
ENDBRANCH   2   5
BRANCH   1  18
HETATM   18  C   UNL     1      46.202 -28.147  -2.278  1.00  0.00     0.089 C 
HETATM   19  C   UNL     1      45.236 -28.246  -1.092  1.00  0.00     0.063 C 
HETATM   20  C   UNL     1      44.448 -29.562  -0.984  1.00  0.00     0.121 C 
HETATM   21  N   UNL     1      43.866 -29.935  -2.328  1.00  0.00    -0.059 N 
HETATM   22  C   UNL     1      45.268 -30.729  -0.421  1.00  0.00     0.046 C 
HETATM   23  C   UNL     1      43.243 -29.351  -0.043  1.00  0.00     0.046 C 
HETATM   24  C   UNL     1      44.710 -29.826  -3.583  1.00  0.00     0.121 C 
HETATM   25  H   UNL     1      43.037 -29.341  -2.476  1.00  0.00     0.279 HD
HETATM   26  H   UNL     1      43.482 -30.890  -2.275  1.00  0.00     0.279 HD
HETATM   27  C   UNL     1      45.612 -31.055  -3.723  1.00  0.00     0.046 C 
HETATM   28  C   UNL     1      43.714 -29.850  -4.762  1.00  0.00     0.046 C 
HETATM   29  C   UNL     1      45.456 -28.488  -3.579  1.00  0.00     0.063 C 
ENDBRANCH   1  18
TORSDOF 3
ENDMDL
MODEL 8
REMARK VINA RESULT:      -7.5      3.181      6.954
REMARK  3 active torsions:
REMARK  status: ('A' for Active; 'I' for Inactive)
REMARK    1  A    between atoms: C_11  and  N_12 
REMARK       I    between atoms: N_12  and  C_13 
REMARK    2  A    between atoms: C_13  and  C_14 
REMARK    3  A    between atoms: C_15  and  C_16 
ROOT
HETATM    1  N   UNL     1      41.394 -12.901   2.545  1.00  0.00    -0.352 N 
HETATM    2  C   UNL     1      41.087 -11.609   2.138  1.00  0.00     0.255 C 
HETATM    3  O   UNL     1      41.939 -10.732   2.060  1.00  0.00    -0.268 OA
HETATM    4  H   UNL     1      40.686 -13.591   2.326  1.00  0.00     0.163 HD
ENDROOT
BRANCH   2   5
HETATM    5  C   UNL     1      39.685 -11.380   1.833  1.00  0.00     0.080 A 
HETATM    6  C   UNL     1      38.988 -11.665   0.613  1.00  0.00     0.107 A 
HETATM    7  N   UNL     1      37.682 -11.367   0.729  1.00  0.00    -0.173 NA
HETATM    8  N   UNL     1      37.543 -10.902   1.972  1.00  0.00    -0.288 N 
HETATM    9  H   UNL     1      36.612 -10.629   2.277  1.00  0.00     0.188 HD
HETATM   10  C   UNL     1      38.710 -10.870   2.674  1.00  0.00     0.128 A 
BRANCH   6  11
HETATM   11  C   UNL     1      39.505 -12.193  -0.647  1.00  0.00     0.034 A 
HETATM   12  C   UNL     1      39.717 -13.562  -0.836  1.00  0.00     0.129 A 
HETATM   13  F   UNL     1      39.476 -14.437   0.154  1.00  0.00    -0.205 F 
HETATM   14  C   UNL     1      40.210 -14.057  -2.043  1.00  0.00     0.043 A 
HETATM   15  C   UNL     1      40.513 -13.176  -3.081  1.00  0.00     0.003 A 
HETATM   16  C   UNL     1      40.330 -11.805  -2.903  1.00  0.00     0.001 A 
HETATM   17  C   UNL     1      39.831 -11.316  -1.693  1.00  0.00     0.017 A 
ENDBRANCH   6  11
ENDBRANCH   2   5
BRANCH   1  18
HETATM   18  C   UNL     1      42.767 -13.332   2.750  1.00  0.00     0.089 C 
HETATM   19  C   UNL     1      43.066 -14.661   2.047  1.00  0.00     0.063 C 
HETATM   20  C   UNL     1      42.530 -15.920   2.749  1.00  0.00     0.121 C 
HETATM   21  N   UNL     1      42.859 -15.875   4.224  1.00  0.00    -0.059 N 
HETATM   22  C   UNL     1      41.027 -16.145   2.550  1.00  0.00     0.046 C 
HETATM   23  C   UNL     1      43.260 -17.159   2.188  1.00  0.00     0.046 C 
HETATM   24  C   UNL     1      42.656 -14.599   5.015  1.00  0.00     0.121 C 
HETATM   25  H   UNL     1      43.853 -16.130   4.322  1.00  0.00     0.279 HD
HETATM   26  H   UNL     1      42.358 -16.639   4.702  1.00  0.00     0.279 HD
HETATM   27  C   UNL     1      41.187 -14.454   5.420  1.00  0.00     0.046 C 
HETATM   28  C   UNL     1      43.476 -14.772   6.310  1.00  0.00     0.046 C 
HETATM   29  C   UNL     1      43.214 -13.414   4.219  1.00  0.00     0.063 C 
ENDBRANCH   1  18
TORSDOF 3
ENDMDL
MODEL 9
REMARK VINA RESULT:      -7.4      5.302      7.519
REMARK  3 active torsions:
REMARK  status: ('A' for Active; 'I' for Inactive)
REMARK    1  A    between atoms: C_11  and  N_12 
REMARK       I    between atoms: N_12  and  C_13 
REMARK    2  A    between atoms: C_13  and  C_14 
REMARK    3  A    between atoms: C_15  and  C_16 
ROOT
HETATM    1  N   UNL     1      42.711 -11.679   6.536  1.00  0.00    -0.352 N 
HETATM    2  C   UNL     1      43.808 -12.139   7.252  1.00  0.00     0.255 C 
HETATM    3  O   UNL     1      43.927 -13.314   7.576  1.00  0.00    -0.268 OA
HETATM    4  H   UNL     1      42.839 -10.771   6.106  1.00  0.00     0.163 HD
ENDROOT
BRANCH   2   5
HETATM    5  C   UNL     1      44.785 -11.119   7.596  1.00  0.00     0.080 A 
HETATM    6  C   UNL     1      44.771 -10.225   8.717  1.00  0.00     0.107 A 
HETATM    7  N   UNL     1      45.878  -9.462   8.731  1.00  0.00    -0.173 NA
HETATM    8  N   UNL     1      46.575  -9.843   7.660  1.00  0.00    -0.288 N 
HETATM    9  H   UNL     1      47.471  -9.395   7.490  1.00  0.00     0.188 HD
HETATM   10  C   UNL     1      45.963 -10.819   6.932  1.00  0.00     0.128 A 
BRANCH   6  11
HETATM   11  C   UNL     1      43.759 -10.059   9.757  1.00  0.00     0.034 A 
HETATM   12  C   UNL     1      42.536  -9.435   9.495  1.00  0.00     0.129 A 
HETATM   13  F   UNL     1      42.264  -8.939   8.277  1.00  0.00    -0.205 F 
HETATM   14  C   UNL     1      41.575  -9.282  10.494  1.00  0.00     0.043 A 
HETATM   15  C   UNL     1      41.836  -9.744  11.783  1.00  0.00     0.003 A 
HETATM   16  C   UNL     1      43.060 -10.349  12.069  1.00  0.00     0.001 A 
HETATM   17  C   UNL     1      44.017 -10.504  11.062  1.00  0.00     0.017 A 
ENDBRANCH   6  11
ENDBRANCH   2   5
BRANCH   1  18
HETATM   18  C   UNL     1      41.717 -12.590   5.993  1.00  0.00     0.089 C 
HETATM   19  C   UNL     1      42.281 -13.446   4.853  1.00  0.00     0.063 C 
HETATM   20  C   UNL     1      42.422 -12.736   3.496  1.00  0.00     0.121 C 
HETATM   21  N   UNL     1      41.159 -11.972   3.171  1.00  0.00    -0.059 N 
HETATM   22  C   UNL     1      43.639 -11.808   3.408  1.00  0.00     0.046 C 
HETATM   23  C   UNL     1      42.573 -13.799   2.386  1.00  0.00     0.046 C 
HETATM   24  C   UNL     1      40.480 -11.132   4.234  1.00  0.00     0.121 C 
HETATM   25  H   UNL     1      40.463 -12.658   2.846  1.00  0.00     0.279 HD
HETATM   26  H   UNL     1      41.329 -11.378   2.346  1.00  0.00     0.279 HD
HETATM   27  C   UNL     1      41.173  -9.773   4.362  1.00  0.00     0.046 C 
HETATM   28  C   UNL     1      39.050 -10.872   3.714  1.00  0.00     0.046 C 
HETATM   29  C   UNL     1      40.404 -11.930   5.540  1.00  0.00     0.063 C 
ENDBRANCH   1  18
TORSDOF 3
ENDMDL
MODEL 10
REMARK VINA RESULT:      -7.3     13.999     16.410
REMARK  3 active torsions:
REMARK  status: ('A' for Active; 'I' for Inactive)
REMARK    1  A    between atoms: C_11  and  N_12 
REMARK       I    between atoms: N_12  and  C_13 
REMARK    2  A    between atoms: C_13  and  C_14 
REMARK    3  A    between atoms: C_15  and  C_16 
ROOT
HETATM    1  N   UNL     1      47.281 -29.980   1.415  1.00  0.00    -0.352 N 
HETATM    2  C   UNL     1      46.441 -28.889   1.595  1.00  0.00     0.255 C 
HETATM    3  O   UNL     1      46.875 -27.757   1.776  1.00  0.00    -0.268 OA
HETATM    4  H   UNL     1      46.832 -30.798   1.022  1.00  0.00     0.163 HD
ENDROOT
BRANCH   2   5
HETATM    5  C   UNL     1      45.022 -29.199   1.568  1.00  0.00     0.080 A 
HETATM    6  C   UNL     1      44.176 -29.370   0.423  1.00  0.00     0.107 A 
HETATM    7  N   UNL     1      42.930 -29.707   0.797  1.00  0.00    -0.173 NA
HETATM    8  N   UNL     1      42.967 -29.745   2.130  1.00  0.00    -0.288 N 
HETATM    9  H   UNL     1      42.116 -30.000   2.624  1.00  0.00     0.188 HD
HETATM   10  C   UNL     1      44.187 -29.432   2.649  1.00  0.00     0.128 A 
BRANCH   6  11
HETATM   11  C   UNL     1      44.495 -29.219  -0.995  1.00  0.00     0.034 A 
HETATM   12  C   UNL     1      44.278 -30.256  -1.908  1.00  0.00     0.129 A 
HETATM   13  F   UNL     1      43.792 -31.440  -1.501  1.00  0.00    -0.205 F 
HETATM   14  C   UNL     1      44.584 -30.102  -3.260  1.00  0.00     0.043 A 
HETATM   15  C   UNL     1      45.130 -28.903  -3.715  1.00  0.00     0.003 A 
HETATM   16  C   UNL     1      45.376 -27.867  -2.815  1.00  0.00     0.001 A 
HETATM   17  C   UNL     1      45.062 -28.024  -1.462  1.00  0.00     0.017 A 
ENDBRANCH   6  11
ENDBRANCH   2   5
BRANCH   1  18
HETATM   18  C   UNL     1      48.719 -29.822   1.274  1.00  0.00     0.089 C 
HETATM   19  C   UNL     1      49.142 -29.665  -0.192  1.00  0.00     0.063 C 
HETATM   20  C   UNL     1      49.168 -30.962  -1.018  1.00  0.00     0.121 C 
HETATM   21  N   UNL     1      49.875 -32.056  -0.251  1.00  0.00    -0.059 N 
HETATM   22  C   UNL     1      47.781 -31.440  -1.462  1.00  0.00     0.046 C 
HETATM   23  C   UNL     1      50.005 -30.728  -2.294  1.00  0.00     0.046 C 
HETATM   24  C   UNL     1      49.580 -32.273   1.220  1.00  0.00     0.121 C 
HETATM   25  H   UNL     1      50.887 -31.877  -0.327  1.00  0.00     0.279 HD
HETATM   26  H   UNL     1      49.743 -32.951  -0.745  1.00  0.00     0.279 HD
HETATM   27  C   UNL     1      48.298 -33.093   1.389  1.00  0.00     0.046 C 
HETATM   28  C   UNL     1      50.746 -33.125   1.762  1.00  0.00     0.046 C 
HETATM   29  C   UNL     1      49.566 -30.920   1.939  1.00  0.00     0.063 C 
ENDBRANCH   1  18
TORSDOF 3
ENDMDL
