MODEL 1
REMARK VINA RESULT:      -9.7      0.000      0.000
REMARK  7 active torsions:
REMARK  status: ('A' for Active; 'I' for Inactive)
REMARK    1  A    between atoms: C_8  and  C_9 
REMARK    2  A    between atoms: C_9  and  C_10 
REMARK    3  A    between atoms: C_10  and  N_11 
REMARK    4  A    between atoms: C_10  and  C_19 
REMARK       I    between atoms: N_11  and  C_12 
REMARK    5  A    between atoms: C_12  and  C_13 
REMARK       I    between atoms: C_19  and  N_20 
REMARK    6  A    between atoms: N_20  and  N_21 
REMARK       I    between atoms: N_21  and  C_22 
REMARK       I    between atoms: C_22  and  N_23 
REMARK    7  A    between atoms: N_23  and  C_24 
ROOT
HETATM    1  C   UNL     1      42.834 -14.013   4.958  1.00  0.00     0.183 C 
ENDROOT
BRANCH   1   2
HETATM    2  C   UNL     1      42.061 -15.139   5.673  1.00  0.00     0.076 C 
BRANCH   2   3
HETATM    3  C   UNL     1      42.746 -16.475   5.636  1.00  0.00    -0.028 A 
HETATM    4  C   UNL     1      43.028 -17.283   4.487  1.00  0.00    -0.002 A 
HETATM    5  C   UNL     1      42.801 -17.144   3.101  1.00  0.00     0.014 A 
HETATM    6  C   UNL     1      43.664 -18.441   4.940  1.00  0.00     0.042 A 
HETATM    7  C   UNL     1      43.198 -18.165   2.231  1.00  0.00     0.001 A 
HETATM    8  C   UNL     1      43.824 -19.309   2.716  1.00  0.00     0.002 A 
HETATM    9  C   UNL     1      44.074 -19.468   4.081  1.00  0.00     0.030 A 
HETATM   10  N   UNL     1      43.786 -18.331   6.304  1.00  0.00    -0.365 N 
HETATM   11  H   UNL     1      44.225 -19.020   6.899  1.00  0.00     0.165 HD
HETATM   12  C   UNL     1      43.233 -17.157   6.734  1.00  0.00     0.096 A 
ENDBRANCH   2   3
ENDBRANCH   1   2
BRANCH   1  13
HETATM   13  N   UNL     1      42.337 -13.691   3.618  1.00  0.00    -0.343 N 
HETATM   14  C   UNL     1      40.996 -13.720   3.294  1.00  0.00     0.259 C 
HETATM   15  O   UNL     1      40.137 -13.706   4.171  1.00  0.00    -0.267 OA
HETATM   16  H   UNL     1      42.960 -13.913   2.850  1.00  0.00     0.163 HD
BRANCH  14  17
HETATM   17  C   UNL     1      40.690 -13.735   1.869  1.00  0.00     0.072 A 
HETATM   18  S   UNL     1      40.877 -12.344   0.879  1.00  0.00    -0.097 SA
HETATM   19  C   UNL     1      40.326 -13.170  -0.512  1.00  0.00     0.050 A 
HETATM   20  C   UNL     1      40.016 -14.483  -0.242  1.00  0.00     0.009 A 
HETATM   21  C   UNL     1      40.228 -14.808   1.129  1.00  0.00     0.025 A 
ENDBRANCH  14  17
ENDBRANCH   1  13
BRANCH   1  22
HETATM   22  C   UNL     1      43.003 -12.817   5.915  1.00  0.00     0.259 C 
HETATM   23  N   UNL     1      44.045 -12.930   6.817  1.00  0.00    -0.264 N 
HETATM   24  H   UNL     1      44.869 -13.466   6.540  1.00  0.00     0.190 HD
HETATM   25  O   UNL     1      42.169 -11.911   5.991  1.00  0.00    -0.269 OA
BRANCH  23  26
HETATM   26  N   UNL     1      44.309 -11.802   7.612  1.00  0.00    -0.249 N 
HETATM   27  C   UNL     1      45.420 -11.054   7.351  1.00  0.00     0.339 C 
HETATM   28  N   UNL     1      45.669  -9.988   8.166  1.00  0.00    -0.308 N 
HETATM   29  O   UNL     1      46.211 -11.340   6.452  1.00  0.00    -0.245 OA
HETATM   30  H   UNL     1      46.605  -9.630   8.020  1.00  0.00     0.170 HD
HETATM   31  H   UNL     1      43.957 -11.854   8.562  1.00  0.00     0.192 HD
BRANCH  28  32
HETATM   32  C   UNL     1      44.870  -9.311   9.106  1.00  0.00     0.036 A 
HETATM   33  C   UNL     1      44.721  -9.698  10.442  1.00  0.00     0.031 A 
HETATM   34  C   UNL     1      43.915  -8.953  11.312  1.00  0.00     0.026 A 
HETATM   35  C   UNL     1      43.235  -7.833  10.845  1.00  0.00     0.034 A 
HETATM   36 CL   UNL     1      42.250  -6.916  11.915  1.00  0.00    -0.084 Cl
HETATM   37  C   UNL     1      43.342  -7.460   9.508  1.00  0.00     0.026 A 
HETATM   38  C   UNL     1      44.149  -8.204   8.641  1.00  0.00     0.031 A 
ENDBRANCH  28  32
ENDBRANCH  23  26
ENDBRANCH   1  22
TORSDOF 7
ENDMDL
MODEL 2
REMARK VINA RESULT:      -9.7      3.917      8.172
REMARK  7 active torsions:
REMARK  status: ('A' for Active; 'I' for Inactive)
REMARK    1  A    between atoms: C_8  and  C_9 
REMARK    2  A    between atoms: C_9  and  C_10 
REMARK    3  A    between atoms: C_10  and  N_11 
REMARK    4  A    between atoms: C_10  and  C_19 
REMARK       I    between atoms: N_11  and  C_12 
REMARK    5  A    between atoms: C_12  and  C_13 
REMARK       I    between atoms: C_19  and  N_20 
REMARK    6  A    between atoms: N_20  and  N_21 
REMARK       I    between atoms: N_21  and  C_22 
REMARK       I    between atoms: C_22  and  N_23 
REMARK    7  A    between atoms: N_23  and  C_24 
ROOT
HETATM    1  C   UNL     1      40.891 -13.868   5.167  1.00  0.00     0.183 C 
ENDROOT
BRANCH   1   2
HETATM    2  C   UNL     1      40.543 -15.320   5.548  1.00  0.00     0.076 C 
BRANCH   2   3
HETATM    3  C   UNL     1      41.736 -16.220   5.697  1.00  0.00    -0.028 A 
HETATM    4  C   UNL     1      42.440 -16.919   4.664  1.00  0.00    -0.002 A 
HETATM    5  C   UNL     1      42.301 -17.013   3.263  1.00  0.00     0.014 A 
HETATM    6  C   UNL     1      43.468 -17.639   5.276  1.00  0.00     0.042 A 
HETATM    7  C   UNL     1      43.175 -17.829   2.535  1.00  0.00     0.001 A 
HETATM    8  C   UNL     1      44.185 -18.538   3.177  1.00  0.00     0.002 A 
HETATM    9  C   UNL     1      44.356 -18.453   4.561  1.00  0.00     0.030 A 
HETATM   10  N   UNL     1      43.408 -17.369   6.622  1.00  0.00    -0.365 N 
HETATM   11  H   UNL     1      44.045 -17.743   7.311  1.00  0.00     0.165 HD
HETATM   12  C   UNL     1      42.367 -16.523   6.888  1.00  0.00     0.096 A 
ENDBRANCH   2   3
ENDBRANCH   1   2
BRANCH   1  13
HETATM   13  N   UNL     1      42.025 -13.301   5.902  1.00  0.00    -0.343 N 
HETATM   14  C   UNL     1      42.125 -11.956   6.193  1.00  0.00     0.259 C 
HETATM   15  O   UNL     1      41.141 -11.225   6.136  1.00  0.00    -0.267 OA
HETATM   16  H   UNL     1      42.914 -13.771   5.776  1.00  0.00     0.163 HD
BRANCH  14  17
HETATM   17  C   UNL     1      43.448 -11.494   6.596  1.00  0.00     0.072 A 
HETATM   18  S   UNL     1      43.673 -10.367   7.873  1.00  0.00    -0.097 SA
HETATM   19  C   UNL     1      45.370 -10.368   7.673  1.00  0.00     0.050 A 
HETATM   20  C   UNL     1      45.769 -11.215   6.664  1.00  0.00     0.009 A 
HETATM   21  C   UNL     1      44.661 -11.865   6.046  1.00  0.00     0.025 A 
ENDBRANCH  14  17
ENDBRANCH   1  13
BRANCH   1  22
HETATM   22  C   UNL     1      40.958 -13.740   3.632  1.00  0.00     0.259 C 
HETATM   23  N   UNL     1      39.812 -14.126   2.961  1.00  0.00    -0.264 N 
HETATM   24  H   UNL     1      38.914 -14.009   3.431  1.00  0.00     0.190 HD
HETATM   25  O   UNL     1      42.008 -13.483   3.038  1.00  0.00    -0.269 OA
BRANCH  23  26
HETATM   26  N   UNL     1      39.793 -13.897   1.575  1.00  0.00    -0.249 N 
HETATM   27  C   UNL     1      39.796 -14.966   0.728  1.00  0.00     0.339 C 
HETATM   28  N   UNL     1      39.816 -14.710  -0.612  1.00  0.00    -0.308 N 
HETATM   29  O   UNL     1      39.830 -16.129   1.132  1.00  0.00    -0.245 OA
HETATM   30  H   UNL     1      40.022 -15.550  -1.140  1.00  0.00     0.170 HD
HETATM   31  H   UNL     1      40.219 -13.026   1.277  1.00  0.00     0.192 HD
BRANCH  28  32
HETATM   32  C   UNL     1      39.577 -13.537  -1.354  1.00  0.00     0.036 A 
HETATM   33  C   UNL     1      40.562 -12.609  -1.706  1.00  0.00     0.031 A 
HETATM   34  C   UNL     1      40.234 -11.476  -2.460  1.00  0.00     0.026 A 
HETATM   35  C   UNL     1      38.915 -11.253  -2.845  1.00  0.00     0.034 A 
HETATM   36 CL   UNL     1      38.514  -9.864  -3.775  1.00  0.00    -0.084 Cl
HETATM   37  C   UNL     1      37.918 -12.146  -2.467  1.00  0.00     0.026 A 
HETATM   38  C   UNL     1      38.248 -13.279  -1.715  1.00  0.00     0.031 A 
ENDBRANCH  28  32
ENDBRANCH  23  26
ENDBRANCH   1  22
TORSDOF 7
ENDMDL
MODEL 3
REMARK VINA RESULT:      -9.6      3.749      8.261
REMARK  7 active torsions:
REMARK  status: ('A' for Active; 'I' for Inactive)
REMARK    1  A    between atoms: C_8  and  C_9 
REMARK    2  A    between atoms: C_9  and  C_10 
REMARK    3  A    between atoms: C_10  and  N_11 
REMARK    4  A    between atoms: C_10  and  C_19 
REMARK       I    between atoms: N_11  and  C_12 
REMARK    5  A    between atoms: C_12  and  C_13 
REMARK       I    between atoms: C_19  and  N_20 
REMARK    6  A    between atoms: N_20  and  N_21 
REMARK       I    between atoms: N_21  and  C_22 
REMARK       I    between atoms: C_22  and  N_23 
REMARK    7  A    between atoms: N_23  and  C_24 
ROOT
HETATM    1  C   UNL     1      42.288 -14.441   4.318  1.00  0.00     0.183 C 
ENDROOT
BRANCH   1   2
HETATM    2  C   UNL     1      43.417 -15.387   3.866  1.00  0.00     0.076 C 
BRANCH   2   3
HETATM    3  C   UNL     1      43.553 -16.627   4.702  1.00  0.00    -0.028 A 
HETATM    4  C   UNL     1      43.680 -17.980   4.248  1.00  0.00    -0.002 A 
HETATM    5  C   UNL     1      43.728 -18.596   2.980  1.00  0.00     0.014 A 
HETATM    6  C   UNL     1      43.765 -18.792   5.381  1.00  0.00     0.042 A 
HETATM    7  C   UNL     1      43.841 -19.988   2.892  1.00  0.00     0.001 A 
HETATM    8  C   UNL     1      43.917 -20.769   4.041  1.00  0.00     0.002 A 
HETATM    9  C   UNL     1      43.886 -20.185   5.310  1.00  0.00     0.030 A 
HETATM   10  N   UNL     1      43.717 -17.966   6.478  1.00  0.00    -0.365 N 
HETATM   11  H   UNL     1      43.774 -18.280   7.437  1.00  0.00     0.165 HD
HETATM   12  C   UNL     1      43.583 -16.663   6.083  1.00  0.00     0.096 A 
ENDBRANCH   2   3
ENDBRANCH   1   2
BRANCH   1  13
HETATM   13  N   UNL     1      42.715 -13.378   5.233  1.00  0.00    -0.343 N 
HETATM   14  C   UNL     1      43.550 -12.352   4.844  1.00  0.00     0.259 C 
HETATM   15  O   UNL     1      43.721 -12.097   3.655  1.00  0.00    -0.267 OA
HETATM   16  H   UNL     1      42.800 -13.642   6.209  1.00  0.00     0.163 HD
BRANCH  14  17
HETATM   17  C   UNL     1      44.169 -11.595   5.925  1.00  0.00     0.072 A 
HETATM   18  S   UNL     1      43.252 -10.603   6.987  1.00  0.00    -0.097 SA
HETATM   19  C   UNL     1      44.644 -10.118   7.852  1.00  0.00     0.050 A 
HETATM   20  C   UNL     1      45.788 -10.703   7.359  1.00  0.00     0.009 A 
HETATM   21  C   UNL     1      45.512 -11.556   6.250  1.00  0.00     0.025 A 
ENDBRANCH  14  17
ENDBRANCH   1  13
BRANCH   1  22
HETATM   22  C   UNL     1      41.479 -13.981   3.090  1.00  0.00     0.259 C 
HETATM   23  N   UNL     1      41.980 -14.394   1.869  1.00  0.00    -0.264 N 
HETATM   24  H   UNL     1      42.486 -15.280   1.828  1.00  0.00     0.190 HD
HETATM   25  O   UNL     1      40.558 -13.164   3.176  1.00  0.00    -0.269 OA
BRANCH  23  26
HETATM   26  N   UNL     1      41.194 -14.106   0.741  1.00  0.00    -0.249 N 
HETATM   27  C   UNL     1      40.166 -14.944   0.419  1.00  0.00     0.339 C 
HETATM   28  N   UNL     1      39.446 -14.658  -0.704  1.00  0.00    -0.308 N 
HETATM   29  O   UNL     1      39.910 -15.955   1.073  1.00  0.00    -0.245 OA
HETATM   30  H   UNL     1      38.853 -15.437  -0.964  1.00  0.00     0.170 HD
HETATM   31  H   UNL     1      41.670 -13.598   0.003  1.00  0.00     0.192 HD
BRANCH  28  32
HETATM   32  C   UNL     1      39.367 -13.504  -1.507  1.00  0.00     0.036 A 
HETATM   33  C   UNL     1      40.314 -13.143  -2.470  1.00  0.00     0.031 A 
HETATM   34  C   UNL     1      40.144 -11.982  -3.235  1.00  0.00     0.026 A 
HETATM   35  C   UNL     1      39.039 -11.164  -3.022  1.00  0.00     0.034 A 
HETATM   36 CL   UNL     1      38.828  -9.742  -3.965  1.00  0.00    -0.084 Cl
HETATM   37  C   UNL     1      38.109 -11.489  -2.039  1.00  0.00     0.026 A 
HETATM   38  C   UNL     1      38.279 -12.651  -1.278  1.00  0.00     0.031 A 
ENDBRANCH  28  32
ENDBRANCH  23  26
ENDBRANCH   1  22
TORSDOF 7
ENDMDL
MODEL 4
REMARK VINA RESULT:      -9.3      3.982      8.207
REMARK  7 active torsions:
REMARK  status: ('A' for Active; 'I' for Inactive)
REMARK    1  A    between atoms: C_8  and  C_9 
REMARK    2  A    between atoms: C_9  and  C_10 
REMARK    3  A    between atoms: C_10  and  N_11 
REMARK    4  A    between atoms: C_10  and  C_19 
REMARK       I    between atoms: N_11  and  C_12 
REMARK    5  A    between atoms: C_12  and  C_13 
REMARK       I    between atoms: C_19  and  N_20 
REMARK    6  A    between atoms: N_20  and  N_21 
REMARK       I    between atoms: N_21  and  C_22 
REMARK       I    between atoms: C_22  and  N_23 
REMARK    7  A    between atoms: N_23  and  C_24 
ROOT
HETATM    1  C   UNL     1      42.224 -14.086   4.909  1.00  0.00     0.183 C 
ENDROOT
BRANCH   1   2
HETATM    2  C   UNL     1      43.287 -15.071   4.386  1.00  0.00     0.076 C 
BRANCH   2   3
HETATM    3  C   UNL     1      43.391 -16.342   5.177  1.00  0.00    -0.028 A 
HETATM    4  C   UNL     1      43.608 -17.668   4.680  1.00  0.00    -0.002 A 
HETATM    5  C   UNL     1      43.794 -18.224   3.396  1.00  0.00     0.014 A 
HETATM    6  C   UNL     1      43.618 -18.528   5.780  1.00  0.00     0.042 A 
HETATM    7  C   UNL     1      43.964 -19.606   3.260  1.00  0.00     0.001 A 
HETATM    8  C   UNL     1      43.963 -20.435   4.378  1.00  0.00     0.002 A 
HETATM    9  C   UNL     1      43.796 -19.911   5.662  1.00  0.00     0.030 A 
HETATM   10  N   UNL     1      43.441 -17.754   6.902  1.00  0.00    -0.365 N 
HETATM   11  H   UNL     1      43.422 -18.110   7.848  1.00  0.00     0.165 HD
HETATM   12  C   UNL     1      43.296 -16.440   6.552  1.00  0.00     0.096 A 
ENDBRANCH   2   3
ENDBRANCH   1   2
BRANCH   1  13
HETATM   13  N   UNL     1      42.743 -13.050   5.806  1.00  0.00    -0.343 N 
HETATM   14  C   UNL     1      43.671 -12.113   5.403  1.00  0.00     0.259 C 
HETATM   15  O   UNL     1      43.870 -11.897   4.210  1.00  0.00    -0.267 OA
HETATM   16  H   UNL     1      42.799 -13.302   6.787  1.00  0.00     0.163 HD
BRANCH  14  17
HETATM   17  C   UNL     1      44.353 -11.396   6.474  1.00  0.00     0.072 A 
HETATM   18  S   UNL     1      43.500 -10.452   7.629  1.00  0.00    -0.097 SA
HETATM   19  C   UNL     1      44.941  -9.994   8.426  1.00  0.00     0.050 A 
HETATM   20  C   UNL     1      46.054 -10.552   7.840  1.00  0.00     0.009 A 
HETATM   21  C   UNL     1      45.714 -11.362   6.717  1.00  0.00     0.025 A 
ENDBRANCH  14  17
ENDBRANCH   1  13
BRANCH   1  22
HETATM   22  C   UNL     1      41.365 -13.583   3.733  1.00  0.00     0.259 C 
HETATM   23  N   UNL     1      42.066 -13.292   2.576  1.00  0.00    -0.264 N 
HETATM   24  H   UNL     1      42.916 -13.821   2.380  1.00  0.00     0.190 HD
HETATM   25  O   UNL     1      40.173 -13.293   3.864  1.00  0.00    -0.269 OA
BRANCH  23  26
HETATM   26  N   UNL     1      41.299 -12.960   1.447  1.00  0.00    -0.249 N 
HETATM   27  C   UNL     1      41.337 -11.680   0.975  1.00  0.00     0.339 C 
HETATM   28  N   UNL     1      40.551 -11.380  -0.099  1.00  0.00    -0.308 N 
HETATM   29  O   UNL     1      42.009 -10.799   1.511  1.00  0.00    -0.245 OA
HETATM   30  H   UNL     1      40.495 -10.378  -0.240  1.00  0.00     0.170 HD
HETATM   31  H   UNL     1      40.456 -13.510   1.323  1.00  0.00     0.192 HD
BRANCH  28  32
HETATM   32  C   UNL     1      39.863 -12.190  -1.023  1.00  0.00     0.036 A 
HETATM   33  C   UNL     1      38.474 -12.345  -1.058  1.00  0.00     0.031 A 
HETATM   34  C   UNL     1      37.874 -13.162  -2.024  1.00  0.00     0.026 A 
HETATM   35  C   UNL     1      38.662 -13.847  -2.944  1.00  0.00     0.034 A 
HETATM   36 CL   UNL     1      37.925 -14.845  -4.134  1.00  0.00    -0.084 Cl
HETATM   37  C   UNL     1      40.048 -13.734  -2.896  1.00  0.00     0.026 A 
HETATM   38  C   UNL     1      40.645 -12.915  -1.931  1.00  0.00     0.031 A 
ENDBRANCH  28  32
ENDBRANCH  23  26
ENDBRANCH   1  22
TORSDOF 7
ENDMDL
MODEL 5
REMARK VINA RESULT:      -9.1      1.550      1.975
REMARK  7 active torsions:
REMARK  status: ('A' for Active; 'I' for Inactive)
REMARK    1  A    between atoms: C_8  and  C_9 
REMARK    2  A    between atoms: C_9  and  C_10 
REMARK    3  A    between atoms: C_10  and  N_11 
REMARK    4  A    between atoms: C_10  and  C_19 
REMARK       I    between atoms: N_11  and  C_12 
REMARK    5  A    between atoms: C_12  and  C_13 
REMARK       I    between atoms: C_19  and  N_20 
REMARK    6  A    between atoms: N_20  and  N_21 
REMARK       I    between atoms: N_21  and  C_22 
REMARK       I    between atoms: C_22  and  N_23 
REMARK    7  A    between atoms: N_23  and  C_24 
ROOT
HETATM    1  C   UNL     1      42.426 -13.430   4.425  1.00  0.00     0.183 C 
ENDROOT
BRANCH   1   2
HETATM    2  C   UNL     1      41.771 -14.732   4.922  1.00  0.00     0.076 C 
BRANCH   2   3
HETATM    3  C   UNL     1      42.726 -15.879   5.084  1.00  0.00    -0.028 A 
HETATM    4  C   UNL     1      42.995 -16.934   4.153  1.00  0.00    -0.002 A 
HETATM    5  C   UNL     1      42.521 -17.258   2.864  1.00  0.00     0.014 A 
HETATM    6  C   UNL     1      43.943 -17.775   4.739  1.00  0.00     0.042 A 
HETATM    7  C   UNL     1      42.993 -18.409   2.223  1.00  0.00     0.001 A 
HETATM    8  C   UNL     1      43.934 -19.230   2.840  1.00  0.00     0.002 A 
HETATM    9  C   UNL     1      44.432 -18.925   4.109  1.00  0.00     0.030 A 
HETATM   10  N   UNL     1      44.257 -17.241   5.966  1.00  0.00    -0.365 N 
HETATM   11  H   UNL     1      44.931 -17.634   6.608  1.00  0.00     0.165 HD
HETATM   12  C   UNL     1      43.527 -16.105   6.187  1.00  0.00     0.096 A 
ENDBRANCH   2   3
ENDBRANCH   1   2
BRANCH   1  13
HETATM   13  N   UNL     1      41.760 -12.815   3.273  1.00  0.00    -0.343 N 
HETATM   14  C   UNL     1      42.217 -11.656   2.680  1.00  0.00     0.259 C 
HETATM   15  O   UNL     1      43.363 -11.259   2.875  1.00  0.00    -0.267 OA
HETATM   16  H   UNL     1      40.756 -12.946   3.221  1.00  0.00     0.163 HD
BRANCH  14  17
HETATM   17  C   UNL     1      41.270 -10.979   1.803  1.00  0.00     0.072 A 
HETATM   18  S   UNL     1      39.573 -11.053   2.058  1.00  0.00    -0.097 SA
HETATM   19  C   UNL     1      39.251 -10.090   0.684  1.00  0.00     0.050 A 
HETATM   20  C   UNL     1      40.406  -9.703   0.043  1.00  0.00     0.009 A 
HETATM   21  C   UNL     1      41.568 -10.214   0.690  1.00  0.00     0.025 A 
ENDBRANCH  14  17
ENDBRANCH   1  13
BRANCH   1  22
HETATM   22  C   UNL     1      42.690 -12.496   5.622  1.00  0.00     0.259 C 
HETATM   23  N   UNL     1      44.007 -12.436   6.041  1.00  0.00    -0.264 N 
HETATM   24  H   UNL     1      44.742 -12.574   5.347  1.00  0.00     0.190 HD
HETATM   25  O   UNL     1      41.775 -11.979   6.269  1.00  0.00    -0.269 OA
BRANCH  23  26
HETATM   26  N   UNL     1      44.303 -11.496   7.042  1.00  0.00    -0.249 N 
HETATM   27  C   UNL     1      45.569 -10.995   7.125  1.00  0.00     0.339 C 
HETATM   28  N   UNL     1      45.834 -10.113   8.132  1.00  0.00    -0.308 N 
HETATM   29  O   UNL     1      46.470 -11.348   6.363  1.00  0.00    -0.245 OA
HETATM   30  H   UNL     1      46.831  -9.962   8.231  1.00  0.00     0.170 HD
HETATM   31  H   UNL     1      43.743 -11.574   7.884  1.00  0.00     0.192 HD
BRANCH  28  32
HETATM   32  C   UNL     1      44.994  -9.384   8.995  1.00  0.00     0.036 A 
HETATM   33  C   UNL     1      44.307  -8.221   8.634  1.00  0.00     0.031 A 
HETATM   34  C   UNL     1      43.479  -7.568   9.556  1.00  0.00     0.026 A 
HETATM   35  C   UNL     1      43.353  -8.063  10.850  1.00  0.00     0.034 A 
HETATM   36 CL   UNL     1      42.332  -7.265  11.980  1.00  0.00    -0.084 Cl
HETATM   37  C   UNL     1      44.062  -9.197  11.236  1.00  0.00     0.026 A 
HETATM   38  C   UNL     1      44.887  -9.848  10.312  1.00  0.00     0.031 A 
ENDBRANCH  28  32
ENDBRANCH  23  26
ENDBRANCH   1  22
TORSDOF 7
ENDMDL
MODEL 6
REMARK VINA RESULT:      -9.1      2.126      5.112
REMARK  7 active torsions:
REMARK  status: ('A' for Active; 'I' for Inactive)
REMARK    1  A    between atoms: C_8  and  C_9 
REMARK    2  A    between atoms: C_9  and  C_10 
REMARK    3  A    between atoms: C_10  and  N_11 
REMARK    4  A    between atoms: C_10  and  C_19 
REMARK       I    between atoms: N_11  and  C_12 
REMARK    5  A    between atoms: C_12  and  C_13 
REMARK       I    between atoms: C_19  and  N_20 
REMARK    6  A    between atoms: N_20  and  N_21 
REMARK       I    between atoms: N_21  and  C_22 
REMARK       I    between atoms: C_22  and  N_23 
REMARK    7  A    between atoms: N_23  and  C_24 
ROOT
HETATM    1  C   UNL     1      41.271 -13.668   3.559  1.00  0.00     0.183 C 
ENDROOT
BRANCH   1   2
HETATM    2  C   UNL     1      41.062 -12.777   2.319  1.00  0.00     0.076 C 
BRANCH   2   3
HETATM    3  C   UNL     1      40.543 -13.510   1.116  1.00  0.00    -0.028 A 
HETATM    4  C   UNL     1      40.615 -13.103  -0.256  1.00  0.00    -0.002 A 
HETATM    5  C   UNL     1      41.150 -11.983  -0.927  1.00  0.00     0.014 A 
HETATM    6  C   UNL     1      39.991 -14.093  -1.017  1.00  0.00     0.042 A 
HETATM    7  C   UNL     1      41.027 -11.887  -2.318  1.00  0.00     0.001 A 
HETATM    8  C   UNL     1      40.392 -12.890  -3.045  1.00  0.00     0.002 A 
HETATM    9  C   UNL     1      39.866 -14.017  -2.409  1.00  0.00     0.030 A 
HETATM   10  N   UNL     1      39.578 -15.074  -0.147  1.00  0.00    -0.365 N 
HETATM   11  H   UNL     1      39.107 -15.925  -0.423  1.00  0.00     0.165 HD
HETATM   12  C   UNL     1      39.898 -14.732   1.137  1.00  0.00     0.096 A 
ENDBRANCH   2   3
ENDBRANCH   1   2
BRANCH   1  13
HETATM   13  N   UNL     1      42.043 -14.888   3.309  1.00  0.00    -0.343 N 
HETATM   14  C   UNL     1      41.698 -16.111   3.845  1.00  0.00     0.259 C 
HETATM   15  O   UNL     1      40.570 -16.307   4.289  1.00  0.00    -0.267 OA
HETATM   16  H   UNL     1      43.039 -14.759   3.163  1.00  0.00     0.163 HD
BRANCH  14  17
HETATM   17  C   UNL     1      42.737 -17.132   3.812  1.00  0.00     0.072 A 
HETATM   18  S   UNL     1      43.632 -17.572   5.211  1.00  0.00    -0.097 SA
HETATM   19  C   UNL     1      44.563 -18.715   4.346  1.00  0.00     0.050 A 
HETATM   20  C   UNL     1      44.200 -18.777   3.020  1.00  0.00     0.009 A 
HETATM   21  C   UNL     1      43.147 -17.867   2.714  1.00  0.00     0.025 A 
ENDBRANCH  14  17
ENDBRANCH   1  13
BRANCH   1  22
HETATM   22  C   UNL     1      41.751 -12.802   4.740  1.00  0.00     0.259 C 
HETATM   23  N   UNL     1      43.056 -13.028   5.141  1.00  0.00    -0.264 N 
HETATM   24  H   UNL     1      43.732 -13.331   4.439  1.00  0.00     0.190 HD
HETATM   25  O   UNL     1      40.982 -12.090   5.391  1.00  0.00    -0.269 OA
BRANCH  23  26
HETATM   26  N   UNL     1      43.565 -12.164   6.125  1.00  0.00    -0.249 N 
HETATM   27  C   UNL     1      44.600 -11.334   5.804  1.00  0.00     0.339 C 
HETATM   28  N   UNL     1      45.098 -10.536   6.791  1.00  0.00    -0.308 N 
HETATM   29  O   UNL     1      45.116 -11.324   4.686  1.00  0.00    -0.245 OA
HETATM   30  H   UNL     1      45.979 -10.118   6.512  1.00  0.00     0.170 HD
HETATM   31  H   UNL     1      43.473 -12.495   7.079  1.00  0.00     0.192 HD
BRANCH  28  32
HETATM   32  C   UNL     1      44.603 -10.182   8.061  1.00  0.00     0.036 A 
HETATM   33  C   UNL     1      43.323  -9.670   8.296  1.00  0.00     0.031 A 
HETATM   34  C   UNL     1      42.909  -9.360   9.597  1.00  0.00     0.026 A 
HETATM   35  C   UNL     1      43.781  -9.538  10.667  1.00  0.00     0.034 A 
HETATM   36 CL   UNL     1      43.271  -9.163  12.265  1.00  0.00    -0.084 Cl
HETATM   37  C   UNL     1      45.071 -10.010  10.443  1.00  0.00     0.026 A 
HETATM   38  C   UNL     1      45.482 -10.321   9.143  1.00  0.00     0.031 A 
ENDBRANCH  28  32
ENDBRANCH  23  26
ENDBRANCH   1  22
TORSDOF 7
ENDMDL
MODEL 7
REMARK VINA RESULT:      -8.9      1.875      2.263
REMARK  7 active torsions:
REMARK  status: ('A' for Active; 'I' for Inactive)
REMARK    1  A    between atoms: C_8  and  C_9 
REMARK    2  A    between atoms: C_9  and  C_10 
REMARK    3  A    between atoms: C_10  and  N_11 
REMARK    4  A    between atoms: C_10  and  C_19 
REMARK       I    between atoms: N_11  and  C_12 
REMARK    5  A    between atoms: C_12  and  C_13 
REMARK       I    between atoms: C_19  and  N_20 
REMARK    6  A    between atoms: N_20  and  N_21 
REMARK       I    between atoms: N_21  and  C_22 
REMARK       I    between atoms: C_22  and  N_23 
REMARK    7  A    between atoms: N_23  and  C_24 
ROOT
HETATM    1  C   UNL     1      42.444 -13.748   5.124  1.00  0.00     0.183 C 
ENDROOT
BRANCH   1   2
HETATM    2  C   UNL     1      41.710 -14.885   5.861  1.00  0.00     0.076 C 
BRANCH   2   3
HETATM    3  C   UNL     1      42.479 -16.172   5.929  1.00  0.00    -0.028 A 
HETATM    4  C   UNL     1      42.912 -16.993   4.838  1.00  0.00    -0.002 A 
HETATM    5  C   UNL     1      42.797 -16.910   3.434  1.00  0.00     0.014 A 
HETATM    6  C   UNL     1      43.578 -18.092   5.383  1.00  0.00     0.042 A 
HETATM    7  C   UNL     1      43.334 -17.927   2.636  1.00  0.00     0.001 A 
HETATM    8  C   UNL     1      43.987 -19.012   3.212  1.00  0.00     0.002 A 
HETATM    9  C   UNL     1      44.127 -19.114   4.598  1.00  0.00     0.030 A 
HETATM   10  N   UNL     1      43.574 -17.934   6.748  1.00  0.00    -0.365 N 
HETATM   11  H   UNL     1      44.003 -18.575   7.401  1.00  0.00     0.165 HD
HETATM   12  C   UNL     1      42.911 -16.788   7.088  1.00  0.00     0.096 A 
ENDBRANCH   2   3
ENDBRANCH   1   2
BRANCH   1  13
HETATM   13  N   UNL     1      41.775 -13.283   3.905  1.00  0.00    -0.343 N 
HETATM   14  C   UNL     1      42.445 -13.097   2.714  1.00  0.00     0.259 C 
HETATM   15  O   UNL     1      43.547 -13.605   2.525  1.00  0.00    -0.267 OA
HETATM   16  H   UNL     1      40.984 -12.664   4.044  1.00  0.00     0.163 HD
BRANCH  14  17
HETATM   17  C   UNL     1      41.746 -12.300   1.713  1.00  0.00     0.072 A 
HETATM   18  S   UNL     1      40.843 -13.018   0.441  1.00  0.00    -0.097 SA
HETATM   19  C   UNL     1      40.418 -11.498  -0.214  1.00  0.00     0.050 A 
HETATM   20  C   UNL     1      40.937 -10.457   0.521  1.00  0.00     0.009 A 
HETATM   21  C   UNL     1      41.700 -10.920   1.632  1.00  0.00     0.025 A 
ENDBRANCH  14  17
ENDBRANCH   1  13
BRANCH   1  22
HETATM   22  C   UNL     1      42.839 -12.651   6.131  1.00  0.00     0.259 C 
HETATM   23  N   UNL     1      41.847 -11.730   6.416  1.00  0.00    -0.264 N 
HETATM   24  H   UNL     1      40.875 -12.038   6.371  1.00  0.00     0.190 HD
HETATM   25  O   UNL     1      44.000 -12.501   6.520  1.00  0.00    -0.269 OA
BRANCH  23  26
HETATM   26  N   UNL     1      42.130 -10.799   7.428  1.00  0.00    -0.249 N 
HETATM   27  C   UNL     1      42.203  -9.475   7.107  1.00  0.00     0.339 C 
HETATM   28  N   UNL     1      42.518  -8.600   8.105  1.00  0.00    -0.308 N 
HETATM   29  O   UNL     1      42.043  -9.065   5.957  1.00  0.00    -0.245 OA
HETATM   30  H   UNL     1      42.745  -7.686   7.730  1.00  0.00     0.170 HD
HETATM   31  H   UNL     1      42.689 -11.155   8.196  1.00  0.00     0.192 HD
BRANCH  28  32
HETATM   32  C   UNL     1      42.547  -8.735   9.506  1.00  0.00     0.036 A 
HETATM   33  C   UNL     1      43.710  -8.919  10.259  1.00  0.00     0.031 A 
HETATM   34  C   UNL     1      43.645  -9.029  11.654  1.00  0.00     0.026 A 
HETATM   35  C   UNL     1      42.414  -8.980  12.300  1.00  0.00     0.034 A 
HETATM   36 CL   UNL     1      42.334  -9.109  14.012  1.00  0.00    -0.084 Cl
HETATM   37  C   UNL     1      41.244  -8.837  11.560  1.00  0.00     0.026 A 
HETATM   38  C   UNL     1      41.311  -8.726  10.167  1.00  0.00     0.031 A 
ENDBRANCH  28  32
ENDBRANCH  23  26
ENDBRANCH   1  22
TORSDOF 7
ENDMDL
MODEL 8
REMARK VINA RESULT:      -8.8      4.335      7.988
REMARK  7 active torsions:
REMARK  status: ('A' for Active; 'I' for Inactive)
REMARK    1  A    between atoms: C_8  and  C_9 
REMARK    2  A    between atoms: C_9  and  C_10 
REMARK    3  A    between atoms: C_10  and  N_11 
REMARK    4  A    between atoms: C_10  and  C_19 
REMARK       I    between atoms: N_11  and  C_12 
REMARK    5  A    between atoms: C_12  and  C_13 
REMARK       I    between atoms: C_19  and  N_20 
REMARK    6  A    between atoms: N_20  and  N_21 
REMARK       I    between atoms: N_21  and  C_22 
REMARK       I    between atoms: C_22  and  N_23 
REMARK    7  A    between atoms: N_23  and  C_24 
ROOT
HETATM    1  C   UNL     1      41.919 -13.815   5.046  1.00  0.00     0.183 C 
ENDROOT
BRANCH   1   2
HETATM    2  C   UNL     1      43.324 -14.335   5.406  1.00  0.00     0.076 C 
BRANCH   2   3
HETATM    3  C   UNL     1      43.339 -15.724   5.975  1.00  0.00    -0.028 A 
HETATM    4  C   UNL     1      43.595 -16.952   5.284  1.00  0.00    -0.002 A 
HETATM    5  C   UNL     1      43.904 -17.288   3.948  1.00  0.00     0.014 A 
HETATM    6  C   UNL     1      43.490 -17.985   6.217  1.00  0.00     0.042 A 
HETATM    7  C   UNL     1      44.077 -18.631   3.596  1.00  0.00     0.001 A 
HETATM    8  C   UNL     1      43.959 -19.636   4.551  1.00  0.00     0.002 A 
HETATM    9  C   UNL     1      43.668 -19.332   5.883  1.00  0.00     0.030 A 
HETATM   10  N   UNL     1      43.207 -17.408   7.432  1.00  0.00    -0.365 N 
HETATM   11  H   UNL     1      43.092 -17.917   8.297  1.00  0.00     0.165 HD
HETATM   12  C   UNL     1      43.107 -16.050   7.298  1.00  0.00     0.096 A 
ENDBRANCH   2   3
ENDBRANCH   1   2
BRANCH   1  13
HETATM   13  N   UNL     1      41.543 -12.566   5.715  1.00  0.00    -0.343 N 
HETATM   14  C   UNL     1      40.234 -12.245   6.011  1.00  0.00     0.259 C 
HETATM   15  O   UNL     1      39.362 -13.108   6.022  1.00  0.00    -0.267 OA
HETATM   16  H   UNL     1      42.140 -11.768   5.528  1.00  0.00     0.163 HD
BRANCH  14  17
HETATM   17  C   UNL     1      39.985 -10.845   6.333  1.00  0.00     0.072 A 
HETATM   18  S   UNL     1      40.490  -9.565   5.305  1.00  0.00    -0.097 SA
HETATM   19  C   UNL     1      39.867  -8.374   6.360  1.00  0.00     0.050 A 
HETATM   20  C   UNL     1      39.274  -8.929   7.470  1.00  0.00     0.009 A 
HETATM   21  C   UNL     1      39.340 -10.353   7.453  1.00  0.00     0.025 A 
ENDBRANCH  14  17
ENDBRANCH   1  13
BRANCH   1  22
HETATM   22  C   UNL     1      41.738 -13.836   3.516  1.00  0.00     0.259 C 
HETATM   23  N   UNL     1      40.432 -13.977   3.081  1.00  0.00    -0.264 N 
HETATM   24  H   UNL     1      39.685 -13.600   3.665  1.00  0.00     0.190 HD
HETATM   25  O   UNL     1      42.695 -13.900   2.740  1.00  0.00    -0.269 OA
BRANCH  23  26
HETATM   26  N   UNL     1      40.219 -13.866   1.697  1.00  0.00    -0.249 N 
HETATM   27  C   UNL     1      39.849 -14.975   0.994  1.00  0.00     0.339 C 
HETATM   28  N   UNL     1      39.688 -14.843  -0.354  1.00  0.00    -0.308 N 
HETATM   29  O   UNL     1      39.709 -16.077   1.526  1.00  0.00    -0.245 OA
HETATM   30  H   UNL     1      39.617 -15.749  -0.803  1.00  0.00     0.170 HD
HETATM   31  H   UNL     1      40.759 -13.143   1.235  1.00  0.00     0.192 HD
BRANCH  28  32
HETATM   32  C   UNL     1      39.574 -13.713  -1.186  1.00  0.00     0.036 A 
HETATM   33  C   UNL     1      40.502 -13.358  -2.169  1.00  0.00     0.031 A 
HETATM   34  C   UNL     1      40.299 -12.221  -2.962  1.00  0.00     0.026 A 
HETATM   35  C   UNL     1      39.179 -11.422  -2.759  1.00  0.00     0.034 A 
HETATM   36 CL   UNL     1      38.927 -10.030  -3.736  1.00  0.00    -0.084 Cl
HETATM   37  C   UNL     1      38.267 -11.740  -1.757  1.00  0.00     0.026 A 
HETATM   38  C   UNL     1      38.471 -12.877  -0.968  1.00  0.00     0.031 A 
ENDBRANCH  28  32
ENDBRANCH  23  26
ENDBRANCH   1  22
TORSDOF 7
ENDMDL
MODEL 9
REMARK VINA RESULT:      -8.8      4.022      8.916
REMARK  7 active torsions:
REMARK  status: ('A' for Active; 'I' for Inactive)
REMARK    1  A    between atoms: C_8  and  C_9 
REMARK    2  A    between atoms: C_9  and  C_10 
REMARK    3  A    between atoms: C_10  and  N_11 
REMARK    4  A    between atoms: C_10  and  C_19 
REMARK       I    between atoms: N_11  and  C_12 
REMARK    5  A    between atoms: C_12  and  C_13 
REMARK       I    between atoms: C_19  and  N_20 
REMARK    6  A    between atoms: N_20  and  N_21 
REMARK       I    between atoms: N_21  and  C_22 
REMARK       I    between atoms: C_22  and  N_23 
REMARK    7  A    between atoms: N_23  and  C_24 
ROOT
HETATM    1  C   UNL     1      42.470 -14.875   3.855  1.00  0.00     0.183 C 
ENDROOT
BRANCH   1   2
HETATM    2  C   UNL     1      41.811 -14.378   5.156  1.00  0.00     0.076 C 
BRANCH   2   3
HETATM    3  C   UNL     1      42.623 -13.365   5.910  1.00  0.00    -0.028 A 
HETATM    4  C   UNL     1      42.294 -11.995   6.170  1.00  0.00    -0.002 A 
HETATM    5  C   UNL     1      41.195 -11.167   5.856  1.00  0.00     0.014 A 
HETATM    6  C   UNL     1      43.352 -11.443   6.892  1.00  0.00     0.042 A 
HETATM    7  C   UNL     1      41.203  -9.827   6.258  1.00  0.00     0.001 A 
HETATM    8  C   UNL     1      42.278  -9.306   6.973  1.00  0.00     0.002 A 
HETATM    9  C   UNL     1      43.373 -10.106   7.309  1.00  0.00     0.030 A 
HETATM   10  N   UNL     1      44.277 -12.441   7.087  1.00  0.00    -0.365 N 
HETATM   11  H   UNL     1      45.143 -12.331   7.596  1.00  0.00     0.165 HD
HETATM   12  C   UNL     1      43.853 -13.599   6.495  1.00  0.00     0.096 A 
ENDBRANCH   2   3
ENDBRANCH   1   2
BRANCH   1  13
HETATM   13  N   UNL     1      42.493 -16.332   3.702  1.00  0.00    -0.343 N 
HETATM   14  C   UNL     1      43.530 -17.113   4.169  1.00  0.00     0.259 C 
HETATM   15  O   UNL     1      44.319 -16.677   5.003  1.00  0.00    -0.267 OA
HETATM   16  H   UNL     1      42.029 -16.698   2.878  1.00  0.00     0.163 HD
BRANCH  14  17
HETATM   17  C   UNL     1      43.591 -18.468   3.635  1.00  0.00     0.072 A 
HETATM   18  S   UNL     1      44.162 -19.793   4.567  1.00  0.00    -0.097 SA
HETATM   19  C   UNL     1      43.933 -20.892   3.279  1.00  0.00     0.050 A 
HETATM   20  C   UNL     1      43.422 -20.275   2.160  1.00  0.00     0.009 A 
HETATM   21  C   UNL     1      43.223 -18.879   2.367  1.00  0.00     0.025 A 
ENDBRANCH  14  17
ENDBRANCH   1  13
BRANCH   1  22
HETATM   22  C   UNL     1      41.904 -14.086   2.658  1.00  0.00     0.259 C 
HETATM   23  N   UNL     1      42.056 -14.698   1.427  1.00  0.00    -0.264 N 
HETATM   24  H   UNL     1      42.063 -15.718   1.392  1.00  0.00     0.190 HD
HETATM   25  O   UNL     1      41.507 -12.923   2.765  1.00  0.00    -0.269 OA
BRANCH  23  26
HETATM   26  N   UNL     1      41.435 -14.069   0.335  1.00  0.00    -0.249 N 
HETATM   27  C   UNL     1      40.248 -14.561  -0.124  1.00  0.00     0.339 C 
HETATM   28  N   UNL     1      39.690 -13.952  -1.210  1.00  0.00    -0.308 N 
HETATM   29  O   UNL     1      39.707 -15.548   0.374  1.00  0.00    -0.245 OA
HETATM   30  H   UNL     1      38.934 -14.509  -1.590  1.00  0.00     0.170 HD
HETATM   31  H   UNL     1      42.066 -13.609  -0.313  1.00  0.00     0.192 HD
BRANCH  28  32
HETATM   32  C   UNL     1      39.952 -12.721  -1.841  1.00  0.00     0.036 A 
HETATM   33  C   UNL     1      40.868 -12.546  -2.883  1.00  0.00     0.031 A 
HETATM   34  C   UNL     1      41.053 -11.285  -3.463  1.00  0.00     0.026 A 
HETATM   35  C   UNL     1      40.340 -10.188  -2.988  1.00  0.00     0.034 A 
HETATM   36 CL   UNL     1      40.564  -8.641  -3.704  1.00  0.00    -0.084 Cl
HETATM   37  C   UNL     1      39.455 -10.340  -1.925  1.00  0.00     0.026 A 
HETATM   38  C   UNL     1      39.271 -11.601  -1.348  1.00  0.00     0.031 A 
ENDBRANCH  28  32
ENDBRANCH  23  26
ENDBRANCH   1  22
TORSDOF 7
ENDMDL
MODEL 10
REMARK VINA RESULT:      -8.7      4.051      8.424
REMARK  7 active torsions:
REMARK  status: ('A' for Active; 'I' for Inactive)
REMARK    1  A    between atoms: C_8  and  C_9 
REMARK    2  A    between atoms: C_9  and  C_10 
REMARK    3  A    between atoms: C_10  and  N_11 
REMARK    4  A    between atoms: C_10  and  C_19 
REMARK       I    between atoms: N_11  and  C_12 
REMARK    5  A    between atoms: C_12  and  C_13 
REMARK       I    between atoms: C_19  and  N_20 
REMARK    6  A    between atoms: N_20  and  N_21 
REMARK       I    between atoms: N_21  and  C_22 
REMARK       I    between atoms: C_22  and  N_23 
REMARK    7  A    between atoms: N_23  and  C_24 
ROOT
HETATM    1  C   UNL     1      40.836 -11.969   5.446  1.00  0.00     0.183 C 
ENDROOT
BRANCH   1   2
HETATM    2  C   UNL     1      39.489 -12.338   4.795  1.00  0.00     0.076 C 
BRANCH   2   3
HETATM    3  C   UNL     1      39.496 -12.288   3.295  1.00  0.00    -0.028 A 
HETATM    4  C   UNL     1      39.673 -13.377   2.381  1.00  0.00    -0.002 A 
HETATM    5  C   UNL     1      39.879 -14.766   2.529  1.00  0.00     0.014 A 
HETATM    6  C   UNL     1      39.618 -12.851   1.090  1.00  0.00     0.042 A 
HETATM    7  C   UNL     1      40.038 -15.565   1.391  1.00  0.00     0.001 A 
HETATM    8  C   UNL     1      39.984 -15.006   0.117  1.00  0.00     0.002 A 
HETATM    9  C   UNL     1      39.767 -13.637  -0.059  1.00  0.00     0.030 A 
HETATM   10  N   UNL     1      39.392 -11.500   1.210  1.00  0.00    -0.365 N 
HETATM   11  H   UNL     1      39.289 -10.864   0.432  1.00  0.00     0.165 HD
HETATM   12  C   UNL     1      39.323 -11.149   2.530  1.00  0.00     0.096 A 
ENDBRANCH   2   3
ENDBRANCH   1   2
BRANCH   1  13
HETATM   13  N   UNL     1      40.722 -11.346   6.768  1.00  0.00    -0.343 N 
HETATM   14  C   UNL     1      40.623  -9.981   6.941  1.00  0.00     0.259 C 
HETATM   15  O   UNL     1      40.309  -9.249   6.007  1.00  0.00    -0.267 OA
HETATM   16  H   UNL     1      41.182 -11.835   7.528  1.00  0.00     0.163 HD
BRANCH  14  17
HETATM   17  C   UNL     1      40.881  -9.495   8.291  1.00  0.00     0.072 A 
HETATM   18  S   UNL     1      42.471  -9.186   8.863  1.00  0.00    -0.097 SA
HETATM   19  C   UNL     1      41.904  -8.713  10.404  1.00  0.00     0.050 A 
HETATM   20  C   UNL     1      40.531  -8.774  10.488  1.00  0.00     0.009 A 
HETATM   21  C   UNL     1      39.943  -9.222   9.270  1.00  0.00     0.025 A 
ENDBRANCH  14  17
ENDBRANCH   1  13
BRANCH   1  22
HETATM   22  C   UNL     1      41.799 -13.168   5.352  1.00  0.00     0.259 C 
HETATM   23  N   UNL     1      41.310 -14.356   5.865  1.00  0.00    -0.264 N 
HETATM   24  H   UNL     1      40.304 -14.522   5.824  1.00  0.00     0.190 HD
HETATM   25  O   UNL     1      42.977 -13.041   5.008  1.00  0.00    -0.269 OA
BRANCH  23  26
HETATM   26  N   UNL     1      42.109 -15.495   5.674  1.00  0.00    -0.249 N 
HETATM   27  C   UNL     1      42.775 -16.022   6.742  1.00  0.00     0.339 C 
HETATM   28  N   UNL     1      43.574 -17.105   6.516  1.00  0.00    -0.308 N 
HETATM   29  O   UNL     1      42.714 -15.527   7.867  1.00  0.00    -0.245 OA
HETATM   30  H   UNL     1      44.171 -17.289   7.313  1.00  0.00     0.170 HD
HETATM   31  H   UNL     1      42.505 -15.593   4.745  1.00  0.00     0.192 HD
BRANCH  28  32
HETATM   32  C   UNL     1      43.679 -17.990   5.426  1.00  0.00     0.036 A 
HETATM   33  C   UNL     1      43.881 -19.369   5.543  1.00  0.00     0.031 A 
HETATM   34  C   UNL     1      43.958 -20.176   4.402  1.00  0.00     0.026 A 
HETATM   35  C   UNL     1      43.859 -19.605   3.137  1.00  0.00     0.034 A 
HETATM   36 CL   UNL     1      43.948 -20.597   1.736  1.00  0.00    -0.084 Cl
HETATM   37  C   UNL     1      43.699 -18.229   3.004  1.00  0.00     0.026 A 
HETATM   38  C   UNL     1      43.619 -17.425   4.146  1.00  0.00     0.031 A 
ENDBRANCH  28  32
ENDBRANCH  23  26
ENDBRANCH   1  22
TORSDOF 7
ENDMDL
