MODEL 1
REMARK VINA RESULT:      -7.1      0.000      0.000
REMARK  10 active torsions:
REMARK  status: ('A' for Active; 'I' for Inactive)
REMARK    1  A    between atoms: C_1  and  C_8 
REMARK    2  A    between atoms: C_1  and  S_9 
REMARK    3  A    between atoms: C_3  and  C_24 
REMARK    4  A    between atoms: C_7  and  C_8 
REMARK    5  A    between atoms: S_9  and  C_10 
REMARK    6  A    between atoms: C_10  and  S_11 
REMARK    7  A    between atoms: S_11  and  C_12 
REMARK    8  A    between atoms: C_12  and  C_13 
REMARK    9  A    between atoms: C_13  and  C_14 
REMARK   10  A    between atoms: C_18  and  C_19 
ROOT
HETATM    1  C           1      39.972 -14.766   3.177  0.00  0.00     0.092 C 
HETATM    2  C           1      39.929 -12.410   2.732  0.00  0.00     0.156 C 
HETATM    3  N           1      39.420 -13.830   2.454  0.00  0.00    -0.350 N 
HETATM    4  N           1      39.729 -16.003   3.054  0.00  0.00    -0.388 N 
HETATM    5  C           1      40.965 -14.159   4.133  0.00  0.00     0.127 C 
HETATM    6  C           1      40.586 -12.649   4.140  0.00  0.00     0.136 C 
HETATM    7  C           1      39.586 -12.405   5.225  0.00  0.00     0.079 C 
HETATM    8  N           1      38.873 -12.297   6.133  0.00  0.00    -0.196 NA
HETATM    9  C           1      42.512 -14.349   3.838  0.00  0.00     0.248 C 
HETATM   10  N           1      43.390 -13.676   4.930  0.00  0.00    -0.040 N 
HETATM   11  C           1      43.009 -12.275   4.940  0.00  0.00     0.105 C 
HETATM   12  C           1      44.097 -11.320   5.365  0.00  0.00     0.075 C 
HETATM   13  C           1      41.797 -11.820   4.551  0.00  0.00     0.036 C 
HETATM   14  H           1      38.718 -14.036   1.729  0.00  0.00     0.163 HD
HETATM   15  H           1      40.264 -16.709   3.620  0.00  0.00     0.157 HD
HETATM   16  H           1      39.019 -16.345   2.362  0.00  0.00     0.157 HD
HETATM   17  H           1      44.386 -13.744   4.621  0.00  0.00     0.284 HD
HETATM   18  H           1      43.319 -14.105   5.875  0.00  0.00     0.284 HD
ENDROOT
BRANCH   2  19
HETATM   19  S           1      38.479 -11.307   2.779  0.00  0.00    -0.125 SA
BRANCH  19  20
HETATM   20  C           1      38.542 -10.472   1.165  0.00  0.00     0.077 C 
BRANCH  20  21
HETATM   21  C           1      37.660 -11.245   0.172  0.00  0.00     0.010 C 
BRANCH  21  22
HETATM   22  C           1      37.715 -10.624  -1.235  0.00  0.00    -0.004 C 
HETATM   23  C           1      37.029 -11.513  -2.279  0.00  0.00     0.005 C 
ENDBRANCH  21  22
ENDBRANCH  20  21
ENDBRANCH  19  20
ENDBRANCH   2  19
BRANCH   2  24
HETATM   24  S           1      41.234 -12.008   1.521  0.00  0.00    -0.125 SA
BRANCH  24  25
HETATM   25  C           1      40.909 -13.265   0.245  0.00  0.00     0.077 C 
BRANCH  25  26
HETATM   26  C           1      40.849 -12.572  -1.126  0.00  0.00     0.010 C 
BRANCH  26  27
HETATM   27  C           1      40.204 -13.476  -2.190  0.00  0.00    -0.004 C 
HETATM   28  C           1      39.238 -14.493  -1.567  0.00  0.00     0.005 C 
ENDBRANCH  26  27
ENDBRANCH  25  26
ENDBRANCH  24  25
ENDBRANCH   2  24
BRANCH   5  29
HETATM   29  C           1      40.987 -14.669   5.523  0.00  0.00     0.105 C 
HETATM   30  N           1      40.400 -15.452   6.144  0.00  0.00    -0.151 N 
ENDBRANCH   5  29
BRANCH   9  31
HETATM   31  C           1      42.903 -15.806   3.632  0.00  0.00    -0.026 A 
HETATM   32  C           1      42.883 -16.329   2.390  0.00  0.00     0.009 A 
HETATM   33  C           1      43.212 -17.610   2.163  0.00  0.00     0.001 A 
HETATM   34  C           1      43.580 -18.397   3.185  0.00  0.00     0.000 A 
HETATM   35  C           1      43.620 -17.891   4.425  0.00  0.00     0.001 A 
HETATM   36  C           1      43.288 -16.608   4.642  0.00  0.00     0.009 A 
ENDBRANCH   9  31
TORSDOF 10
ENDMDL
MODEL 2
REMARK VINA RESULT:      -6.8      1.259      2.387
REMARK  10 active torsions:
REMARK  status: ('A' for Active; 'I' for Inactive)
REMARK    1  A    between atoms: C_1  and  C_8 
REMARK    2  A    between atoms: C_1  and  S_9 
REMARK    3  A    between atoms: C_3  and  C_24 
REMARK    4  A    between atoms: C_7  and  C_8 
REMARK    5  A    between atoms: S_9  and  C_10 
REMARK    6  A    between atoms: C_10  and  S_11 
REMARK    7  A    between atoms: S_11  and  C_12 
REMARK    8  A    between atoms: C_12  and  C_13 
REMARK    9  A    between atoms: C_13  and  C_14 
REMARK   10  A    between atoms: C_18  and  C_19 
ROOT
HETATM    1  C           1      40.179 -14.836   3.405  0.00  0.00     0.092 C 
HETATM    2  C           1      40.164 -12.483   2.943  0.00  0.00     0.156 C 
HETATM    3  N           1      39.672 -13.905   2.643  0.00  0.00    -0.350 N 
HETATM    4  N           1      39.943 -16.074   3.276  0.00  0.00    -0.388 N 
HETATM    5  C           1      41.113 -14.222   4.414  0.00  0.00     0.127 C 
HETATM    6  C           1      40.736 -12.713   4.389  0.00  0.00     0.136 C 
HETATM    7  C           1      39.672 -12.462   5.411  0.00  0.00     0.079 C 
HETATM    8  N           1      38.906 -12.348   6.273  0.00  0.00    -0.196 NA
HETATM    9  C           1      42.675 -14.415   4.215  0.00  0.00     0.248 C 
HETATM   10  N           1      43.486 -13.736   5.353  0.00  0.00    -0.040 N 
HETATM   11  C           1      43.106 -12.334   5.331  0.00  0.00     0.105 C 
HETATM   12  C           1      44.167 -11.377   5.814  0.00  0.00     0.075 C 
HETATM   13  C           1      41.920 -11.882   4.867  0.00  0.00     0.036 C 
HETATM   14  H           1      39.015 -14.115   1.880  0.00  0.00     0.163 HD
HETATM   15  H           1      40.443 -16.776   3.877  0.00  0.00     0.157 HD
HETATM   16  H           1      39.276 -16.420   2.544  0.00  0.00     0.157 HD
HETATM   17  H           1      44.499 -13.805   5.104  0.00  0.00     0.284 HD
HETATM   18  H           1      43.359 -14.158   6.294  0.00  0.00     0.284 HD
ENDROOT
BRANCH   2  19
HETATM   19  S           1      38.715 -11.379   2.896  0.00  0.00    -0.125 SA
BRANCH  19  20
HETATM   20  C           1      39.459  -9.721   2.873  0.00  0.00     0.077 C 
BRANCH  20  21
HETATM   21  C           1      38.937  -8.926   4.081  0.00  0.00     0.010 C 
BRANCH  21  22
HETATM   22  C           1      40.034  -8.719   5.139  0.00  0.00    -0.004 C 
HETATM   23  C           1      39.467  -8.752   6.564  0.00  0.00     0.005 C 
ENDBRANCH  21  22
ENDBRANCH  20  21
ENDBRANCH  19  20
ENDBRANCH   2  19
BRANCH   2  24
HETATM   24  S           1      41.539 -12.089   1.809  0.00  0.00    -0.125 SA
BRANCH  24  25
HETATM   25  C           1      40.977 -12.924   0.293  0.00  0.00     0.077 C 
BRANCH  25  26
HETATM   26  C           1      40.557 -11.857  -0.730  0.00  0.00     0.010 C 
BRANCH  26  27
HETATM   27  C           1      40.869 -12.299  -2.170  0.00  0.00    -0.004 C 
HETATM   28  C           1      40.258 -13.670  -2.492  0.00  0.00     0.005 C 
ENDBRANCH  26  27
ENDBRANCH  25  26
ENDBRANCH  24  25
ENDBRANCH   2  24
BRANCH   5  29
HETATM   29  C           1      41.051 -14.724   5.807  0.00  0.00     0.105 C 
HETATM   30  N           1      40.419 -15.493   6.399  0.00  0.00    -0.151 N 
ENDBRANCH   5  29
BRANCH   9  31
HETATM   31  C           1      43.077 -15.873   4.041  0.00  0.00    -0.026 A 
HETATM   32  C           1      43.114 -16.410   2.806  0.00  0.00     0.009 A 
HETATM   33  C           1      43.455 -17.692   2.608  0.00  0.00     0.001 A 
HETATM   34  C           1      43.777 -18.468   3.653  0.00  0.00     0.000 A 
HETATM   35  C           1      43.760 -17.948   4.888  0.00  0.00     0.001 A 
HETATM   36  C           1      43.416 -16.664   5.076  0.00  0.00     0.009 A 
ENDBRANCH   9  31
TORSDOF 10
ENDMDL
MODEL 3
REMARK VINA RESULT:      -6.6      1.695      2.781
REMARK  10 active torsions:
REMARK  status: ('A' for Active; 'I' for Inactive)
REMARK    1  A    between atoms: C_1  and  C_8 
REMARK    2  A    between atoms: C_1  and  S_9 
REMARK    3  A    between atoms: C_3  and  C_24 
REMARK    4  A    between atoms: C_7  and  C_8 
REMARK    5  A    between atoms: S_9  and  C_10 
REMARK    6  A    between atoms: C_10  and  S_11 
REMARK    7  A    between atoms: S_11  and  C_12 
REMARK    8  A    between atoms: C_12  and  C_13 
REMARK    9  A    between atoms: C_13  and  C_14 
REMARK   10  A    between atoms: C_18  and  C_19 
ROOT
HETATM    1  C           1      39.929 -13.863   3.429  0.00  0.00     0.092 C 
HETATM    2  C           1      40.034 -11.467   3.412  0.00  0.00     0.156 C 
HETATM    3  N           1      39.425 -12.780   2.903  0.00  0.00    -0.350 N 
HETATM    4  N           1      39.602 -15.040   3.097  0.00  0.00    -0.388 N 
HETATM    5  C           1      40.983 -13.499   4.443  0.00  0.00     0.127 C 
HETATM    6  C           1      40.706 -11.995   4.732  0.00  0.00     0.136 C 
HETATM    7  C           1      39.750 -11.889   5.876  0.00  0.00     0.079 C 
HETATM    8  N           1      39.066 -11.902   6.813  0.00  0.00    -0.196 NA
HETATM    9  C           1      42.506 -13.729   4.066  0.00  0.00     0.248 C 
HETATM   10  N           1      43.452 -13.319   5.230  0.00  0.00    -0.040 N 
HETATM   11  C           1      43.166 -11.921   5.502  0.00  0.00     0.105 C 
HETATM   12  C           1      44.325 -11.127   6.052  0.00  0.00     0.075 C 
HETATM   13  C           1      41.979 -11.330   5.241  0.00  0.00     0.036 C 
HETATM   14  H           1      38.695 -12.809   2.178  0.00  0.00     0.163 HD
HETATM   15  H           1      40.101 -15.868   3.509  0.00  0.00     0.157 HD
HETATM   16  H           1      38.855 -15.208   2.379  0.00  0.00     0.157 HD
HETATM   17  H           1      44.435 -13.391   4.879  0.00  0.00     0.284 HD
HETATM   18  H           1      43.375 -13.904   6.084  0.00  0.00     0.284 HD
ENDROOT
BRANCH   2  19
HETATM   19  S           1      38.663 -10.303   3.704  0.00  0.00    -0.125 SA
BRANCH  19  20
HETATM   20  C           1      39.440  -8.678   3.459  0.00  0.00     0.077 C 
BRANCH  20  21
HETATM   21  C           1      39.855  -8.114   4.827  0.00  0.00     0.010 C 
BRANCH  21  22
HETATM   22  C           1      38.801  -8.416   5.906  0.00  0.00    -0.004 C 
HETATM   23  C           1      39.311  -8.079   7.313  0.00  0.00     0.005 C 
ENDBRANCH  21  22
ENDBRANCH  20  21
ENDBRANCH  19  20
ENDBRANCH   2  19
BRANCH   2  24
HETATM   24  S           1      41.335 -10.935   2.247  0.00  0.00    -0.125 SA
BRANCH  24  25
HETATM   25  C           1      40.568 -11.381   0.658  0.00  0.00     0.077 C 
BRANCH  25  26
HETATM   26  C           1      41.330 -12.576   0.062  0.00  0.00     0.010 C 
BRANCH  26  27
HETATM   27  C           1      40.381 -13.735  -0.289  0.00  0.00    -0.004 C 
HETATM   28  C           1      40.014 -13.742  -1.780  0.00  0.00     0.005 C 
ENDBRANCH  26  27
ENDBRANCH  25  26
ENDBRANCH  24  25
ENDBRANCH   2  24
BRANCH   5  29
HETATM   29  C           1      41.002 -14.252   5.719  0.00  0.00     0.105 C 
HETATM   30  N           1      40.335 -15.040   6.244  0.00  0.00    -0.151 N 
ENDBRANCH   5  29
BRANCH   9  31
HETATM   31  C           1      42.794 -15.146   3.590  0.00  0.00    -0.026 A 
HETATM   32  C           1      42.816 -15.412   2.270  0.00  0.00     0.009 A 
HETATM   33  C           1      43.058 -16.647   1.807  0.00  0.00     0.001 A 
HETATM   34  C           1      43.294 -17.650   2.666  0.00  0.00     0.000 A 
HETATM   35  C           1      43.291 -17.402   3.983  0.00  0.00     0.001 A 
HETATM   36  C           1      43.047 -16.161   4.436  0.00  0.00     0.009 A 
ENDBRANCH   9  31
TORSDOF 10
ENDMDL
MODEL 4
REMARK VINA RESULT:      -6.3     16.543     18.639
REMARK  10 active torsions:
REMARK  status: ('A' for Active; 'I' for Inactive)
REMARK    1  A    between atoms: C_1  and  C_8 
REMARK    2  A    between atoms: C_1  and  S_9 
REMARK    3  A    between atoms: C_3  and  C_24 
REMARK    4  A    between atoms: C_7  and  C_8 
REMARK    5  A    between atoms: S_9  and  C_10 
REMARK    6  A    between atoms: C_10  and  S_11 
REMARK    7  A    between atoms: S_11  and  C_12 
REMARK    8  A    between atoms: C_12  and  C_13 
REMARK    9  A    between atoms: C_13  and  C_14 
REMARK   10  A    between atoms: C_18  and  C_19 
ROOT
HETATM    1  C           1      47.609 -31.975  -1.131  0.00  0.00     0.092 C 
HETATM    2  C           1      45.924 -30.435  -0.395  0.00  0.00     0.156 C 
HETATM    3  N           1      46.463 -31.428  -1.433  0.00  0.00    -0.350 N 
HETATM    4  N           1      48.244 -32.771  -1.884  0.00  0.00    -0.388 N 
HETATM    5  C           1      48.077 -31.477   0.212  0.00  0.00     0.127 C 
HETATM    6  C           1      46.792 -30.867   0.842  0.00  0.00     0.136 C 
HETATM    7  C           1      46.085 -31.928   1.625  0.00  0.00     0.079 C 
HETATM    8  N           1      45.647 -32.790   2.264  0.00  0.00    -0.196 NA
HETATM    9  C           1      49.274 -30.438   0.258  0.00  0.00     0.248 C 
HETATM   10  N           1      49.638 -30.048   1.718  0.00  0.00    -0.040 N 
HETATM   11  C           1      48.425 -29.501   2.299  0.00  0.00     0.105 C 
HETATM   12  C           1      48.641 -28.475   3.382  0.00  0.00     0.075 C 
HETATM   13  C           1      47.179 -29.825   1.885  0.00  0.00     0.036 C 
HETATM   14  H           1      45.974 -31.627  -2.316  0.00  0.00     0.163 HD
HETATM   15  H           1      49.198 -33.117  -1.609  0.00  0.00     0.157 HD
HETATM   16  H           1      47.845 -33.069  -2.807  0.00  0.00     0.157 HD
HETATM   17  H           1      50.353 -29.285   1.673  0.00  0.00     0.284 HD
HETATM   18  H           1      50.031 -30.819   2.293  0.00  0.00     0.284 HD
ENDROOT
BRANCH   2  19
HETATM   19  S           1      44.144 -30.767  -0.191  0.00  0.00    -0.125 SA
BRANCH  19  20
HETATM   20  C           1      43.441 -29.110   0.065  0.00  0.00     0.077 C 
BRANCH  20  21
HETATM   21  C           1      42.533 -29.142   1.305  0.00  0.00     0.010 C 
BRANCH  21  22
HETATM   22  C           1      43.301 -29.599   2.557  0.00  0.00    -0.004 C 
HETATM   23  C           1      42.563 -30.717   3.303  0.00  0.00     0.005 C 
ENDBRANCH  21  22
ENDBRANCH  20  21
ENDBRANCH  19  20
ENDBRANCH   2  19
BRANCH   2  24
HETATM   24  S           1      46.397 -28.746  -0.901  0.00  0.00    -0.125 SA
BRANCH  24  25
HETATM   25  C           1      46.426 -28.932  -2.711  0.00  0.00     0.077 C 
BRANCH  25  26
HETATM   26  C           1      45.197 -28.219  -3.299  0.00  0.00     0.010 C 
BRANCH  26  27
HETATM   27  C           1      44.073 -29.213  -3.635  0.00  0.00    -0.004 C 
HETATM   28  C           1      44.335 -29.947  -4.957  0.00  0.00     0.005 C 
ENDBRANCH  26  27
ENDBRANCH  25  26
ENDBRANCH  24  25
ENDBRANCH   2  24
BRANCH   5  29
HETATM   29  C           1      48.666 -32.464   1.147  0.00  0.00     0.105 C 
HETATM   30  N           1      48.814 -33.613   1.178  0.00  0.00    -0.151 N 
ENDBRANCH   5  29
BRANCH   9  31
HETATM   31  C           1      50.500 -30.908  -0.512  0.00  0.00    -0.026 A 
HETATM   32  C           1      50.733 -30.426  -1.749  0.00  0.00     0.009 A 
HETATM   33  C           1      51.796 -30.819  -2.466  0.00  0.00     0.001 A 
HETATM   34  C           1      52.661 -31.704  -1.951  0.00  0.00     0.000 A 
HETATM   35  C           1      52.455 -32.184  -0.717  0.00  0.00     0.001 A 
HETATM   36  C           1      51.387 -31.785  -0.007  0.00  0.00     0.009 A 
ENDBRANCH   9  31
TORSDOF 10
ENDMDL
MODEL 5
REMARK VINA RESULT:      -6.3     16.242     18.904
REMARK  10 active torsions:
REMARK  status: ('A' for Active; 'I' for Inactive)
REMARK    1  A    between atoms: C_1  and  C_8 
REMARK    2  A    between atoms: C_1  and  S_9 
REMARK    3  A    between atoms: C_3  and  C_24 
REMARK    4  A    between atoms: C_7  and  C_8 
REMARK    5  A    between atoms: S_9  and  C_10 
REMARK    6  A    between atoms: C_10  and  S_11 
REMARK    7  A    between atoms: S_11  and  C_12 
REMARK    8  A    between atoms: C_12  and  C_13 
REMARK    9  A    between atoms: C_13  and  C_14 
REMARK   10  A    between atoms: C_18  and  C_19 
ROOT
HETATM    1  C           1      47.055 -30.635  -0.866  0.00  0.00     0.092 C 
HETATM    2  C           1      46.753 -31.236   1.436  0.00  0.00     0.156 C 
HETATM    3  N           1      47.529 -31.351   0.118  0.00  0.00    -0.350 N 
HETATM    4  N           1      47.518 -30.642  -2.044  0.00  0.00    -0.388 N 
HETATM    5  C           1      45.857 -29.851  -0.400  0.00  0.00     0.127 C 
HETATM    6  C           1      45.968 -29.903   1.151  0.00  0.00     0.136 C 
HETATM    7  C           1      46.762 -28.726   1.621  0.00  0.00     0.079 C 
HETATM    8  N           1      47.323 -27.749   1.897  0.00  0.00    -0.196 NA
HETATM    9  C           1      44.417 -30.315  -0.876  0.00  0.00     0.248 C 
HETATM   10  N           1      43.302 -29.385  -0.319  0.00  0.00    -0.040 N 
HETATM   11  C           1      43.434 -29.427   1.127  0.00  0.00     0.105 C 
HETATM   12  C           1      42.153 -29.203   1.892  0.00  0.00     0.075 C 
HETATM   13  C           1      44.591 -29.699   1.771  0.00  0.00     0.036 C 
HETATM   14  H           1      48.343 -31.970   0.006  0.00  0.00     0.163 HD
HETATM   15  H           1      47.043 -30.097  -2.807  0.00  0.00     0.157 HD
HETATM   16  H           1      48.360 -31.219  -2.287  0.00  0.00     0.157 HD
HETATM   17  H           1      42.381 -29.807  -0.577  0.00  0.00     0.284 HD
HETATM   18  H           1      43.321 -28.412  -0.683  0.00  0.00     0.284 HD
ENDROOT
BRANCH   2  19
HETATM   19  S           1      47.975 -31.092   2.781  0.00  0.00    -0.125 SA
BRANCH  19  20
HETATM   20  C           1      49.556 -30.974   1.891  0.00  0.00     0.077 C 
BRANCH  20  21
HETATM   21  C           1      50.483 -30.010   2.650  0.00  0.00     0.010 C 
BRANCH  21  22
HETATM   22  C           1      50.137 -29.956   4.148  0.00  0.00    -0.004 C 
HETATM   23  C           1      51.081 -30.832   4.983  0.00  0.00     0.005 C 
ENDBRANCH  21  22
ENDBRANCH  20  21
ENDBRANCH  19  20
ENDBRANCH   2  19
BRANCH   2  24
HETATM   24  S           1      45.568 -32.619   1.542  0.00  0.00    -0.125 SA
BRANCH  24  25
HETATM   25  C           1      46.151 -33.668   0.173  0.00  0.00     0.077 C 
BRANCH  25  26
HETATM   26  C           1      44.937 -34.354  -0.473  0.00  0.00     0.010 C 
BRANCH  26  27
HETATM   27  C           1      43.613 -33.790   0.068  0.00  0.00    -0.004 C 
HETATM   28  C           1      42.438 -34.081  -0.876  0.00  0.00     0.005 C 
ENDBRANCH  26  27
ENDBRANCH  25  26
ENDBRANCH  24  25
ENDBRANCH   2  24
BRANCH   5  29
HETATM   29  C           1      45.741 -28.441  -0.840  0.00  0.00     0.105 C 
HETATM   30  N           1      46.370 -27.700  -1.471  0.00  0.00    -0.151 N 
ENDBRANCH   5  29
BRANCH   9  31
HETATM   31  C           1      44.310 -30.465  -2.387  0.00  0.00    -0.026 A 
HETATM   32  C           1      44.415 -31.688  -2.942  0.00  0.00     0.009 A 
HETATM   33  C           1      44.335 -31.865  -4.270  0.00  0.00     0.001 A 
HETATM   34  C           1      44.137 -30.812  -5.075  0.00  0.00     0.000 A 
HETATM   35  C           1      44.014 -29.589  -4.540  0.00  0.00     0.001 A 
HETATM   36  C           1      44.098 -29.422  -3.210  0.00  0.00     0.009 A 
ENDBRANCH   9  31
TORSDOF 10
ENDMDL
MODEL 6
REMARK VINA RESULT:      -6.2      6.830     10.580
REMARK  10 active torsions:
REMARK  status: ('A' for Active; 'I' for Inactive)
REMARK    1  A    between atoms: C_1  and  C_8 
REMARK    2  A    between atoms: C_1  and  S_9 
REMARK    3  A    between atoms: C_3  and  C_24 
REMARK    4  A    between atoms: C_7  and  C_8 
REMARK    5  A    between atoms: S_9  and  C_10 
REMARK    6  A    between atoms: C_10  and  S_11 
REMARK    7  A    between atoms: S_11  and  C_12 
REMARK    8  A    between atoms: C_12  and  C_13 
REMARK    9  A    between atoms: C_13  and  C_14 
REMARK   10  A    between atoms: C_18  and  C_19 
ROOT
HETATM    1  C           1      41.819  -9.758  10.954  0.00  0.00     0.092 C 
HETATM    2  C           1      41.477  -9.153   8.659  0.00  0.00     0.156 C 
HETATM    3  N           1      42.246  -9.933   9.732  0.00  0.00    -0.350 N 
HETATM    4  N           1      42.359 -10.267  11.980  0.00  0.00    -0.388 N 
HETATM    5  C           1      40.634  -8.829  10.956  0.00  0.00     0.127 C 
HETATM    6  C           1      40.170  -8.828   9.471  0.00  0.00     0.136 C 
HETATM    7  C           1      39.158  -9.912   9.277  0.00  0.00     0.079 C 
HETATM    8  N           1      38.332 -10.725   9.238  0.00  0.00    -0.196 NA
HETATM    9  C           1      40.835  -7.347  11.484  0.00  0.00     0.248 C 
HETATM   10  N           1      39.510  -6.536  11.433  0.00  0.00    -0.040 N 
HETATM   11  C           1      39.079  -6.563  10.047  0.00  0.00     0.105 C 
HETATM   12  C           1      38.271  -5.368   9.605  0.00  0.00     0.075 C 
HETATM   13  C           1      39.406  -7.543   9.175  0.00  0.00     0.036 C 
HETATM   14  H           1      43.057 -10.527   9.512  0.00  0.00     0.163 HD
HETATM   15  H           1      42.008 -10.025  12.941  0.00  0.00     0.157 HD
HETATM   16  H           1      43.186 -10.907  11.891  0.00  0.00     0.157 HD
HETATM   17  H           1      39.734  -5.547  11.688  0.00  0.00     0.284 HD
HETATM   18  H           1      38.767  -6.871  12.078  0.00  0.00     0.284 HD
ENDROOT
BRANCH   2  19
HETATM   19  S           1      41.203 -10.279   7.252  0.00  0.00    -0.125 SA
BRANCH  19  20
HETATM   20  C           1      42.851 -10.406   6.497  0.00  0.00     0.077 C 
BRANCH  20  21
HETATM   21  C           1      43.222 -11.892   6.359  0.00  0.00     0.010 C 
BRANCH  21  22
HETATM   22  C           1      44.630 -12.176   6.908  0.00  0.00    -0.004 C 
HETATM   23  C           1      45.713 -11.435   6.114  0.00  0.00     0.005 C 
ENDBRANCH  21  22
ENDBRANCH  20  21
ENDBRANCH  19  20
ENDBRANCH   2  19
BRANCH   2  24
HETATM   24  S           1      42.370  -7.600   8.311  0.00  0.00    -0.125 SA
BRANCH  24  25
HETATM   25  C           1      43.851  -7.823   9.346  0.00  0.00     0.077 C 
BRANCH  25  26
HETATM   26  C           1      45.037  -8.184   8.436  0.00  0.00     0.010 C 
BRANCH  26  27
HETATM   27  C           1      45.840  -9.369   8.997  0.00  0.00    -0.004 C 
HETATM   28  C           1      45.508  -9.640  10.470  0.00  0.00     0.005 C 
ENDBRANCH  26  27
ENDBRANCH  25  26
ENDBRANCH  24  25
ENDBRANCH   2  24
BRANCH   5  29
HETATM   29  C           1      39.489  -9.173  11.831  0.00  0.00     0.105 C 
HETATM   30  N           1      39.234 -10.000  12.602  0.00  0.00    -0.151 N 
ENDBRANCH   5  29
BRANCH   9  31
HETATM   31  C           1      41.468  -7.289  12.867  0.00  0.00    -0.026 A 
HETATM   32  C           1      40.680  -7.306  13.960  0.00  0.00     0.009 A 
HETATM   33  C           1      41.195  -7.249  15.197  0.00  0.00     0.001 A 
HETATM   34  C           1      42.524  -7.181  15.367  0.00  0.00     0.000 A 
HETATM   35  C           1      43.325  -7.178  14.292  0.00  0.00     0.001 A 
HETATM   36  C           1      42.799  -7.234  13.058  0.00  0.00     0.009 A 
ENDBRANCH   9  31
TORSDOF 10
ENDMDL
MODEL 7
REMARK VINA RESULT:      -6.0      9.454     12.976
REMARK  10 active torsions:
REMARK  status: ('A' for Active; 'I' for Inactive)
REMARK    1  A    between atoms: C_1  and  C_8 
REMARK    2  A    between atoms: C_1  and  S_9 
REMARK    3  A    between atoms: C_3  and  C_24 
REMARK    4  A    between atoms: C_7  and  C_8 
REMARK    5  A    between atoms: S_9  and  C_10 
REMARK    6  A    between atoms: C_10  and  S_11 
REMARK    7  A    between atoms: S_11  and  C_12 
REMARK    8  A    between atoms: C_12  and  C_13 
REMARK    9  A    between atoms: C_13  and  C_14 
REMARK   10  A    between atoms: C_18  and  C_19 
ROOT
HETATM    1  C           1      42.181  -6.503  11.191  0.00  0.00     0.092 C 
HETATM    2  C           1      40.927  -6.475  13.235  0.00  0.00     0.156 C 
HETATM    3  N           1      41.974  -5.851  12.303  0.00  0.00    -0.350 N 
HETATM    4  N           1      43.046  -6.181  10.323  0.00  0.00    -0.388 N 
HETATM    5  C           1      41.280  -7.708  11.125  0.00  0.00     0.127 C 
HETATM    6  C           1      40.197  -7.411  12.203  0.00  0.00     0.136 C 
HETATM    7  C           1      39.059  -6.684  11.561  0.00  0.00     0.079 C 
HETATM    8  N           1      38.195  -6.191  10.965  0.00  0.00    -0.196 NA
HETATM    9  C           1      41.917  -9.143  11.349  0.00  0.00     0.248 C 
HETATM   10  N           1      40.852 -10.268  11.229  0.00  0.00    -0.040 N 
HETATM   11  C           1      39.838  -9.965  12.225  0.00  0.00     0.105 C 
HETATM   12  C           1      39.107 -11.163  12.777  0.00  0.00     0.075 C 
HETATM   13  C           1      39.583  -8.720  12.685  0.00  0.00     0.036 C 
HETATM   14  H           1      42.497  -5.000  12.548  0.00  0.00     0.163 HD
HETATM   15  H           1      43.211  -6.793   9.484  0.00  0.00     0.157 HD
HETATM   16  H           1      43.636  -5.322  10.445  0.00  0.00     0.157 HD
HETATM   17  H           1      41.312 -11.169  11.493  0.00  0.00     0.284 HD
HETATM   18  H           1      40.442 -10.385  10.281  0.00  0.00     0.284 HD
ENDROOT
BRANCH   2  19
HETATM   19  S           1      39.879  -5.124  13.865  0.00  0.00    -0.125 SA
BRANCH  19  20
HETATM   20  C           1      38.670  -5.991  14.909  0.00  0.00     0.077 C 
BRANCH  20  21
HETATM   21  C           1      38.275  -5.073  16.078  0.00  0.00     0.010 C 
BRANCH  21  22
HETATM   22  C           1      39.360  -4.021  16.362  0.00  0.00    -0.004 C 
HETATM   23  C           1      39.710  -3.950  17.854  0.00  0.00     0.005 C 
ENDBRANCH  21  22
ENDBRANCH  20  21
ENDBRANCH  19  20
ENDBRANCH   2  19
BRANCH   2  24
HETATM   24  S           1      41.785  -7.502  14.475  0.00  0.00    -0.125 SA
BRANCH  24  25
HETATM   25  C           1      42.241  -6.237  15.703  0.00  0.00     0.077 C 
BRANCH  25  26
HETATM   26  C           1      41.980  -6.799  17.109  0.00  0.00     0.010 C 
BRANCH  26  27
HETATM   27  C           1      40.796  -7.781  17.116  0.00  0.00    -0.004 C 
HETATM   28  C           1      40.002  -7.712  18.428  0.00  0.00     0.005 C 
ENDBRANCH  26  27
ENDBRANCH  25  26
ENDBRANCH  24  25
ENDBRANCH   2  24
BRANCH   5  29
HETATM   29  C           1      40.620  -8.008   9.833  0.00  0.00     0.105 C 
HETATM   30  N           1      40.522  -7.497   8.797  0.00  0.00    -0.151 N 
ENDBRANCH   5  29
BRANCH   9  31
HETATM   31  C           1      43.111  -9.410  10.443  0.00  0.00    -0.026 A 
HETATM   32  C           1      44.357  -9.360  10.953  0.00  0.00     0.009 A 
HETATM   33  C           1      45.437  -9.582  10.189  0.00  0.00     0.001 A 
HETATM   34  C           1      45.289  -9.869   8.888  0.00  0.00     0.000 A 
HETATM   35  C           1      44.057  -9.938   8.365  0.00  0.00     0.001 A 
HETATM   36  C           1      42.982  -9.714   9.138  0.00  0.00     0.009 A 
ENDBRANCH   9  31
TORSDOF 10
ENDMDL
MODEL 8
REMARK VINA RESULT:      -6.0     16.609     18.957
REMARK  10 active torsions:
REMARK  status: ('A' for Active; 'I' for Inactive)
REMARK    1  A    between atoms: C_1  and  C_8 
REMARK    2  A    between atoms: C_1  and  S_9 
REMARK    3  A    between atoms: C_3  and  C_24 
REMARK    4  A    between atoms: C_7  and  C_8 
REMARK    5  A    between atoms: S_9  and  C_10 
REMARK    6  A    between atoms: C_10  and  S_11 
REMARK    7  A    between atoms: S_11  and  C_12 
REMARK    8  A    between atoms: C_12  and  C_13 
REMARK    9  A    between atoms: C_13  and  C_14 
REMARK   10  A    between atoms: C_18  and  C_19 
ROOT
HETATM    1  C           1      45.677 -29.477   1.283  0.00  0.00     0.092 C 
HETATM    2  C           1      46.201 -31.499   2.461  0.00  0.00     0.156 C 
HETATM    3  N           1      46.463 -30.015   2.176  0.00  0.00    -0.350 N 
HETATM    4  N           1      45.774 -28.284   0.870  0.00  0.00    -0.388 N 
HETATM    5  C           1      44.684 -30.497   0.792  0.00  0.00     0.127 C 
HETATM    6  C           1      44.748 -31.617   1.871  0.00  0.00     0.136 C 
HETATM    7  C           1      43.735 -31.328   2.932  0.00  0.00     0.079 C 
HETATM    8  N           1      42.876 -31.064   3.665  0.00  0.00    -0.196 NA
HETATM    9  C           1      44.877 -31.103  -0.660  0.00  0.00     0.248 C 
HETATM   10  N           1      43.756 -32.122  -1.010  0.00  0.00    -0.040 N 
HETATM   11  C           1      43.815 -33.147   0.017  0.00  0.00     0.105 C 
HETATM   12  C           1      43.356 -34.516  -0.420  0.00  0.00     0.075 C 
HETATM   13  C           1      44.292 -32.938   1.264  0.00  0.00     0.036 C 
HETATM   14  H           1      47.222 -29.489   2.630  0.00  0.00     0.163 HD
HETATM   15  H           1      45.154 -27.937   0.095  0.00  0.00     0.157 HD
HETATM   16  H           1      46.498 -27.635   1.266  0.00  0.00     0.157 HD
HETATM   17  H           1      44.002 -32.560  -1.927  0.00  0.00     0.284 HD
HETATM   18  H           1      42.804 -31.713  -1.097  0.00  0.00     0.284 HD
ENDROOT
BRANCH   2  19
HETATM   19  S           1      46.278 -31.733   4.267  0.00  0.00    -0.125 SA
BRANCH  19  20
HETATM   20  C           1      47.631 -30.628   4.770  0.00  0.00     0.077 C 
BRANCH  20  21
HETATM   21  C           1      48.939 -31.434   4.819  0.00  0.00     0.010 C 
BRANCH  21  22
HETATM   22  C           1      50.155 -30.558   4.474  0.00  0.00    -0.004 C 
HETATM   23  C           1      51.398 -30.964   5.278  0.00  0.00     0.005 C 
ENDBRANCH  21  22
ENDBRANCH  20  21
ENDBRANCH  19  20
ENDBRANCH   2  19
BRANCH   2  24
HETATM   24  S           1      47.343 -32.501   1.449  0.00  0.00    -0.125 SA
BRANCH  24  25
HETATM   25  C           1      48.638 -31.273   1.087  0.00  0.00     0.077 C 
BRANCH  25  26
HETATM   26  C           1      48.820 -31.186  -0.437  0.00  0.00     0.010 C 
BRANCH  26  27
HETATM   27  C           1      49.673 -29.969  -0.836  0.00  0.00    -0.004 C 
HETATM   28  C           1      50.550 -30.263  -2.061  0.00  0.00     0.005 C 
ENDBRANCH  26  27
ENDBRANCH  25  26
ENDBRANCH  24  25
ENDBRANCH   2  24
BRANCH   5  29
HETATM   29  C           1      43.278 -30.062   0.616  0.00  0.00     0.105 C 
HETATM   30  N           1      42.677 -29.080   0.742  0.00  0.00    -0.151 N 
ENDBRANCH   5  29
BRANCH   9  31
HETATM   31  C           1      45.012 -30.036  -1.737  0.00  0.00    -0.026 A 
HETATM   32  C           1      43.977 -29.793  -2.566  0.00  0.00     0.009 A 
HETATM   33  C           1      44.055 -28.867  -3.533  0.00  0.00     0.001 A 
HETATM   34  C           1      45.179 -28.153  -3.687  0.00  0.00     0.000 A 
HETATM   35  C           1      46.214 -28.369  -2.863  0.00  0.00     0.001 A 
HETATM   36  C           1      46.126 -29.299  -1.898  0.00  0.00     0.009 A 
ENDBRANCH   9  31
TORSDOF 10
ENDMDL
MODEL 9
REMARK VINA RESULT:      -5.9     10.347     13.295
REMARK  10 active torsions:
REMARK  status: ('A' for Active; 'I' for Inactive)
REMARK    1  A    between atoms: C_1  and  C_8 
REMARK    2  A    between atoms: C_1  and  S_9 
REMARK    3  A    between atoms: C_3  and  C_24 
REMARK    4  A    between atoms: C_7  and  C_8 
REMARK    5  A    between atoms: S_9  and  C_10 
REMARK    6  A    between atoms: C_10  and  S_11 
REMARK    7  A    between atoms: S_11  and  C_12 
REMARK    8  A    between atoms: C_12  and  C_13 
REMARK    9  A    between atoms: C_13  and  C_14 
REMARK   10  A    between atoms: C_18  and  C_19 
ROOT
HETATM    1  C           1      40.787  -6.999  11.184  0.00  0.00     0.092 C 
HETATM    2  C           1      40.340  -5.148  12.642  0.00  0.00     0.156 C 
HETATM    3  N           1      40.557  -5.714  11.233  0.00  0.00    -0.350 N 
HETATM    4  N           1      41.050  -7.639  10.123  0.00  0.00    -0.388 N 
HETATM    5  C           1      40.744  -7.582  12.572  0.00  0.00     0.127 C 
HETATM    6  C           1      40.020  -6.485  13.405  0.00  0.00     0.136 C 
HETATM    7  C           1      38.548  -6.752  13.384  0.00  0.00     0.079 C 
HETATM    8  N           1      37.436  -7.078  13.374  0.00  0.00    -0.196 NA
HETATM    9  C           1      42.110  -8.001  13.260  0.00  0.00     0.248 C 
HETATM   10  N           1      41.879  -8.599  14.676  0.00  0.00    -0.040 N 
HETATM   11  C           1      41.183  -7.573  15.433  0.00  0.00     0.105 C 
HETATM   12  C           1      41.435  -7.596  16.920  0.00  0.00     0.075 C 
HETATM   13  C           1      40.406  -6.619  14.873  0.00  0.00     0.036 C 
HETATM   14  H           1      40.553  -5.123  10.391  0.00  0.00     0.163 HD
HETATM   15  H           1      41.298  -8.660  10.165  0.00  0.00     0.157 HD
HETATM   16  H           1      41.060  -7.155   9.192  0.00  0.00     0.157 HD
HETATM   17  H           1      42.817  -8.750  15.112  0.00  0.00     0.284 HD
HETATM   18  H           1      41.370  -9.505  14.691  0.00  0.00     0.284 HD
ENDROOT
BRANCH   2  19
HETATM   19  S           1      38.929  -3.997  12.559  0.00  0.00    -0.125 SA
BRANCH  19  20
HETATM   20  C           1      38.996  -3.144  14.163  0.00  0.00     0.077 C 
BRANCH  20  21
HETATM   21  C           1      37.703  -3.441  14.939  0.00  0.00     0.010 C 
BRANCH  21  22
HETATM   22  C           1      37.986  -4.241  16.222  0.00  0.00    -0.004 C 
HETATM   23  C           1      39.277  -3.778  16.910  0.00  0.00     0.005 C 
ENDBRANCH  21  22
ENDBRANCH  20  21
ENDBRANCH  19  20
ENDBRANCH   2  19
BRANCH   2  24
HETATM   24  S           1      41.922  -4.472  13.252  0.00  0.00    -0.125 SA
BRANCH  24  25
HETATM   25  C           1      42.659  -3.883  11.695  0.00  0.00     0.077 C 
BRANCH  25  26
HETATM   26  C           1      42.855  -2.360  11.789  0.00  0.00     0.010 C 
BRANCH  26  27
HETATM   27  C           1      43.196  -1.920  13.223  0.00  0.00    -0.004 C 
HETATM   28  C           1      42.636  -0.528  13.542  0.00  0.00     0.005 C 
ENDBRANCH  26  27
ENDBRANCH  25  26
ENDBRANCH  24  25
ENDBRANCH   2  24
BRANCH   5  29
HETATM   29  C           1      40.051  -8.879  12.754  0.00  0.00     0.105 C 
HETATM   30  N           1      39.516  -9.652  12.077  0.00  0.00    -0.151 N 
ENDBRANCH   5  29
BRANCH   9  31
HETATM   31  C           1      42.951  -8.930  12.395  0.00  0.00    -0.026 A 
HETATM   32  C           1      42.858 -10.263  12.569  0.00  0.00     0.009 A 
HETATM   33  C           1      43.586 -11.118  11.835  0.00  0.00     0.001 A 
HETATM   34  C           1      44.423 -10.651  10.897  0.00  0.00     0.000 A 
HETATM   35  C           1      44.518  -9.329  10.700  0.00  0.00     0.001 A 
HETATM   36  C           1      43.786  -8.481  11.441  0.00  0.00     0.009 A 
ENDBRANCH   9  31
TORSDOF 10
ENDMDL
MODEL 10
REMARK VINA RESULT:      -5.9      2.152      6.848
REMARK  10 active torsions:
REMARK  status: ('A' for Active; 'I' for Inactive)
REMARK    1  A    between atoms: C_1  and  C_8 
REMARK    2  A    between atoms: C_1  and  S_9 
REMARK    3  A    between atoms: C_3  and  C_24 
REMARK    4  A    between atoms: C_7  and  C_8 
REMARK    5  A    between atoms: S_9  and  C_10 
REMARK    6  A    between atoms: C_10  and  S_11 
REMARK    7  A    between atoms: S_11  and  C_12 
REMARK    8  A    between atoms: C_12  and  C_13 
REMARK    9  A    between atoms: C_13  and  C_14 
REMARK   10  A    between atoms: C_18  and  C_19 
ROOT
HETATM    1  C           1      41.497 -10.914   2.344  0.00  0.00     0.092 C 
HETATM    2  C           1      42.425 -12.829   3.450  0.00  0.00     0.156 C 
HETATM    3  N           1      42.471 -11.335   3.106  0.00  0.00    -0.350 N 
HETATM    4  N           1      41.393  -9.731   1.904  0.00  0.00    -0.388 N 
HETATM    5  C           1      40.559 -12.050   2.034  0.00  0.00     0.127 C 
HETATM    6  C           1      40.919 -13.122   3.104  0.00  0.00     0.136 C 
HETATM    7  C           1      40.061 -12.911   4.311  0.00  0.00     0.079 C 
HETATM    8  N           1      39.306 -12.719   5.169  0.00  0.00    -0.196 NA
HETATM    9  C           1      40.585 -12.678   0.578  0.00  0.00     0.248 C 
HETATM   10  N           1      39.544 -13.822   0.428  0.00  0.00    -0.040 N 
HETATM   11  C           1      39.880 -14.803   1.446  0.00  0.00     0.105 C 
HETATM   12  C           1      39.514 -16.226   1.108  0.00  0.00     0.075 C 
HETATM   13  C           1      40.523 -14.503   2.597  0.00  0.00     0.036 C 
HETATM   14  H           1      43.228 -10.715   3.424  0.00  0.00     0.163 HD
HETATM   15  H           1      40.623  -9.478   1.235  0.00  0.00     0.157 HD
HETATM   16  H           1      42.092  -8.995   2.169  0.00  0.00     0.157 HD
HETATM   17  H           1      39.689 -14.261  -0.510  0.00  0.00     0.284 HD
HETATM   18  H           1      38.551 -13.522   0.490  0.00  0.00     0.284 HD
ENDROOT
BRANCH   2  19
HETATM   19  S           1      42.814 -12.996   5.222  0.00  0.00    -0.125 SA
BRANCH  19  20
HETATM   20  C           1      44.011 -11.658   5.511  0.00  0.00     0.077 C 
BRANCH  20  21
HETATM   21  C           1      44.889 -12.029   6.717  0.00  0.00     0.010 C 
BRANCH  21  22
HETATM   22  C           1      45.908 -10.922   7.035  0.00  0.00    -0.004 C 
HETATM   23  C           1      45.770 -10.415   8.477  0.00  0.00     0.005 C 
ENDBRANCH  21  22
ENDBRANCH  20  21
ENDBRANCH  19  20
ENDBRANCH   2  19
BRANCH   2  24
HETATM   24  S           1      43.497 -13.732   2.281  0.00  0.00    -0.125 SA
BRANCH  24  25
HETATM   25  C           1      43.408 -15.414   2.972  0.00  0.00     0.077 C 
BRANCH  25  26
HETATM   26  C           1      43.315 -16.418   1.812  0.00  0.00     0.010 C 
BRANCH  26  27
HETATM   27  C           1      43.057 -17.847   2.319  0.00  0.00    -0.004 C 
HETATM   28  C           1      43.556 -18.042   3.757  0.00  0.00     0.005 C 
ENDBRANCH  26  27
ENDBRANCH  25  26
ENDBRANCH  24  25
ENDBRANCH   2  24
BRANCH   5  29
HETATM   29  C           1      39.103 -11.776   2.081  0.00  0.00     0.105 C 
HETATM   30  N           1      38.423 -10.861   2.285  0.00  0.00    -0.151 N 
ENDBRANCH   5  29
BRANCH   9  31
HETATM   31  C           1      40.427 -11.637  -0.521  0.00  0.00    -0.026 A 
HETATM   32  C           1      39.202 -11.379  -1.021  0.00  0.00     0.009 A 
HETATM   33  C           1      39.017 -10.475  -1.995  0.00  0.00     0.001 A 
HETATM   34  C           1      40.065  -9.799  -2.487  0.00  0.00     0.000 A 
HETATM   35  C           1      41.289 -10.030  -1.993  0.00  0.00     0.001 A 
HETATM   36  C           1      41.464 -10.938  -1.018  0.00  0.00     0.009 A 
ENDBRANCH   9  31
TORSDOF 10
ENDMDL
