MODEL 1
REMARK VINA RESULT:      -8.1      0.000      0.000
REMARK  6 active torsions:
REMARK  status: ('A' for Active; 'I' for Inactive)
REMARK    1  A    between atoms: C_4  and  O_5 
REMARK    2  A    between atoms: O_5  and  C_6 
REMARK    3  A    between atoms: C_7  and  N_8 
REMARK       I    between atoms: N_8  and  C_9 
REMARK       I    between atoms: C_9  and  N_10 
REMARK    4  A    between atoms: N_10  and  C_11 
REMARK    5  A    between atoms: C_11  and  C_12 
REMARK    6  A    between atoms: C_12  and  C_13 
ROOT
HETATM    1  C   UNL     1      43.533 -17.954   3.144  1.00  0.00     0.106 C 
HETATM    2  C   UNL     1      44.043 -18.532   4.312  1.00  0.00     0.109 C 
HETATM    3  C   UNL     1      44.183 -19.923   4.351  1.00  0.00     0.145 C 
HETATM    4  F   UNL     1      44.735 -20.507   5.425  1.00  0.00    -0.204 F 
HETATM    5  C   UNL     1      43.718 -20.731   3.315  1.00  0.00     0.045 C 
HETATM    6  C   UNL     1      43.118 -20.148   2.201  1.00  0.00     0.006 C 
HETATM    7  C   UNL     1      43.027 -18.759   2.113  1.00  0.00     0.040 C 
ENDROOT
BRANCH   2   8
HETATM    8  N   UNL     1      44.477 -17.799   5.437  1.00  0.00    -0.304 N 
HETATM    9  C   UNL     1      43.742 -16.979   6.248  1.00  0.00     0.320 C 
HETATM   10  N   UNL     1      42.420 -16.827   5.960  1.00  0.00    -0.342 N 
HETATM   11  O   UNL     1      44.251 -16.549   7.283  1.00  0.00    -0.247 OA
HETATM   12  H   UNL     1      42.162 -16.790   4.981  1.00  0.00     0.164 HD
HETATM   13  H   UNL     1      45.240 -18.205   5.968  1.00  0.00     0.171 HD
BRANCH  10  14
HETATM   14  C   UNL     1      41.501 -16.175   6.878  1.00  0.00     0.132 C 
BRANCH  14  15
HETATM   15  C   UNL     1      40.445 -15.325   6.175  1.00  0.00     0.102 C 
BRANCH  15  16
HETATM   16  C   UNL     1      41.035 -14.139   5.497  1.00  0.00     0.148 A 
HETATM   17  N   UNL     1      40.308 -13.294   4.752  1.00  0.00    -0.158 NA
HETATM   18  N   UNL     1      41.239 -12.417   4.347  1.00  0.00    -0.270 N 
HETATM   19  H   UNL     1      40.968 -11.642   3.753  1.00  0.00     0.190 HD
HETATM   20  C   UNL     1      42.465 -12.742   4.833  1.00  0.00     0.227 A 
HETATM   21  N   UNL     1      42.372 -13.826   5.567  1.00  0.00    -0.226 NA
ENDBRANCH  15  16
ENDBRANCH  14  15
ENDBRANCH  10  14
ENDBRANCH   2   8
BRANCH   1  22
HETATM   22  O   UNL     1      43.540 -16.583   3.008  1.00  0.00    -0.309 OA
BRANCH  22  23
HETATM   23  C   UNL     1      42.409 -15.977   2.496  1.00  0.00     0.076 A 
HETATM   24  C   UNL     1      42.631 -14.837   1.720  1.00  0.00     0.037 A 
HETATM   25  C   UNL     1      41.558 -14.141   1.161  1.00  0.00     0.003 A 
HETATM   26  C   UNL     1      40.254 -14.589   1.368  1.00  0.00     0.000 A 
HETATM   27  C   UNL     1      40.026 -15.743   2.116  1.00  0.00     0.003 A 
HETATM   28  C   UNL     1      41.101 -16.443   2.670  1.00  0.00     0.037 A 
ENDBRANCH  22  23
ENDBRANCH   1  22
TORSDOF 6
ENDMDL
MODEL 2
REMARK VINA RESULT:      -7.9      2.779      4.837
REMARK  6 active torsions:
REMARK  status: ('A' for Active; 'I' for Inactive)
REMARK    1  A    between atoms: C_4  and  O_5 
REMARK    2  A    between atoms: O_5  and  C_6 
REMARK    3  A    between atoms: C_7  and  N_8 
REMARK       I    between atoms: N_8  and  C_9 
REMARK       I    between atoms: C_9  and  N_10 
REMARK    4  A    between atoms: N_10  and  C_11 
REMARK    5  A    between atoms: C_11  and  C_12 
REMARK    6  A    between atoms: C_12  and  C_13 
ROOT
HETATM    1  C   UNL     1      42.995 -16.333   3.045  1.00  0.00     0.106 C 
HETATM    2  C   UNL     1      41.742 -16.079   3.615  1.00  0.00     0.109 C 
HETATM    3  C   UNL     1      40.732 -15.580   2.787  1.00  0.00     0.145 C 
HETATM    4  F   UNL     1      39.498 -15.392   3.281  1.00  0.00    -0.204 F 
HETATM    5  C   UNL     1      40.983 -15.226   1.463  1.00  0.00     0.045 C 
HETATM    6  C   UNL     1      42.263 -15.388   0.936  1.00  0.00     0.006 C 
HETATM    7  C   UNL     1      43.270 -15.945   1.726  1.00  0.00     0.040 C 
ENDROOT
BRANCH   2   8
HETATM    8  N   UNL     1      41.415 -16.343   4.962  1.00  0.00    -0.304 N 
HETATM    9  C   UNL     1      41.943 -15.776   6.089  1.00  0.00     0.320 C 
HETATM   10  N   UNL     1      42.913 -14.834   5.926  1.00  0.00    -0.342 N 
HETATM   11  O   UNL     1      41.419 -16.010   7.178  1.00  0.00    -0.247 OA
HETATM   12  H   UNL     1      43.580 -14.984   5.178  1.00  0.00     0.164 HD
HETATM   13  H   UNL     1      40.457 -16.624   5.142  1.00  0.00     0.171 HD
BRANCH  10  14
HETATM   14  C   UNL     1      43.376 -14.006   7.027  1.00  0.00     0.132 C 
BRANCH  14  15
HETATM   15  C   UNL     1      43.215 -12.510   6.767  1.00  0.00     0.102 C 
BRANCH  15  16
HETATM   16  C   UNL     1      44.449 -11.744   7.096  1.00  0.00     0.148 A 
HETATM   17  N   UNL     1      45.406 -11.492   6.193  1.00  0.00    -0.158 NA
HETATM   18  N   UNL     1      46.299 -10.809   6.926  1.00  0.00    -0.270 N 
HETATM   19  H   UNL     1      47.151 -10.477   6.489  1.00  0.00     0.190 HD
HETATM   20  C   UNL     1      45.879 -10.673   8.210  1.00  0.00     0.227 A 
HETATM   21  N   UNL     1      44.710 -11.253   8.352  1.00  0.00    -0.226 NA
ENDBRANCH  15  16
ENDBRANCH  14  15
ENDBRANCH  10  14
ENDBRANCH   2   8
BRANCH   1  22
HETATM   22  O   UNL     1      43.958 -16.980   3.788  1.00  0.00    -0.309 OA
BRANCH  22  23
HETATM   23  C   UNL     1      43.923 -18.360   3.834  1.00  0.00     0.076 A 
HETATM   24  C   UNL     1      44.062 -18.929   5.102  1.00  0.00     0.037 A 
HETATM   25  C   UNL     1      44.050 -20.315   5.261  1.00  0.00     0.003 A 
HETATM   26  C   UNL     1      43.888 -21.142   4.151  1.00  0.00     0.000 A 
HETATM   27  C   UNL     1      43.717 -20.582   2.887  1.00  0.00     0.003 A 
HETATM   28  C   UNL     1      43.723 -19.193   2.728  1.00  0.00     0.037 A 
ENDBRANCH  22  23
ENDBRANCH   1  22
TORSDOF 6
ENDMDL
MODEL 3
REMARK VINA RESULT:      -7.8      2.708      5.457
REMARK  6 active torsions:
REMARK  status: ('A' for Active; 'I' for Inactive)
REMARK    1  A    between atoms: C_4  and  O_5 
REMARK    2  A    between atoms: O_5  and  C_6 
REMARK    3  A    between atoms: C_7  and  N_8 
REMARK       I    between atoms: N_8  and  C_9 
REMARK       I    between atoms: C_9  and  N_10 
REMARK    4  A    between atoms: N_10  and  C_11 
REMARK    5  A    between atoms: C_11  and  C_12 
REMARK    6  A    between atoms: C_12  and  C_13 
ROOT
HETATM    1  C   UNL     1      42.510 -15.322   5.357  1.00  0.00     0.106 C 
HETATM    2  C   UNL     1      42.326 -13.935   5.356  1.00  0.00     0.109 C 
HETATM    3  C   UNL     1      41.178 -13.423   5.967  1.00  0.00     0.145 C 
HETATM    4  F   UNL     1      41.003 -12.095   6.049  1.00  0.00    -0.204 F 
HETATM    5  C   UNL     1      40.178 -14.261   6.457  1.00  0.00     0.045 C 
HETATM    6  C   UNL     1      40.326 -15.643   6.360  1.00  0.00     0.006 C 
HETATM    7  C   UNL     1      41.494 -16.175   5.812  1.00  0.00     0.040 C 
ENDROOT
BRANCH   2   8
HETATM    8  N   UNL     1      43.252 -13.012   4.824  1.00  0.00    -0.304 N 
HETATM    9  C   UNL     1      43.203 -12.361   3.622  1.00  0.00     0.320 C 
HETATM   10  N   UNL     1      42.140 -12.615   2.809  1.00  0.00    -0.342 N 
HETATM   11  O   UNL     1      44.016 -11.465   3.394  1.00  0.00    -0.247 OA
HETATM   12  H   UNL     1      41.795 -13.567   2.786  1.00  0.00     0.164 HD
HETATM   13  H   UNL     1      43.751 -12.441   5.497  1.00  0.00     0.171 HD
BRANCH  10  14
HETATM   14  C   UNL     1      41.866 -11.817   1.627  1.00  0.00     0.132 C 
BRANCH  14  15
HETATM   15  C   UNL     1      40.737 -12.379   0.766  1.00  0.00     0.102 C 
BRANCH  15  16
HETATM   16  C   UNL     1      40.231 -13.681   1.279  1.00  0.00     0.148 A 
HETATM   17  N   UNL     1      39.448 -13.777   2.362  1.00  0.00    -0.158 NA
HETATM   18  N   UNL     1      39.262 -15.103   2.448  1.00  0.00    -0.270 N 
HETATM   19  H   UNL     1      38.689 -15.479   3.195  1.00  0.00     0.190 HD
HETATM   20  C   UNL     1      39.917 -15.756   1.453  1.00  0.00     0.227 A 
HETATM   21  N   UNL     1      40.540 -14.886   0.695  1.00  0.00    -0.226 NA
ENDBRANCH  15  16
ENDBRANCH  14  15
ENDBRANCH  10  14
ENDBRANCH   2   8
BRANCH   1  22
HETATM   22  O   UNL     1      43.705 -15.847   4.916  1.00  0.00    -0.309 OA
BRANCH  22  23
HETATM   23  C   UNL     1      43.665 -17.001   4.156  1.00  0.00     0.076 A 
HETATM   24  C   UNL     1      44.229 -18.134   4.745  1.00  0.00     0.037 A 
HETATM   25  C   UNL     1      44.250 -19.351   4.062  1.00  0.00     0.003 A 
HETATM   26  C   UNL     1      43.696 -19.442   2.786  1.00  0.00     0.000 A 
HETATM   27  C   UNL     1      43.104 -18.324   2.204  1.00  0.00     0.003 A 
HETATM   28  C   UNL     1      43.077 -17.107   2.891  1.00  0.00     0.037 A 
ENDBRANCH  22  23
ENDBRANCH   1  22
TORSDOF 6
ENDMDL
MODEL 4
REMARK VINA RESULT:      -7.7      3.440      5.697
REMARK  6 active torsions:
REMARK  status: ('A' for Active; 'I' for Inactive)
REMARK    1  A    between atoms: C_4  and  O_5 
REMARK    2  A    between atoms: O_5  and  C_6 
REMARK    3  A    between atoms: C_7  and  N_8 
REMARK       I    between atoms: N_8  and  C_9 
REMARK       I    between atoms: C_9  and  N_10 
REMARK    4  A    between atoms: N_10  and  C_11 
REMARK    5  A    between atoms: C_11  and  C_12 
REMARK    6  A    between atoms: C_12  and  C_13 
ROOT
HETATM    1  C   UNL     1      42.357 -15.176   5.119  1.00  0.00     0.106 C 
HETATM    2  C   UNL     1      41.952 -13.869   4.827  1.00  0.00     0.109 C 
HETATM    3  C   UNL     1      40.817 -13.372   5.475  1.00  0.00     0.145 C 
HETATM    4  F   UNL     1      40.440 -12.099   5.276  1.00  0.00    -0.204 F 
HETATM    5  C   UNL     1      40.033 -14.181   6.295  1.00  0.00     0.045 C 
HETATM    6  C   UNL     1      40.390 -15.513   6.496  1.00  0.00     0.006 C 
HETATM    7  C   UNL     1      41.555 -16.011   5.910  1.00  0.00     0.040 C 
ENDROOT
BRANCH   2   8
HETATM    8  N   UNL     1      42.645 -12.998   3.960  1.00  0.00    -0.304 N 
HETATM    9  C   UNL     1      43.631 -12.102   4.269  1.00  0.00     0.320 C 
HETATM   10  N   UNL     1      44.014 -12.011   5.573  1.00  0.00    -0.342 N 
HETATM   11  O   UNL     1      44.238 -11.541   3.357  1.00  0.00    -0.247 OA
HETATM   12  H   UNL     1      43.288 -12.097   6.275  1.00  0.00     0.164 HD
HETATM   13  H   UNL     1      42.770 -13.322   3.007  1.00  0.00     0.171 HD
BRANCH  10  14
HETATM   14  C   UNL     1      45.198 -11.273   5.979  1.00  0.00     0.132 C 
BRANCH  14  15
HETATM   15  C   UNL     1      45.449 -11.312   7.485  1.00  0.00     0.102 C 
BRANCH  15  16
HETATM   16  C   UNL     1      44.331 -10.707   8.259  1.00  0.00     0.148 A 
HETATM   17  N   UNL     1      44.089 -11.015   9.541  1.00  0.00    -0.158 NA
HETATM   18  N   UNL     1      43.011 -10.260   9.803  1.00  0.00    -0.270 N 
HETATM   19  H   UNL     1      42.597 -10.288  10.728  1.00  0.00     0.190 HD
HETATM   20  C   UNL     1      42.636  -9.543   8.713  1.00  0.00     0.227 A 
HETATM   21  N   UNL     1      43.451  -9.801   7.718  1.00  0.00    -0.226 NA
ENDBRANCH  15  16
ENDBRANCH  14  15
ENDBRANCH  10  14
ENDBRANCH   2   8
BRANCH   1  22
HETATM   22  O   UNL     1      43.560 -15.637   4.630  1.00  0.00    -0.309 OA
BRANCH  22  23
HETATM   23  C   UNL     1      43.576 -16.868   4.003  1.00  0.00     0.076 A 
HETATM   24  C   UNL     1      44.241 -17.888   4.687  1.00  0.00     0.037 A 
HETATM   25  C   UNL     1      44.325 -19.170   4.140  1.00  0.00     0.003 A 
HETATM   26  C   UNL     1      43.733 -19.440   2.907  1.00  0.00     0.000 A 
HETATM   27  C   UNL     1      43.041 -18.437   2.234  1.00  0.00     0.003 A 
HETATM   28  C   UNL     1      42.951 -17.155   2.785  1.00  0.00     0.037 A 
ENDBRANCH  22  23
ENDBRANCH   1  22
TORSDOF 6
ENDMDL
MODEL 5
REMARK VINA RESULT:      -7.6      2.170      4.546
REMARK  6 active torsions:
REMARK  status: ('A' for Active; 'I' for Inactive)
REMARK    1  A    between atoms: C_4  and  O_5 
REMARK    2  A    between atoms: O_5  and  C_6 
REMARK    3  A    between atoms: C_7  and  N_8 
REMARK       I    between atoms: N_8  and  C_9 
REMARK       I    between atoms: C_9  and  N_10 
REMARK    4  A    between atoms: N_10  and  C_11 
REMARK    5  A    between atoms: C_11  and  C_12 
REMARK    6  A    between atoms: C_12  and  C_13 
ROOT
HETATM    1  C   UNL     1      42.898 -16.348   3.895  1.00  0.00     0.106 C 
HETATM    2  C   UNL     1      42.132 -15.799   4.930  1.00  0.00     0.109 C 
HETATM    3  C   UNL     1      40.899 -15.226   4.604  1.00  0.00     0.145 C 
HETATM    4  F   UNL     1      40.105 -14.753   5.577  1.00  0.00    -0.204 F 
HETATM    5  C   UNL     1      40.487 -15.089   3.280  1.00  0.00     0.045 C 
HETATM    6  C   UNL     1      41.306 -15.549   2.251  1.00  0.00     0.006 C 
HETATM    7  C   UNL     1      42.511 -16.182   2.558  1.00  0.00     0.040 C 
ENDROOT
BRANCH   2   8
HETATM    8  N   UNL     1      42.499 -15.831   6.292  1.00  0.00    -0.304 N 
HETATM    9  C   UNL     1      43.180 -14.886   7.009  1.00  0.00     0.320 C 
HETATM   10  N   UNL     1      43.571 -13.758   6.353  1.00  0.00    -0.342 N 
HETATM   11  O   UNL     1      43.268 -15.010   8.230  1.00  0.00    -0.247 OA
HETATM   12  H   UNL     1      43.884 -13.866   5.395  1.00  0.00     0.164 HD
HETATM   13  H   UNL     1      41.877 -16.340   6.911  1.00  0.00     0.171 HD
BRANCH  10  14
HETATM   14  C   UNL     1      44.089 -12.597   7.057  1.00  0.00     0.132 C 
BRANCH  14  15
HETATM   15  C   UNL     1      43.928 -11.295   6.278  1.00  0.00     0.102 C 
BRANCH  15  16
HETATM   16  C   UNL     1      43.246 -11.500   4.970  1.00  0.00     0.148 A 
HETATM   17  N   UNL     1      41.923 -11.683   4.865  1.00  0.00    -0.158 NA
HETATM   18  N   UNL     1      41.773 -11.835   3.540  1.00  0.00    -0.270 N 
HETATM   19  H   UNL     1      40.848 -11.991   3.159  1.00  0.00     0.190 HD
HETATM   20  C   UNL     1      42.967 -11.748   2.898  1.00  0.00     0.227 A 
HETATM   21  N   UNL     1      43.920 -11.535   3.774  1.00  0.00    -0.226 NA
ENDBRANCH  15  16
ENDBRANCH  14  15
ENDBRANCH  10  14
ENDBRANCH   2   8
BRANCH   1  22
HETATM   22  O   UNL     1      44.032 -17.067   4.201  1.00  0.00    -0.309 OA
BRANCH  22  23
HETATM   23  C   UNL     1      43.967 -18.445   4.123  1.00  0.00     0.076 A 
HETATM   24  C   UNL     1      43.972 -19.122   5.345  1.00  0.00     0.037 A 
HETATM   25  C   UNL     1      43.919 -20.516   5.382  1.00  0.00     0.003 A 
HETATM   26  C   UNL     1      43.850 -21.242   4.194  1.00  0.00     0.000 A 
HETATM   27  C   UNL     1      43.812 -20.573   2.972  1.00  0.00     0.003 A 
HETATM   28  C   UNL     1      43.859 -19.176   2.935  1.00  0.00     0.037 A 
ENDBRANCH  22  23
ENDBRANCH   1  22
TORSDOF 6
ENDMDL
MODEL 6
REMARK VINA RESULT:      -7.5      2.214      4.910
REMARK  6 active torsions:
REMARK  status: ('A' for Active; 'I' for Inactive)
REMARK    1  A    between atoms: C_4  and  O_5 
REMARK    2  A    between atoms: O_5  and  C_6 
REMARK    3  A    between atoms: C_7  and  N_8 
REMARK       I    between atoms: N_8  and  C_9 
REMARK       I    between atoms: C_9  and  N_10 
REMARK    4  A    between atoms: N_10  and  C_11 
REMARK    5  A    between atoms: C_11  and  C_12 
REMARK    6  A    between atoms: C_12  and  C_13 
ROOT
HETATM    1  C   UNL     1      43.154 -16.432   5.076  1.00  0.00     0.106 C 
HETATM    2  C   UNL     1      41.808 -16.084   5.246  1.00  0.00     0.109 C 
HETATM    3  C   UNL     1      41.424 -15.522   6.467  1.00  0.00     0.145 C 
HETATM    4  F   UNL     1      40.158 -15.110   6.641  1.00  0.00    -0.204 F 
HETATM    5  C   UNL     1      42.314 -15.418   7.534  1.00  0.00     0.045 C 
HETATM    6  C   UNL     1      43.625 -15.864   7.385  1.00  0.00     0.006 C 
HETATM    7  C   UNL     1      44.047 -16.368   6.155  1.00  0.00     0.040 C 
ENDROOT
BRANCH   2   8
HETATM    8  N   UNL     1      40.822 -16.215   4.246  1.00  0.00    -0.304 N 
HETATM    9  C   UNL     1      40.638 -15.443   3.132  1.00  0.00     0.320 C 
HETATM   10  N   UNL     1      41.497 -14.404   2.935  1.00  0.00    -0.342 N 
HETATM   11  O   UNL     1      39.825 -15.804   2.281  1.00  0.00    -0.247 OA
HETATM   12  H   UNL     1      41.799 -13.894   3.756  1.00  0.00     0.164 HD
HETATM   13  H   UNL     1      40.495 -17.157   4.062  1.00  0.00     0.171 HD
BRANCH  10  14
HETATM   14  C   UNL     1      41.542 -13.668   1.683  1.00  0.00     0.132 C 
BRANCH  14  15
HETATM   15  C   UNL     1      41.786 -12.173   1.870  1.00  0.00     0.102 C 
BRANCH  15  16
HETATM   16  C   UNL     1      42.412 -11.862   3.184  1.00  0.00     0.148 A 
HETATM   17  N   UNL     1      43.737 -11.892   3.380  1.00  0.00    -0.158 NA
HETATM   18  N   UNL     1      43.828 -11.567   4.679  1.00  0.00    -0.270 N 
HETATM   19  H   UNL     1      44.741 -11.509   5.114  1.00  0.00     0.190 HD
HETATM   20  C   UNL     1      42.600 -11.360   5.220  1.00  0.00     0.227 A 
HETATM   21  N   UNL     1      41.681 -11.538   4.301  1.00  0.00    -0.226 NA
ENDBRANCH  15  16
ENDBRANCH  14  15
ENDBRANCH  10  14
ENDBRANCH   2   8
BRANCH   1  22
HETATM   22  O   UNL     1      43.598 -16.830   3.835  1.00  0.00    -0.309 OA
BRANCH  22  23
HETATM   23  C   UNL     1      43.654 -18.185   3.569  1.00  0.00     0.076 A 
HETATM   24  C   UNL     1      43.204 -18.573   2.306  1.00  0.00     0.037 A 
HETATM   25  C   UNL     1      43.208 -19.919   1.936  1.00  0.00     0.003 A 
HETATM   26  C   UNL     1      43.674 -20.885   2.828  1.00  0.00     0.000 A 
HETATM   27  C   UNL     1      44.153 -20.501   4.078  1.00  0.00     0.003 A 
HETATM   28  C   UNL     1      44.155 -19.153   4.446  1.00  0.00     0.037 A 
ENDBRANCH  22  23
ENDBRANCH   1  22
TORSDOF 6
ENDMDL
MODEL 7
REMARK VINA RESULT:      -7.4      2.707      5.257
REMARK  6 active torsions:
REMARK  status: ('A' for Active; 'I' for Inactive)
REMARK    1  A    between atoms: C_4  and  O_5 
REMARK    2  A    between atoms: O_5  and  C_6 
REMARK    3  A    between atoms: C_7  and  N_8 
REMARK       I    between atoms: N_8  and  C_9 
REMARK       I    between atoms: C_9  and  N_10 
REMARK    4  A    between atoms: N_10  and  C_11 
REMARK    5  A    between atoms: C_11  and  C_12 
REMARK    6  A    between atoms: C_12  and  C_13 
ROOT
HETATM    1  C   UNL     1      41.803 -15.207   3.031  1.00  0.00     0.106 C 
HETATM    2  C   UNL     1      42.148 -14.079   2.279  1.00  0.00     0.109 C 
HETATM    3  C   UNL     1      41.300 -13.700   1.234  1.00  0.00     0.145 C 
HETATM    4  F   UNL     1      41.560 -12.583   0.537  1.00  0.00    -0.204 F 
HETATM    5  C   UNL     1      40.209 -14.481   0.862  1.00  0.00     0.045 C 
HETATM    6  C   UNL     1      39.935 -15.659   1.554  1.00  0.00     0.006 C 
HETATM    7  C   UNL     1      40.730 -16.022   2.642  1.00  0.00     0.040 C 
ENDROOT
BRANCH   2   8
HETATM    8  N   UNL     1      43.271 -13.264   2.540  1.00  0.00    -0.304 N 
HETATM    9  C   UNL     1      43.301 -12.020   3.108  1.00  0.00     0.320 C 
HETATM   10  N   UNL     1      42.113 -11.467   3.478  1.00  0.00    -0.342 N 
HETATM   11  O   UNL     1      44.387 -11.526   3.409  1.00  0.00    -0.247 OA
HETATM   12  H   UNL     1      41.318 -11.634   2.873  1.00  0.00     0.164 HD
HETATM   13  H   UNL     1      44.137 -13.750   2.744  1.00  0.00     0.171 HD
BRANCH  10  14
HETATM   14  C   UNL     1      42.043 -10.266   4.293  1.00  0.00     0.132 C 
BRANCH  14  15
HETATM   15  C   UNL     1      41.667 -10.543   5.747  1.00  0.00     0.102 C 
BRANCH  15  16
HETATM   16  C   UNL     1      41.336 -11.975   5.981  1.00  0.00     0.148 A 
HETATM   17  N   UNL     1      42.250 -12.875   6.367  1.00  0.00    -0.158 NA
HETATM   18  N   UNL     1      41.516 -13.997   6.435  1.00  0.00    -0.270 N 
HETATM   19  H   UNL     1      41.958 -14.865   6.713  1.00  0.00     0.190 HD
HETATM   20  C   UNL     1      40.222 -13.758   6.097  1.00  0.00     0.227 A 
HETATM   21  N   UNL     1      40.073 -12.488   5.805  1.00  0.00    -0.226 NA
ENDBRANCH  15  16
ENDBRANCH  14  15
ENDBRANCH  10  14
ENDBRANCH   2   8
BRANCH   1  22
HETATM   22  O   UNL     1      42.520 -15.509   4.168  1.00  0.00    -0.309 OA
BRANCH  22  23
HETATM   23  C   UNL     1      43.091 -16.764   4.260  1.00  0.00     0.076 A 
HETATM   24  C   UNL     1      43.116 -17.326   5.538  1.00  0.00     0.037 A 
HETATM   25  C   UNL     1      43.678 -18.587   5.746  1.00  0.00     0.003 A 
HETATM   26  C   UNL     1      44.211 -19.297   4.672  1.00  0.00     0.000 A 
HETATM   27  C   UNL     1      44.161 -18.757   3.389  1.00  0.00     0.003 A 
HETATM   28  C   UNL     1      43.592 -17.497   3.179  1.00  0.00     0.037 A 
ENDBRANCH  22  23
ENDBRANCH   1  22
TORSDOF 6
ENDMDL
MODEL 8
REMARK VINA RESULT:      -7.3      3.198      5.900
REMARK  6 active torsions:
REMARK  status: ('A' for Active; 'I' for Inactive)
REMARK    1  A    between atoms: C_4  and  O_5 
REMARK    2  A    between atoms: O_5  and  C_6 
REMARK    3  A    between atoms: C_7  and  N_8 
REMARK       I    between atoms: N_8  and  C_9 
REMARK       I    between atoms: C_9  and  N_10 
REMARK    4  A    between atoms: N_10  and  C_11 
REMARK    5  A    between atoms: C_11  and  C_12 
REMARK    6  A    between atoms: C_12  and  C_13 
ROOT
HETATM    1  C   UNL     1      42.062 -15.535   4.302  1.00  0.00     0.106 C 
HETATM    2  C   UNL     1      42.034 -14.185   4.671  1.00  0.00     0.109 C 
HETATM    3  C   UNL     1      41.241 -13.818   5.763  1.00  0.00     0.145 C 
HETATM    4  F   UNL     1      41.244 -12.546   6.191  1.00  0.00    -0.204 F 
HETATM    5  C   UNL     1      40.405 -14.735   6.397  1.00  0.00     0.045 C 
HETATM    6  C   UNL     1      40.366 -16.055   5.953  1.00  0.00     0.006 C 
HETATM    7  C   UNL     1      41.197 -16.457   4.907  1.00  0.00     0.040 C 
ENDROOT
BRANCH   2   8
HETATM    8  N   UNL     1      42.795 -13.174   4.046  1.00  0.00    -0.304 N 
HETATM    9  C   UNL     1      42.464 -12.416   2.956  1.00  0.00     0.320 C 
HETATM   10  N   UNL     1      41.253 -12.642   2.375  1.00  0.00    -0.342 N 
HETATM   11  O   UNL     1      43.183 -11.467   2.648  1.00  0.00    -0.247 OA
HETATM   12  H   UNL     1      40.934 -13.603   2.332  1.00  0.00     0.164 HD
HETATM   13  H   UNL     1      43.418 -12.647   4.648  1.00  0.00     0.171 HD
BRANCH  10  14
HETATM   14  C   UNL     1      40.703 -11.750   1.369  1.00  0.00     0.132 C 
BRANCH  14  15
HETATM   15  C   UNL     1      41.095 -12.130  -0.056  1.00  0.00     0.102 C 
BRANCH  15  16
HETATM   16  C   UNL     1      40.250 -13.227  -0.601  1.00  0.00     0.148 A 
HETATM   17  N   UNL     1      39.823 -14.253   0.149  1.00  0.00    -0.158 NA
HETATM   18  N   UNL     1      39.129 -14.974  -0.745  1.00  0.00    -0.270 N 
HETATM   19  H   UNL     1      38.677 -15.832  -0.449  1.00  0.00     0.190 HD
HETATM   20  C   UNL     1      39.156 -14.393  -1.972  1.00  0.00     0.227 A 
HETATM   21  N   UNL     1      39.856 -13.285  -1.916  1.00  0.00    -0.226 NA
ENDBRANCH  15  16
ENDBRANCH  14  15
ENDBRANCH  10  14
ENDBRANCH   2   8
BRANCH   1  22
HETATM   22  O   UNL     1      42.958 -15.955   3.343  1.00  0.00    -0.309 OA
BRANCH  22  23
HETATM   23  C   UNL     1      43.248 -17.305   3.276  1.00  0.00     0.076 A 
HETATM   24  C   UNL     1      43.975 -17.823   4.349  1.00  0.00     0.037 A 
HETATM   25  C   UNL     1      44.330 -19.172   4.379  1.00  0.00     0.003 A 
HETATM   26  C   UNL     1      43.949 -20.015   3.335  1.00  0.00     0.000 A 
HETATM   27  C   UNL     1      43.197 -19.512   2.276  1.00  0.00     0.003 A 
HETATM   28  C   UNL     1      42.836 -18.162   2.250  1.00  0.00     0.037 A 
ENDBRANCH  22  23
ENDBRANCH   1  22
TORSDOF 6
ENDMDL
MODEL 9
REMARK VINA RESULT:      -7.2      2.685      3.961
REMARK  6 active torsions:
REMARK  status: ('A' for Active; 'I' for Inactive)
REMARK    1  A    between atoms: C_4  and  O_5 
REMARK    2  A    between atoms: O_5  and  C_6 
REMARK    3  A    between atoms: C_7  and  N_8 
REMARK       I    between atoms: N_8  and  C_9 
REMARK       I    between atoms: C_9  and  N_10 
REMARK    4  A    between atoms: N_10  and  C_11 
REMARK    5  A    between atoms: C_11  and  C_12 
REMARK    6  A    between atoms: C_12  and  C_13 
ROOT
HETATM    1  C   UNL     1      40.973 -16.011   3.063  1.00  0.00     0.106 C 
HETATM    2  C   UNL     1      41.197 -16.011   4.445  1.00  0.00     0.109 C 
HETATM    3  C   UNL     1      42.350 -16.642   4.924  1.00  0.00     0.145 C 
HETATM    4  F   UNL     1      42.635 -16.600   6.235  1.00  0.00    -0.204 F 
HETATM    5  C   UNL     1      43.194 -17.358   4.079  1.00  0.00     0.045 C 
HETATM    6  C   UNL     1      42.903 -17.437   2.718  1.00  0.00     0.006 C 
HETATM    7  C   UNL     1      41.794 -16.761   2.209  1.00  0.00     0.040 C 
ENDROOT
BRANCH   2   8
HETATM    8  N   UNL     1      40.363 -15.369   5.385  1.00  0.00    -0.304 N 
HETATM    9  C   UNL     1      40.499 -14.120   5.925  1.00  0.00     0.320 C 
HETATM   10  N   UNL     1      41.568 -13.375   5.528  1.00  0.00    -0.342 N 
HETATM   11  O   UNL     1      39.584 -13.660   6.607  1.00  0.00    -0.247 OA
HETATM   12  H   UNL     1      42.441 -13.865   5.376  1.00  0.00     0.164 HD
HETATM   13  H   UNL     1      39.380 -15.618   5.353  1.00  0.00     0.171 HD
BRANCH  10  14
HETATM   14  C   UNL     1      41.687 -11.963   5.852  1.00  0.00     0.132 C 
BRANCH  14  15
HETATM   15  C   UNL     1      42.780 -11.250   5.060  1.00  0.00     0.102 C 
BRANCH  15  16
HETATM   16  C   UNL     1      44.076 -11.219   5.790  1.00  0.00     0.148 A 
HETATM   17  N   UNL     1      45.259 -11.167   5.162  1.00  0.00    -0.158 NA
HETATM   18  N   UNL     1      46.116 -11.171   6.195  1.00  0.00    -0.270 N 
HETATM   19  H   UNL     1      47.113 -11.134   6.015  1.00  0.00     0.190 HD
HETATM   20  C   UNL     1      45.457 -11.227   7.380  1.00  0.00     0.227 A 
HETATM   21  N   UNL     1      44.164 -11.258   7.161  1.00  0.00    -0.226 NA
ENDBRANCH  15  16
ENDBRANCH  14  15
ENDBRANCH  10  14
ENDBRANCH   2   8
BRANCH   1  22
HETATM   22  O   UNL     1      39.943 -15.258   2.545  1.00  0.00    -0.309 OA
BRANCH  22  23
HETATM   23  C   UNL     1      40.266 -14.207   1.708  1.00  0.00     0.076 A 
HETATM   24  C   UNL     1      40.000 -14.408   0.352  1.00  0.00     0.037 A 
HETATM   25  C   UNL     1      40.296 -13.414  -0.582  1.00  0.00     0.003 A 
HETATM   26  C   UNL     1      40.851 -12.207  -0.162  1.00  0.00     0.000 A 
HETATM   27  C   UNL     1      41.090 -11.986   1.193  1.00  0.00     0.003 A 
HETATM   28  C   UNL     1      40.788 -12.979   2.129  1.00  0.00     0.037 A 
ENDBRANCH  22  23
ENDBRANCH   1  22
TORSDOF 6
ENDMDL
MODEL 10
REMARK VINA RESULT:      -7.2      2.622      5.307
REMARK  6 active torsions:
REMARK  status: ('A' for Active; 'I' for Inactive)
REMARK    1  A    between atoms: C_4  and  O_5 
REMARK    2  A    between atoms: O_5  and  C_6 
REMARK    3  A    between atoms: C_7  and  N_8 
REMARK       I    between atoms: N_8  and  C_9 
REMARK       I    between atoms: C_9  and  N_10 
REMARK    4  A    between atoms: N_10  and  C_11 
REMARK    5  A    between atoms: C_11  and  C_12 
REMARK    6  A    between atoms: C_12  and  C_13 
ROOT
HETATM    1  C   UNL     1      43.105 -16.472   4.995  1.00  0.00     0.106 C 
HETATM    2  C   UNL     1      41.773 -16.118   5.236  1.00  0.00     0.109 C 
HETATM    3  C   UNL     1      41.447 -15.601   6.494  1.00  0.00     0.145 C 
HETATM    4  F   UNL     1      40.194 -15.184   6.738  1.00  0.00    -0.204 F 
HETATM    5  C   UNL     1      42.382 -15.548   7.525  1.00  0.00     0.045 C 
HETATM    6  C   UNL     1      43.681 -15.999   7.302  1.00  0.00     0.006 C 
HETATM    7  C   UNL     1      44.045 -16.459   6.036  1.00  0.00     0.040 C 
ENDROOT
BRANCH   2   8
HETATM    8  N   UNL     1      40.743 -16.200   4.274  1.00  0.00    -0.304 N 
HETATM    9  C   UNL     1      40.570 -15.438   3.152  1.00  0.00     0.320 C 
HETATM   10  N   UNL     1      41.489 -14.464   2.903  1.00  0.00    -0.342 N 
HETATM   11  O   UNL     1      39.704 -15.759   2.339  1.00  0.00    -0.247 OA
HETATM   12  H   UNL     1      41.855 -13.960   3.702  1.00  0.00     0.164 HD
HETATM   13  H   UNL     1      40.347 -17.121   4.122  1.00  0.00     0.171 HD
BRANCH  10  14
HETATM   14  C   UNL     1      41.537 -13.756   1.635  1.00  0.00     0.132 C 
BRANCH  14  15
HETATM   15  C   UNL     1      41.099 -12.297   1.741  1.00  0.00     0.102 C 
BRANCH  15  16
HETATM   16  C   UNL     1      39.697 -12.094   1.284  1.00  0.00     0.148 A 
HETATM   17  N   UNL     1      38.646 -12.194   2.110  1.00  0.00    -0.158 NA
HETATM   18  N   UNL     1      37.622 -11.953   1.277  1.00  0.00    -0.270 N 
HETATM   19  H   UNL     1      36.675 -11.960   1.637  1.00  0.00     0.190 HD
HETATM   20  C   UNL     1      38.060 -11.726   0.012  1.00  0.00     0.227 A 
HETATM   21  N   UNL     1      39.369 -11.808  -0.019  1.00  0.00    -0.226 NA
ENDBRANCH  15  16
ENDBRANCH  14  15
ENDBRANCH  10  14
ENDBRANCH   2   8
BRANCH   1  22
HETATM   22  O   UNL     1      43.492 -16.824   3.721  1.00  0.00    -0.309 OA
BRANCH  22  23
HETATM   23  C   UNL     1      43.562 -18.169   3.413  1.00  0.00     0.076 A 
HETATM   24  C   UNL     1      44.027 -19.001   4.434  1.00  0.00     0.037 A 
HETATM   25  C   UNL     1      44.145 -20.376   4.227  1.00  0.00     0.003 A 
HETATM   26  C   UNL     1      43.788 -20.929   2.999  1.00  0.00     0.000 A 
HETATM   27  C   UNL     1      43.293 -20.110   1.986  1.00  0.00     0.003 A 
HETATM   28  C   UNL     1      43.168 -18.733   2.195  1.00  0.00     0.037 A 
ENDBRANCH  22  23
ENDBRANCH   1  22
TORSDOF 6
ENDMDL
