MODEL 1
REMARK VINA RESULT:      -7.3      0.000      0.000
REMARK  6 active torsions:
REMARK  status: ('A' for Active; 'I' for Inactive)
REMARK    1  A    between atoms: N_2  and  C_3 
REMARK    2  A    between atoms: N_2  and  C_19 
REMARK    3  A    between atoms: C_4  and  N_5 
REMARK       I    between atoms: N_5  and  C_6 
REMARK    4  A    between atoms: C_6  and  C_7 
REMARK    5  A    between atoms: C_7  and  C_8 
REMARK    6  A    between atoms: C_19  and  C_20 
ROOT
HETATM    1  C   UNL     1      42.643 -16.795   4.370  1.00  0.00     0.037 A 
HETATM    2  C   UNL     1      42.359 -17.098   3.013  1.00  0.00     0.056 A 
HETATM    3  C   UNL     1      43.078 -18.091   2.346  1.00  0.00     0.031 A 
HETATM    4  C   UNL     1      44.079 -18.799   3.012  1.00  0.00     0.002 A 
HETATM    5  C   UNL     1      44.368 -18.515   4.342  1.00  0.00     0.002 A 
HETATM    6  C   UNL     1      43.660 -17.518   5.016  1.00  0.00     0.026 A 
ENDROOT
BRANCH   2   7
HETATM    7  N   UNL     1      41.295 -16.385   2.421  1.00  0.00    -0.325 N 
HETATM    8  C   UNL     1      41.355 -15.371   1.490  1.00  0.00     0.227 C 
HETATM    9  O   UNL     1      42.384 -14.843   1.068  1.00  0.00    -0.273 OA
HETATM   10  H   UNL     1      40.392 -16.634   2.820  1.00  0.00     0.169 HD
BRANCH   8  11
HETATM   11  C   UNL     1      39.974 -14.895   1.038  1.00  0.00     0.159 C 
BRANCH  11  12
HETATM   12  C   UNL     1      39.993 -14.386  -0.372  1.00  0.00     0.017 A 
HETATM   13  N   UNL     1      40.761 -13.305  -0.747  1.00  0.00    -0.369 N 
HETATM   14  H   UNL     1      41.401 -12.816  -0.128  1.00  0.00     0.165 HD
HETATM   15  C   UNL     1      40.575 -13.047  -2.079  1.00  0.00     0.088 A 
HETATM   16  C   UNL     1      39.681 -13.970  -2.570  1.00  0.00     0.019 A 
HETATM   17  C   UNL     1      39.312 -14.815  -1.495  1.00  0.00     0.027 A 
ENDBRANCH  11  12
ENDBRANCH   8  11
ENDBRANCH   2   7
BRANCH   1  18
HETATM   18  N   UNL     1      41.923 -15.745   5.013  1.00  0.00    -0.281 NA
HETATM   19  C   UNL     1      41.180 -16.171   6.202  1.00  0.00     0.117 C 
BRANCH  18  20
HETATM   20  C   UNL     1      42.780 -14.554   5.224  1.00  0.00     0.133 C 
BRANCH  20  21
HETATM   21  C   UNL     1      42.316 -13.403   4.353  1.00  0.00    -0.045 A 
HETATM   22  C   UNL     1      43.235 -12.634   3.622  1.00  0.00     0.008 A 
HETATM   23  C   UNL     1      42.801 -11.573   2.825  1.00  0.00     0.001 A 
HETATM   24  C   UNL     1      41.444 -11.272   2.743  1.00  0.00     0.000 A 
HETATM   25  C   UNL     1      40.520 -12.029   3.459  1.00  0.00     0.001 A 
HETATM   26  C   UNL     1      40.952 -13.088   4.261  1.00  0.00     0.008 A 
ENDBRANCH  20  21
ENDBRANCH  18  20
ENDBRANCH   1  18
TORSDOF 6
ENDMDL
MODEL 2
REMARK VINA RESULT:      -7.2      2.378      5.772
REMARK  6 active torsions:
REMARK  status: ('A' for Active; 'I' for Inactive)
REMARK    1  A    between atoms: N_2  and  C_3 
REMARK    2  A    between atoms: N_2  and  C_19 
REMARK    3  A    between atoms: C_4  and  N_5 
REMARK       I    between atoms: N_5  and  C_6 
REMARK    4  A    between atoms: C_6  and  C_7 
REMARK    5  A    between atoms: C_7  and  C_8 
REMARK    6  A    between atoms: C_19  and  C_20 
ROOT
HETATM    1  C   UNL     1      41.633 -12.811   3.692  1.00  0.00     0.037 A 
HETATM    2  C   UNL     1      41.188 -13.890   2.883  1.00  0.00     0.056 A 
HETATM    3  C   UNL     1      39.860 -13.950   2.454  1.00  0.00     0.031 A 
HETATM    4  C   UNL     1      38.962 -12.943   2.810  1.00  0.00     0.002 A 
HETATM    5  C   UNL     1      39.383 -11.879   3.601  1.00  0.00     0.002 A 
HETATM    6  C   UNL     1      40.707 -11.815   4.043  1.00  0.00     0.026 A 
ENDROOT
BRANCH   2   7
HETATM    7  N   UNL     1      42.164 -14.838   2.512  1.00  0.00    -0.325 N 
HETATM    8  C   UNL     1      42.282 -16.151   2.914  1.00  0.00     0.227 C 
HETATM    9  O   UNL     1      41.580 -16.709   3.759  1.00  0.00    -0.273 OA
HETATM   10  H   UNL     1      42.896 -14.434   1.932  1.00  0.00     0.169 HD
BRANCH   8  11
HETATM   11  C   UNL     1      43.440 -16.881   2.235  1.00  0.00     0.159 C 
BRANCH  11  12
HETATM   12  C   UNL     1      43.572 -18.293   2.721  1.00  0.00     0.017 A 
HETATM   13  N   UNL     1      44.053 -18.589   3.978  1.00  0.00    -0.369 N 
HETATM   14  H   UNL     1      44.296 -17.893   4.675  1.00  0.00     0.165 HD
HETATM   15  C   UNL     1      44.084 -19.947   4.151  1.00  0.00     0.088 A 
HETATM   16  C   UNL     1      43.618 -20.534   2.998  1.00  0.00     0.019 A 
HETATM   17  C   UNL     1      43.295 -19.493   2.094  1.00  0.00     0.027 A 
ENDBRANCH  11  12
ENDBRANCH   8  11
ENDBRANCH   2   7
BRANCH   1  18
HETATM   18  N   UNL     1      42.982 -12.800   4.154  1.00  0.00    -0.281 NA
HETATM   19  C   UNL     1      43.816 -11.766   3.535  1.00  0.00     0.117 C 
BRANCH  18  20
HETATM   20  C   UNL     1      43.046 -12.829   5.635  1.00  0.00     0.133 C 
BRANCH  20  21
HETATM   21  C   UNL     1      43.028 -14.257   6.141  1.00  0.00    -0.045 A 
HETATM   22  C   UNL     1      44.185 -15.050   6.106  1.00  0.00     0.008 A 
HETATM   23  C   UNL     1      44.161 -16.367   6.569  1.00  0.00     0.001 A 
HETATM   24  C   UNL     1      42.983 -16.904   7.080  1.00  0.00     0.000 A 
HETATM   25  C   UNL     1      41.828 -16.128   7.126  1.00  0.00     0.001 A 
HETATM   26  C   UNL     1      41.848 -14.812   6.657  1.00  0.00     0.008 A 
ENDBRANCH  20  21
ENDBRANCH  18  20
ENDBRANCH   1  18
TORSDOF 6
ENDMDL
MODEL 3
REMARK VINA RESULT:      -7.2      2.700      7.075
REMARK  6 active torsions:
REMARK  status: ('A' for Active; 'I' for Inactive)
REMARK    1  A    between atoms: N_2  and  C_3 
REMARK    2  A    between atoms: N_2  and  C_19 
REMARK    3  A    between atoms: C_4  and  N_5 
REMARK       I    between atoms: N_5  and  C_6 
REMARK    4  A    between atoms: C_6  and  C_7 
REMARK    5  A    between atoms: C_7  and  C_8 
REMARK    6  A    between atoms: C_19  and  C_20 
ROOT
HETATM    1  C   UNL     1      41.420 -13.723   2.084  1.00  0.00     0.037 A 
HETATM    2  C   UNL     1      42.161 -12.677   2.694  1.00  0.00     0.056 A 
HETATM    3  C   UNL     1      42.132 -11.388   2.161  1.00  0.00     0.031 A 
HETATM    4  C   UNL     1      41.368 -11.115   1.026  1.00  0.00     0.002 A 
HETATM    5  C   UNL     1      40.635 -12.129   0.418  1.00  0.00     0.002 A 
HETATM    6  C   UNL     1      40.664 -13.424   0.939  1.00  0.00     0.026 A 
ENDROOT
BRANCH   2   7
HETATM    7  N   UNL     1      42.862 -13.012   3.872  1.00  0.00    -0.325 N 
HETATM    8  C   UNL     1      42.465 -12.851   5.182  1.00  0.00     0.227 C 
HETATM    9  O   UNL     1      41.433 -12.293   5.556  1.00  0.00    -0.273 OA
HETATM   10  H   UNL     1      43.806 -13.339   3.681  1.00  0.00     0.169 HD
BRANCH   8  11
HETATM   11  C   UNL     1      43.480 -13.402   6.184  1.00  0.00     0.159 C 
BRANCH  11  12
HETATM   12  C   UNL     1      44.187 -12.305   6.922  1.00  0.00     0.017 A 
HETATM   13  N   UNL     1      43.611 -11.659   7.994  1.00  0.00    -0.369 N 
HETATM   14  H   UNL     1      42.711 -11.905   8.394  1.00  0.00     0.165 HD
HETATM   15  C   UNL     1      44.464 -10.696   8.464  1.00  0.00     0.088 A 
HETATM   16  C   UNL     1      45.601 -10.721   7.691  1.00  0.00     0.019 A 
HETATM   17  C   UNL     1      45.428 -11.735   6.718  1.00  0.00     0.027 A 
ENDBRANCH  11  12
ENDBRANCH   8  11
ENDBRANCH   2   7
BRANCH   1  18
HETATM   18  N   UNL     1      41.504 -15.041   2.623  1.00  0.00    -0.281 NA
HETATM   19  C   UNL     1      40.203 -15.664   2.883  1.00  0.00     0.117 C 
BRANCH  18  20
HETATM   20  C   UNL     1      42.439 -15.885   1.843  1.00  0.00     0.133 C 
BRANCH  20  21
HETATM   21  C   UNL     1      43.087 -16.925   2.734  1.00  0.00    -0.045 A 
HETATM   22  C   UNL     1      43.555 -16.591   4.015  1.00  0.00     0.008 A 
HETATM   23  C   UNL     1      44.155 -17.553   4.829  1.00  0.00     0.001 A 
HETATM   24  C   UNL     1      44.289 -18.863   4.377  1.00  0.00     0.000 A 
HETATM   25  C   UNL     1      43.826 -19.212   3.111  1.00  0.00     0.001 A 
HETATM   26  C   UNL     1      43.230 -18.249   2.292  1.00  0.00     0.008 A 
ENDBRANCH  20  21
ENDBRANCH  18  20
ENDBRANCH   1  18
TORSDOF 6
ENDMDL
MODEL 4
REMARK VINA RESULT:      -7.1      2.189      4.884
REMARK  6 active torsions:
REMARK  status: ('A' for Active; 'I' for Inactive)
REMARK    1  A    between atoms: N_2  and  C_3 
REMARK    2  A    between atoms: N_2  and  C_19 
REMARK    3  A    between atoms: C_4  and  N_5 
REMARK       I    between atoms: N_5  and  C_6 
REMARK    4  A    between atoms: C_6  and  C_7 
REMARK    5  A    between atoms: C_7  and  C_8 
REMARK    6  A    between atoms: C_19  and  C_20 
ROOT
HETATM    1  C   UNL     1      43.146 -17.575   3.035  1.00  0.00     0.037 A 
HETATM    2  C   UNL     1      43.638 -17.610   4.367  1.00  0.00     0.056 A 
HETATM    3  C   UNL     1      44.127 -18.801   4.907  1.00  0.00     0.031 A 
HETATM    4  C   UNL     1      44.143 -19.965   4.138  1.00  0.00     0.002 A 
HETATM    5  C   UNL     1      43.666 -19.946   2.832  1.00  0.00     0.002 A 
HETATM    6  C   UNL     1      43.166 -18.762   2.285  1.00  0.00     0.026 A 
ENDROOT
BRANCH   2   7
HETATM    7  N   UNL     1      43.647 -16.384   5.064  1.00  0.00    -0.325 N 
HETATM    8  C   UNL     1      42.747 -15.923   6.000  1.00  0.00     0.227 C 
HETATM    9  O   UNL     1      41.705 -16.487   6.334  1.00  0.00    -0.273 OA
HETATM   10  H   UNL     1      44.388 -15.763   4.746  1.00  0.00     0.169 HD
BRANCH   8  11
HETATM   11  C   UNL     1      43.138 -14.565   6.585  1.00  0.00     0.159 C 
BRANCH  11  12
HETATM   12  C   UNL     1      42.157 -13.494   6.213  1.00  0.00     0.017 A 
HETATM   13  N   UNL     1      40.821 -13.586   6.534  1.00  0.00    -0.369 N 
HETATM   14  H   UNL     1      40.415 -14.340   7.081  1.00  0.00     0.165 HD
HETATM   15  C   UNL     1      40.156 -12.486   6.061  1.00  0.00     0.088 A 
HETATM   16  C   UNL     1      41.071 -11.675   5.431  1.00  0.00     0.019 A 
HETATM   17  C   UNL     1      42.333 -12.309   5.526  1.00  0.00     0.027 A 
ENDBRANCH  11  12
ENDBRANCH   8  11
ENDBRANCH   2   7
BRANCH   1  18
HETATM   18  N   UNL     1      42.610 -16.355   2.525  1.00  0.00    -0.281 NA
HETATM   19  C   UNL     1      43.466 -15.695   1.535  1.00  0.00     0.117 C 
BRANCH  18  20
HETATM   20  C   UNL     1      41.201 -16.522   2.098  1.00  0.00     0.133 C 
BRANCH  20  21
HETATM   21  C   UNL     1      40.595 -15.183   1.727  1.00  0.00    -0.045 A 
HETATM   22  C   UNL     1      40.273 -14.237   2.712  1.00  0.00     0.008 A 
HETATM   23  C   UNL     1      39.711 -13.008   2.363  1.00  0.00     0.001 A 
HETATM   24  C   UNL     1      39.472 -12.705   1.026  1.00  0.00     0.000 A 
HETATM   25  C   UNL     1      39.791 -13.632   0.036  1.00  0.00     0.001 A 
HETATM   26  C   UNL     1      40.348 -14.865   0.383  1.00  0.00     0.008 A 
ENDBRANCH  20  21
ENDBRANCH  18  20
ENDBRANCH   1  18
TORSDOF 6
ENDMDL
MODEL 5
REMARK VINA RESULT:      -6.9      1.660      2.377
REMARK  6 active torsions:
REMARK  status: ('A' for Active; 'I' for Inactive)
REMARK    1  A    between atoms: N_2  and  C_3 
REMARK    2  A    between atoms: N_2  and  C_19 
REMARK    3  A    between atoms: C_4  and  N_5 
REMARK       I    between atoms: N_5  and  C_6 
REMARK    4  A    between atoms: C_6  and  C_7 
REMARK    5  A    between atoms: C_7  and  C_8 
REMARK    6  A    between atoms: C_19  and  C_20 
ROOT
HETATM    1  C   UNL     1      42.776 -17.080   4.380  1.00  0.00     0.037 A 
HETATM    2  C   UNL     1      42.498 -17.366   3.017  1.00  0.00     0.056 A 
HETATM    3  C   UNL     1      43.197 -18.373   2.350  1.00  0.00     0.031 A 
HETATM    4  C   UNL     1      44.171 -19.113   3.021  1.00  0.00     0.002 A 
HETATM    5  C   UNL     1      44.454 -18.847   4.357  1.00  0.00     0.002 A 
HETATM    6  C   UNL     1      43.766 -17.836   5.031  1.00  0.00     0.026 A 
ENDROOT
BRANCH   2   7
HETATM    7  N   UNL     1      41.461 -16.619   2.420  1.00  0.00    -0.325 N 
HETATM    8  C   UNL     1      41.560 -15.577   1.523  1.00  0.00     0.227 C 
HETATM    9  O   UNL     1      42.608 -15.052   1.146  1.00  0.00    -0.273 OA
HETATM   10  H   UNL     1      40.544 -16.866   2.786  1.00  0.00     0.169 HD
BRANCH   8  11
HETATM   11  C   UNL     1      40.199 -15.067   1.050  1.00  0.00     0.159 C 
BRANCH  11  12
HETATM   12  C   UNL     1      39.847 -13.751   1.677  1.00  0.00     0.017 A 
HETATM   13  N   UNL     1      39.074 -13.670   2.815  1.00  0.00    -0.369 N 
HETATM   14  H   UNL     1      38.738 -14.474   3.336  1.00  0.00     0.165 HD
HETATM   15  C   UNL     1      38.894 -12.356   3.157  1.00  0.00     0.088 A 
HETATM   16  C   UNL     1      39.558 -11.582   2.234  1.00  0.00     0.019 A 
HETATM   17  C   UNL     1      40.159 -12.460   1.300  1.00  0.00     0.027 A 
ENDBRANCH  11  12
ENDBRANCH   8  11
ENDBRANCH   2   7
BRANCH   1  18
HETATM   18  N   UNL     1      42.079 -16.015   5.023  1.00  0.00    -0.281 NA
HETATM   19  C   UNL     1      40.772 -16.398   5.564  1.00  0.00     0.117 C 
BRANCH  18  20
HETATM   20  C   UNL     1      42.952 -15.302   5.986  1.00  0.00     0.133 C 
BRANCH  20  21
HETATM   21  C   UNL     1      43.172 -13.870   5.545  1.00  0.00    -0.045 A 
HETATM   22  C   UNL     1      43.890 -12.969   6.346  1.00  0.00     0.008 A 
HETATM   23  C   UNL     1      44.087 -11.649   5.936  1.00  0.00     0.001 A 
HETATM   24  C   UNL     1      43.574 -11.215   4.716  1.00  0.00     0.000 A 
HETATM   25  C   UNL     1      42.863 -12.098   3.908  1.00  0.00     0.001 A 
HETATM   26  C   UNL     1      42.660 -13.418   4.319  1.00  0.00     0.008 A 
ENDBRANCH  20  21
ENDBRANCH  18  20
ENDBRANCH   1  18
TORSDOF 6
ENDMDL
MODEL 6
REMARK VINA RESULT:      -6.9      1.888      6.494
REMARK  6 active torsions:
REMARK  status: ('A' for Active; 'I' for Inactive)
REMARK    1  A    between atoms: N_2  and  C_3 
REMARK    2  A    between atoms: N_2  and  C_19 
REMARK    3  A    between atoms: C_4  and  N_5 
REMARK       I    between atoms: N_5  and  C_6 
REMARK    4  A    between atoms: C_6  and  C_7 
REMARK    5  A    between atoms: C_7  and  C_8 
REMARK    6  A    between atoms: C_19  and  C_20 
ROOT
HETATM    1  C   UNL     1      41.018 -14.063   1.395  1.00  0.00     0.037 A 
HETATM    2  C   UNL     1      41.215 -12.753   1.907  1.00  0.00     0.056 A 
HETATM    3  C   UNL     1      40.910 -11.637   1.127  1.00  0.00     0.031 A 
HETATM    4  C   UNL     1      40.400 -11.800  -0.161  1.00  0.00     0.002 A 
HETATM    5  C   UNL     1      40.200 -13.076  -0.677  1.00  0.00     0.002 A 
HETATM    6  C   UNL     1      40.510 -14.200   0.092  1.00  0.00     0.026 A 
ENDROOT
BRANCH   2   7
HETATM    7  N   UNL     1      41.676 -12.665   3.237  1.00  0.00    -0.325 N 
HETATM    8  C   UNL     1      40.943 -12.466   4.388  1.00  0.00     0.227 C 
HETATM    9  O   UNL     1      39.734 -12.240   4.439  1.00  0.00    -0.273 OA
HETATM   10  H   UNL     1      42.691 -12.679   3.298  1.00  0.00     0.169 HD
BRANCH   8  11
HETATM   11  C   UNL     1      41.800 -12.497   5.653  1.00  0.00     0.159 C 
BRANCH  11  12
HETATM   12  C   UNL     1      41.827 -13.861   6.276  1.00  0.00     0.017 A 
HETATM   13  N   UNL     1      42.807 -14.236   7.168  1.00  0.00    -0.369 N 
HETATM   14  H   UNL     1      43.537 -13.618   7.509  1.00  0.00     0.165 HD
HETATM   15  C   UNL     1      42.601 -15.531   7.563  1.00  0.00     0.088 A 
HETATM   16  C   UNL     1      41.476 -15.997   6.921  1.00  0.00     0.019 A 
HETATM   17  C   UNL     1      40.987 -14.945   6.109  1.00  0.00     0.027 A 
ENDBRANCH  11  12
ENDBRANCH   8  11
ENDBRANCH   2   7
BRANCH   1  18
HETATM   18  N   UNL     1      41.382 -15.185   2.197  1.00  0.00    -0.281 NA
HETATM   19  C   UNL     1      40.247 -16.011   2.618  1.00  0.00     0.117 C 
BRANCH  18  20
HETATM   20  C   UNL     1      42.496 -15.947   1.585  1.00  0.00     0.133 C 
BRANCH  20  21
HETATM   21  C   UNL     1      43.103 -16.903   2.592  1.00  0.00    -0.045 A 
HETATM   22  C   UNL     1      43.529 -16.452   3.851  1.00  0.00     0.008 A 
HETATM   23  C   UNL     1      44.091 -17.337   4.773  1.00  0.00     0.001 A 
HETATM   24  C   UNL     1      44.228 -18.685   4.451  1.00  0.00     0.000 A 
HETATM   25  C   UNL     1      43.806 -19.149   3.207  1.00  0.00     0.001 A 
HETATM   26  C   UNL     1      43.248 -18.264   2.281  1.00  0.00     0.008 A 
ENDBRANCH  20  21
ENDBRANCH  18  20
ENDBRANCH   1  18
TORSDOF 6
ENDMDL
MODEL 7
REMARK VINA RESULT:      -6.6      1.893      4.909
REMARK  6 active torsions:
REMARK  status: ('A' for Active; 'I' for Inactive)
REMARK    1  A    between atoms: N_2  and  C_3 
REMARK    2  A    between atoms: N_2  and  C_19 
REMARK    3  A    between atoms: C_4  and  N_5 
REMARK       I    between atoms: N_5  and  C_6 
REMARK    4  A    between atoms: C_6  and  C_7 
REMARK    5  A    between atoms: C_7  and  C_8 
REMARK    6  A    between atoms: C_19  and  C_20 
ROOT
HETATM    1  C   UNL     1      41.372 -12.040   3.951  1.00  0.00     0.037 A 
HETATM    2  C   UNL     1      40.153 -12.225   3.246  1.00  0.00     0.056 A 
HETATM    3  C   UNL     1      39.007 -11.523   3.623  1.00  0.00     0.031 A 
HETATM    4  C   UNL     1      39.053 -10.627   4.691  1.00  0.00     0.002 A 
HETATM    5  C   UNL     1      40.240 -10.433   5.389  1.00  0.00     0.002 A 
HETATM    6  C   UNL     1      41.390 -11.137   5.026  1.00  0.00     0.026 A 
ENDROOT
BRANCH   2   7
HETATM    7  N   UNL     1      40.196 -13.101   2.141  1.00  0.00    -0.325 N 
HETATM    8  C   UNL     1      40.313 -12.789   0.804  1.00  0.00     0.227 C 
HETATM    9  O   UNL     1      40.316 -11.653   0.329  1.00  0.00    -0.273 OA
HETATM   10  H   UNL     1      40.040 -14.070   2.408  1.00  0.00     0.169 HD
BRANCH   8  11
HETATM   11  C   UNL     1      40.393 -14.026  -0.092  1.00  0.00     0.159 C 
BRANCH  11  12
HETATM   12  C   UNL     1      39.430 -13.947  -1.239  1.00  0.00     0.017 A 
HETATM   13  N   UNL     1      38.279 -13.193  -1.174  1.00  0.00    -0.369 N 
HETATM   14  H   UNL     1      38.026 -12.602  -0.388  1.00  0.00     0.165 HD
HETATM   15  C   UNL     1      37.581 -13.315  -2.346  1.00  0.00     0.088 A 
HETATM   16  C   UNL     1      38.288 -14.154  -3.176  1.00  0.00     0.019 A 
HETATM   17  C   UNL     1      39.454 -14.554  -2.480  1.00  0.00     0.027 A 
ENDBRANCH  11  12
ENDBRANCH   8  11
ENDBRANCH   2   7
BRANCH   1  18
HETATM   18  N   UNL     1      42.515 -12.805   3.573  1.00  0.00    -0.281 NA
HETATM   19  C   UNL     1      43.700 -11.997   3.269  1.00  0.00     0.117 C 
BRANCH  18  20
HETATM   20  C   UNL     1      42.763 -13.913   4.527  1.00  0.00     0.133 C 
BRANCH  20  21
HETATM   21  C   UNL     1      42.973 -15.217   3.784  1.00  0.00    -0.045 A 
HETATM   22  C   UNL     1      42.969 -15.259   2.381  1.00  0.00     0.008 A 
HETATM   23  C   UNL     1      43.159 -16.464   1.703  1.00  0.00     0.001 A 
HETATM   24  C   UNL     1      43.363 -17.641   2.418  1.00  0.00     0.000 A 
HETATM   25  C   UNL     1      43.374 -17.616   3.811  1.00  0.00     0.001 A 
HETATM   26  C   UNL     1      43.178 -16.411   4.491  1.00  0.00     0.008 A 
ENDBRANCH  20  21
ENDBRANCH  18  20
ENDBRANCH   1  18
TORSDOF 6
ENDMDL
MODEL 8
REMARK VINA RESULT:      -6.6     14.585     16.413
REMARK  6 active torsions:
REMARK  status: ('A' for Active; 'I' for Inactive)
REMARK    1  A    between atoms: N_2  and  C_3 
REMARK    2  A    between atoms: N_2  and  C_19 
REMARK    3  A    between atoms: C_4  and  N_5 
REMARK       I    between atoms: N_5  and  C_6 
REMARK    4  A    between atoms: C_6  and  C_7 
REMARK    5  A    between atoms: C_7  and  C_8 
REMARK    6  A    between atoms: C_19  and  C_20 
ROOT
HETATM    1  C   UNL     1      43.471 -31.189   0.948  1.00  0.00     0.037 A 
HETATM    2  C   UNL     1      43.553 -29.987   1.700  1.00  0.00     0.056 A 
HETATM    3  C   UNL     1      42.548 -29.655   2.611  1.00  0.00     0.031 A 
HETATM    4  C   UNL     1      41.459 -30.507   2.795  1.00  0.00     0.002 A 
HETATM    5  C   UNL     1      41.366 -31.689   2.067  1.00  0.00     0.002 A 
HETATM    6  C   UNL     1      42.361 -32.026   1.147  1.00  0.00     0.026 A 
ENDROOT
BRANCH   2   7
HETATM    7  N   UNL     1      44.711 -29.205   1.507  1.00  0.00    -0.325 N 
HETATM    8  C   UNL     1      45.882 -29.211   2.234  1.00  0.00     0.227 C 
HETATM    9  O   UNL     1      46.087 -29.863   3.258  1.00  0.00    -0.273 OA
HETATM   10  H   UNL     1      44.591 -28.509   0.775  1.00  0.00     0.169 HD
BRANCH   8  11
HETATM   11  C   UNL     1      46.939 -28.262   1.669  1.00  0.00     0.159 C 
BRANCH  11  12
HETATM   12  C   UNL     1      47.391 -28.679   0.302  1.00  0.00     0.017 A 
HETATM   13  N   UNL     1      47.558 -30.003  -0.038  1.00  0.00    -0.369 N 
HETATM   14  H   UNL     1      47.340 -30.783   0.575  1.00  0.00     0.165 HD
HETATM   15  C   UNL     1      47.992 -30.096  -1.334  1.00  0.00     0.088 A 
HETATM   16  C   UNL     1      48.105 -28.820  -1.836  1.00  0.00     0.019 A 
HETATM   17  C   UNL     1      47.727 -27.925  -0.806  1.00  0.00     0.027 A 
ENDBRANCH  11  12
ENDBRANCH   8  11
ENDBRANCH   2   7
BRANCH   1  18
HETATM   18  N   UNL     1      44.488 -31.480  -0.008  1.00  0.00    -0.281 NA
HETATM   19  C   UNL     1      45.435 -32.513   0.423  1.00  0.00     0.117 C 
BRANCH  18  20
HETATM   20  C   UNL     1      43.914 -31.704  -1.356  1.00  0.00     0.133 C 
BRANCH  20  21
HETATM   21  C   UNL     1      44.331 -30.597  -2.303  1.00  0.00    -0.045 A 
HETATM   22  C   UNL     1      44.316 -29.254  -1.897  1.00  0.00     0.008 A 
HETATM   23  C   UNL     1      44.697 -28.238  -2.776  1.00  0.00     0.001 A 
HETATM   24  C   UNL     1      45.106 -28.553  -4.069  1.00  0.00     0.000 A 
HETATM   25  C   UNL     1      45.131 -29.882  -4.486  1.00  0.00     0.001 A 
HETATM   26  C   UNL     1      44.744 -30.899  -3.610  1.00  0.00     0.008 A 
ENDBRANCH  20  21
ENDBRANCH  18  20
ENDBRANCH   1  18
TORSDOF 6
ENDMDL
MODEL 9
REMARK VINA RESULT:      -6.6     14.435     17.183
REMARK  6 active torsions:
REMARK  status: ('A' for Active; 'I' for Inactive)
REMARK    1  A    between atoms: N_2  and  C_3 
REMARK    2  A    between atoms: N_2  and  C_19 
REMARK    3  A    between atoms: C_4  and  N_5 
REMARK       I    between atoms: N_5  and  C_6 
REMARK    4  A    between atoms: C_6  and  C_7 
REMARK    5  A    between atoms: C_7  and  C_8 
REMARK    6  A    between atoms: C_19  and  C_20 
ROOT
HETATM    1  C   UNL     1      45.333 -30.206  -2.130  1.00  0.00     0.037 A 
HETATM    2  C   UNL     1      45.368 -28.925  -1.520  1.00  0.00     0.056 A 
HETATM    3  C   UNL     1      45.241 -27.770  -2.294  1.00  0.00     0.031 A 
HETATM    4  C   UNL     1      45.070 -27.868  -3.675  1.00  0.00     0.002 A 
HETATM    5  C   UNL     1      45.031 -29.116  -4.288  1.00  0.00     0.002 A 
HETATM    6  C   UNL     1      45.167 -30.277  -3.523  1.00  0.00     0.026 A 
ENDROOT
BRANCH   2   7
HETATM    7  N   UNL     1      45.483 -28.904  -0.114  1.00  0.00    -0.325 N 
HETATM    8  C   UNL     1      46.547 -28.480   0.654  1.00  0.00     0.227 C 
HETATM    9  O   UNL     1      47.642 -28.116   0.225  1.00  0.00    -0.273 OA
HETATM   10  H   UNL     1      44.686 -29.336   0.347  1.00  0.00     0.169 HD
BRANCH   8  11
HETATM   11  C   UNL     1      46.263 -28.549   2.155  1.00  0.00     0.159 C 
BRANCH  11  12
HETATM   12  C   UNL     1      47.436 -29.083   2.920  1.00  0.00     0.017 A 
HETATM   13  N   UNL     1      48.642 -28.419   2.964  1.00  0.00    -0.369 N 
HETATM   14  H   UNL     1      48.811 -27.512   2.540  1.00  0.00     0.165 HD
HETATM   15  C   UNL     1      49.537 -29.136   3.714  1.00  0.00     0.088 A 
HETATM   16  C   UNL     1      48.903 -30.272   4.161  1.00  0.00     0.019 A 
HETATM   17  C   UNL     1      47.578 -30.241   3.661  1.00  0.00     0.027 A 
ENDBRANCH  11  12
ENDBRANCH   8  11
ENDBRANCH   2   7
BRANCH   1  18
HETATM   18  N   UNL     1      45.513 -31.366  -1.320  1.00  0.00    -0.281 NA
HETATM   19  C   UNL     1      44.297 -32.167  -1.147  1.00  0.00     0.117 C 
BRANCH  18  20
HETATM   20  C   UNL     1      46.699 -32.145  -1.747  1.00  0.00     0.133 C 
BRANCH  20  21
HETATM   21  C   UNL     1      47.968 -31.526  -1.197  1.00  0.00    -0.045 A 
HETATM   22  C   UNL     1      48.794 -30.730  -2.006  1.00  0.00     0.008 A 
HETATM   23  C   UNL     1      49.964 -30.166  -1.495  1.00  0.00     0.001 A 
HETATM   24  C   UNL     1      50.320 -30.385  -0.167  1.00  0.00     0.000 A 
HETATM   25  C   UNL     1      49.509 -31.169   0.650  1.00  0.00     0.001 A 
HETATM   26  C   UNL     1      48.341 -31.739   0.139  1.00  0.00     0.008 A 
ENDBRANCH  20  21
ENDBRANCH  18  20
ENDBRANCH   1  18
TORSDOF 6
ENDMDL
MODEL 10
REMARK VINA RESULT:      -6.4      1.611      6.035
REMARK  6 active torsions:
REMARK  status: ('A' for Active; 'I' for Inactive)
REMARK    1  A    between atoms: N_2  and  C_3 
REMARK    2  A    between atoms: N_2  and  C_19 
REMARK    3  A    between atoms: C_4  and  N_5 
REMARK       I    between atoms: N_5  and  C_6 
REMARK    4  A    between atoms: C_6  and  C_7 
REMARK    5  A    between atoms: C_7  and  C_8 
REMARK    6  A    between atoms: C_19  and  C_20 
ROOT
HETATM    1  C   UNL     1      41.228 -11.920   2.863  1.00  0.00     0.037 A 
HETATM    2  C   UNL     1      41.963 -12.954   3.500  1.00  0.00     0.056 A 
HETATM    3  C   UNL     1      42.852 -12.654   4.534  1.00  0.00     0.031 A 
HETATM    4  C   UNL     1      43.019 -11.334   4.954  1.00  0.00     0.002 A 
HETATM    5  C   UNL     1      42.305 -10.310   4.341  1.00  0.00     0.002 A 
HETATM    6  C   UNL     1      41.420 -10.599   3.301  1.00  0.00     0.026 A 
ENDROOT
BRANCH   2   7
HETATM    7  N   UNL     1      41.699 -14.269   3.065  1.00  0.00    -0.325 N 
HETATM    8  C   UNL     1      42.496 -15.098   2.305  1.00  0.00     0.227 C 
HETATM    9  O   UNL     1      43.571 -14.787   1.791  1.00  0.00    -0.273 OA
HETATM   10  H   UNL     1      40.758 -14.575   3.302  1.00  0.00     0.169 HD
BRANCH   8  11
HETATM   11  C   UNL     1      41.887 -16.485   2.097  1.00  0.00     0.159 C 
BRANCH  11  12
HETATM   12  C   UNL     1      42.769 -17.569   2.639  1.00  0.00     0.017 A 
HETATM   13  N   UNL     1      43.553 -17.380   3.756  1.00  0.00    -0.369 N 
HETATM   14  H   UNL     1      43.554 -16.535   4.318  1.00  0.00     0.165 HD
HETATM   15  C   UNL     1      44.266 -18.520   4.016  1.00  0.00     0.088 A 
HETATM   16  C   UNL     1      43.939 -19.454   3.061  1.00  0.00     0.019 A 
HETATM   17  C   UNL     1      42.995 -18.856   2.191  1.00  0.00     0.027 A 
ENDBRANCH  11  12
ENDBRANCH   8  11
ENDBRANCH   2   7
BRANCH   1  18
HETATM   18  N   UNL     1      40.361 -12.250   1.780  1.00  0.00    -0.281 NA
HETATM   19  C   UNL     1      39.022 -11.663   1.886  1.00  0.00     0.117 C 
BRANCH  18  20
HETATM   20  C   UNL     1      41.022 -12.025   0.472  1.00  0.00     0.133 C 
BRANCH  20  21
HETATM   21  C   UNL     1      40.387 -12.887  -0.600  1.00  0.00    -0.045 A 
HETATM   22  C   UNL     1      40.197 -12.399  -1.902  1.00  0.00     0.008 A 
HETATM   23  C   UNL     1      39.608 -13.198  -2.884  1.00  0.00     0.001 A 
HETATM   24  C   UNL     1      39.207 -14.495  -2.579  1.00  0.00     0.000 A 
HETATM   25  C   UNL     1      39.392 -14.996  -1.292  1.00  0.00     0.001 A 
HETATM   26  C   UNL     1      39.977 -14.197  -0.307  1.00  0.00     0.008 A 
ENDBRANCH  20  21
ENDBRANCH  18  20
ENDBRANCH   1  18
TORSDOF 6
ENDMDL
