MODEL 1
REMARK VINA RESULT:      -8.2      0.000      0.000
REMARK  4 active torsions:
REMARK  status: ('A' for Active; 'I' for Inactive)
REMARK    1  A    between atoms: C_8  and  N_9 
REMARK       I    between atoms: N_9  and  C_10 
REMARK       I    between atoms: C_10  and  N_11 
REMARK    2  A    between atoms: N_11  and  C_12 
REMARK    3  A    between atoms: C_14  and  C_15 
REMARK       I    between atoms: C_15  and  N_16 
REMARK    4  A    between atoms: N_16  and  C_17 
ROOT
HETATM    1  C   UNL     1      40.941 -14.856   3.019  1.00  0.00     0.037 A 
HETATM    2  C   UNL     1      41.787 -15.965   3.045  1.00  0.00     0.048 A 
HETATM    3  C   UNL     1      42.721 -16.139   4.083  1.00  0.00     0.055 A 
HETATM    4  C   UNL     1      42.782 -15.214   5.128  1.00  0.00     0.049 A 
HETATM    5 CL   UNL     1      43.934 -15.305   6.409  1.00  0.00    -0.083 Cl
HETATM    6  C   UNL     1      41.910 -14.122   5.125  1.00  0.00     0.027 A 
HETATM    7  C   UNL     1      40.997 -13.944   4.078  1.00  0.00     0.031 A 
ENDROOT
BRANCH   1   8
HETATM    8  N   UNL     1      40.031 -14.586   1.975  1.00  0.00    -0.309 N 
HETATM    9  C   UNL     1      40.275 -13.842   0.824  1.00  0.00     0.325 C 
HETATM   10  N   UNL     1      39.138 -13.764   0.041  1.00  0.00    -0.305 N 
HETATM   11  O   UNL     1      41.345 -13.312   0.566  1.00  0.00    -0.247 OA
HETATM   12  H   UNL     1      38.341 -14.310   0.321  1.00  0.00     0.171 HD
HETATM   13  H   UNL     1      39.073 -14.857   2.139  1.00  0.00     0.170 HD
BRANCH  10  14
HETATM   14  C   UNL     1      38.974 -13.043  -1.135  1.00  0.00     0.086 A 
HETATM   15  C   UNL     1      38.796 -13.681  -2.351  1.00  0.00     0.052 A 
HETATM   16  C   UNL     1      38.723 -15.109  -2.738  1.00  0.00     0.072 C 
HETATM   17  N   UNL     1      38.659 -12.689  -3.278  1.00  0.00    -0.280 N 
HETATM   18  H   UNL     1      38.509 -12.779  -4.277  1.00  0.00     0.189 HD
HETATM   19  N   UNL     1      38.730 -11.459  -2.767  1.00  0.00    -0.177 NA
HETATM   20  C   UNL     1      38.923 -11.652  -1.453  1.00  0.00     0.079 A 
HETATM   21  C   UNL     1      39.043 -10.447  -0.593  1.00  0.00     0.075 C 
ENDBRANCH  10  14
ENDBRANCH   1   8
BRANCH   3  22
HETATM   22  C   UNL     1      43.607 -17.327   4.027  1.00  0.00     0.253 C 
HETATM   23  N   UNL     1      43.445 -18.115   2.902  1.00  0.00    -0.352 N 
HETATM   24  H   UNL     1      42.787 -17.833   2.184  1.00  0.00     0.163 HD
HETATM   25  O   UNL     1      44.387 -17.567   4.939  1.00  0.00    -0.268 OA
BRANCH  23  26
HETATM   26  C   UNL     1      44.152 -19.340   2.720  1.00  0.00     0.084 A 
HETATM   27  C   UNL     1      43.639 -20.612   3.338  1.00  0.00     0.027 A 
HETATM   28  C   UNL     1      43.581 -20.427   1.849  1.00  0.00     0.027 A 
ENDBRANCH  23  26
ENDBRANCH   3  22
TORSDOF 4
ENDMDL
MODEL 2
REMARK VINA RESULT:      -8.2      2.104      4.198
REMARK  4 active torsions:
REMARK  status: ('A' for Active; 'I' for Inactive)
REMARK    1  A    between atoms: C_8  and  N_9 
REMARK       I    between atoms: N_9  and  C_10 
REMARK       I    between atoms: C_10  and  N_11 
REMARK    2  A    between atoms: N_11  and  C_12 
REMARK    3  A    between atoms: C_14  and  C_15 
REMARK       I    between atoms: C_15  and  N_16 
REMARK    4  A    between atoms: N_16  and  C_17 
ROOT
HETATM    1  C   UNL     1      42.659 -15.961   2.072  1.00  0.00     0.037 A 
HETATM    2  C   UNL     1      43.021 -15.387   3.291  1.00  0.00     0.048 A 
HETATM    3  C   UNL     1      43.450 -16.185   4.368  1.00  0.00     0.055 A 
HETATM    4  C   UNL     1      43.556 -17.569   4.210  1.00  0.00     0.049 A 
HETATM    5 CL   UNL     1      44.010 -18.636   5.488  1.00  0.00    -0.083 Cl
HETATM    6  C   UNL     1      43.231 -18.144   2.979  1.00  0.00     0.027 A 
HETATM    7  C   UNL     1      42.785 -17.346   1.918  1.00  0.00     0.031 A 
ENDROOT
BRANCH   1   8
HETATM    8  N   UNL     1      42.157 -15.227   0.975  1.00  0.00    -0.309 N 
HETATM    9  C   UNL     1      40.855 -14.767   0.803  1.00  0.00     0.325 C 
HETATM   10  N   UNL     1      40.722 -14.112  -0.407  1.00  0.00    -0.305 N 
HETATM   11  O   UNL     1      39.953 -14.948   1.608  1.00  0.00    -0.247 OA
HETATM   12  H   UNL     1      41.558 -13.958  -0.947  1.00  0.00     0.171 HD
HETATM   13  H   UNL     1      42.775 -15.134   0.184  1.00  0.00     0.170 HD
BRANCH  10  14
HETATM   14  C   UNL     1      39.560 -13.592  -0.960  1.00  0.00     0.086 A 
HETATM   15  C   UNL     1      39.035 -12.386  -0.528  1.00  0.00     0.052 A 
HETATM   16  C   UNL     1      39.473 -11.405   0.492  1.00  0.00     0.072 C 
HETATM   17  N   UNL     1      37.915 -12.174  -1.277  1.00  0.00    -0.280 N 
HETATM   18  H   UNL     1      37.274 -11.388  -1.242  1.00  0.00     0.189 HD
HETATM   19  N   UNL     1      37.667 -13.140  -2.163  1.00  0.00    -0.177 NA
HETATM   20  C   UNL     1      38.664 -14.020  -1.986  1.00  0.00     0.079 A 
HETATM   21  C   UNL     1      38.670 -15.232  -2.846  1.00  0.00     0.075 C 
ENDBRANCH  10  14
ENDBRANCH   1   8
BRANCH   3  22
HETATM   22  C   UNL     1      43.789 -15.507   5.642  1.00  0.00     0.253 C 
HETATM   23  N   UNL     1      43.280 -14.227   5.767  1.00  0.00    -0.352 N 
HETATM   24  H   UNL     1      42.694 -13.847   5.032  1.00  0.00     0.163 HD
HETATM   25  O   UNL     1      44.489 -16.063   6.478  1.00  0.00    -0.268 OA
BRANCH  23  26
HETATM   26  C   UNL     1      43.575 -13.394   6.888  1.00  0.00     0.084 A 
HETATM   27  C   UNL     1      44.692 -12.390   6.815  1.00  0.00     0.027 A 
HETATM   28  C   UNL     1      43.267 -11.921   6.845  1.00  0.00     0.027 A 
ENDBRANCH  23  26
ENDBRANCH   3  22
TORSDOF 4
ENDMDL
MODEL 3
REMARK VINA RESULT:      -8.2      4.970      7.436
REMARK  4 active torsions:
REMARK  status: ('A' for Active; 'I' for Inactive)
REMARK    1  A    between atoms: C_8  and  N_9 
REMARK       I    between atoms: N_9  and  C_10 
REMARK       I    between atoms: C_10  and  N_11 
REMARK    2  A    between atoms: N_11  and  C_12 
REMARK    3  A    between atoms: C_14  and  C_15 
REMARK       I    between atoms: C_15  and  N_16 
REMARK    4  A    between atoms: N_16  and  C_17 
ROOT
HETATM    1  C   UNL     1      41.783 -13.376   5.067  1.00  0.00     0.037 A 
HETATM    2  C   UNL     1      42.584 -14.295   4.387  1.00  0.00     0.048 A 
HETATM    3  C   UNL     1      42.075 -15.034   3.303  1.00  0.00     0.055 A 
HETATM    4  C   UNL     1      40.765 -14.823   2.869  1.00  0.00     0.049 A 
HETATM    5 CL   UNL     1      40.032 -15.725   1.594  1.00  0.00    -0.083 Cl
HETATM    6  C   UNL     1      39.972 -13.876   3.523  1.00  0.00     0.027 A 
HETATM    7  C   UNL     1      40.478 -13.158   4.614  1.00  0.00     0.031 A 
ENDROOT
BRANCH   1   8
HETATM    8  N   UNL     1      42.208 -12.651   6.202  1.00  0.00    -0.309 N 
HETATM    9  C   UNL     1      42.804 -11.394   6.216  1.00  0.00     0.325 C 
HETATM   10  N   UNL     1      43.112 -11.012   7.508  1.00  0.00    -0.305 N 
HETATM   11  O   UNL     1      43.041 -10.738   5.213  1.00  0.00    -0.247 OA
HETATM   12  H   UNL     1      42.794 -11.604   8.257  1.00  0.00     0.171 HD
HETATM   13  H   UNL     1      42.189 -13.149   7.079  1.00  0.00     0.170 HD
BRANCH  10  14
HETATM   14  C   UNL     1      43.784  -9.865   7.910  1.00  0.00     0.086 A 
HETATM   15  C   UNL     1      45.167  -9.819   7.950  1.00  0.00     0.052 A 
HETATM   16  C   UNL     1      46.218 -10.810   7.623  1.00  0.00     0.072 C 
HETATM   17  N   UNL     1      45.489  -8.562   8.372  1.00  0.00    -0.280 N 
HETATM   18  H   UNL     1      46.410  -8.164   8.517  1.00  0.00     0.189 HD
HETATM   19  N   UNL     1      44.430  -7.784   8.608  1.00  0.00    -0.177 NA
HETATM   20  C   UNL     1      43.374  -8.563   8.330  1.00  0.00     0.079 A 
HETATM   21  C   UNL     1      42.021  -7.971   8.496  1.00  0.00     0.075 C 
ENDBRANCH  10  14
ENDBRANCH   1   8
BRANCH   3  22
HETATM   22  C   UNL     1      42.976 -16.014   2.649  1.00  0.00     0.253 C 
HETATM   23  N   UNL     1      42.971 -17.274   3.221  1.00  0.00    -0.352 N 
HETATM   24  H   UNL     1      42.351 -17.468   4.000  1.00  0.00     0.163 HD
HETATM   25  O   UNL     1      43.670 -15.684   1.696  1.00  0.00    -0.268 OA
BRANCH  23  26
HETATM   26  C   UNL     1      43.836 -18.317   2.776  1.00  0.00     0.084 A 
HETATM   27  C   UNL     1      43.923 -19.610   3.540  1.00  0.00     0.027 A 
HETATM   28  C   UNL     1      43.266 -19.581   2.191  1.00  0.00     0.027 A 
ENDBRANCH  23  26
ENDBRANCH   3  22
TORSDOF 4
ENDMDL
MODEL 4
REMARK VINA RESULT:      -8.0      5.105      8.248
REMARK  4 active torsions:
REMARK  status: ('A' for Active; 'I' for Inactive)
REMARK    1  A    between atoms: C_8  and  N_9 
REMARK       I    between atoms: N_9  and  C_10 
REMARK       I    between atoms: C_10  and  N_11 
REMARK    2  A    between atoms: N_11  and  C_12 
REMARK    3  A    between atoms: C_14  and  C_15 
REMARK       I    between atoms: C_15  and  N_16 
REMARK    4  A    between atoms: N_16  and  C_17 
ROOT
HETATM    1  C   UNL     1      43.223 -14.334   6.267  1.00  0.00     0.037 A 
HETATM    2  C   UNL     1      42.357 -14.359   5.173  1.00  0.00     0.048 A 
HETATM    3  C   UNL     1      42.408 -15.404   4.233  1.00  0.00     0.055 A 
HETATM    4  C   UNL     1      43.308 -16.458   4.410  1.00  0.00     0.049 A 
HETATM    5 CL   UNL     1      43.490 -17.750   3.281  1.00  0.00    -0.083 Cl
HETATM    6  C   UNL     1      44.151 -16.456   5.525  1.00  0.00     0.027 A 
HETATM    7  C   UNL     1      44.109 -15.402   6.446  1.00  0.00     0.031 A 
ENDROOT
BRANCH   1   8
HETATM    8  N   UNL     1      43.271 -13.284   7.209  1.00  0.00    -0.309 N 
HETATM    9  C   UNL     1      43.646 -11.965   6.971  1.00  0.00     0.325 C 
HETATM   10  N   UNL     1      43.601 -11.225   8.137  1.00  0.00    -0.305 N 
HETATM   11  O   UNL     1      43.993 -11.538   5.880  1.00  0.00    -0.247 OA
HETATM   12  H   UNL     1      43.223 -11.670   8.957  1.00  0.00     0.171 HD
HETATM   13  H   UNL     1      43.137 -13.546   8.173  1.00  0.00     0.170 HD
BRANCH  10  14
HETATM   14  C   UNL     1      43.982  -9.901   8.310  1.00  0.00     0.086 A 
HETATM   15  C   UNL     1      43.065  -8.930   8.676  1.00  0.00     0.052 A 
HETATM   16  C   UNL     1      41.614  -8.976   8.968  1.00  0.00     0.072 C 
HETATM   17  N   UNL     1      43.768  -7.764   8.764  1.00  0.00    -0.280 N 
HETATM   18  H   UNL     1      43.427  -6.842   9.012  1.00  0.00     0.189 HD
HETATM   19  N   UNL     1      45.067  -7.894   8.488  1.00  0.00    -0.177 NA
HETATM   20  C   UNL     1      45.221  -9.197   8.207  1.00  0.00     0.079 A 
HETATM   21  C   UNL     1      46.586  -9.667   7.856  1.00  0.00     0.075 C 
ENDBRANCH  10  14
ENDBRANCH   1   8
BRANCH   3  22
HETATM   22  C   UNL     1      41.476 -15.347   3.081  1.00  0.00     0.253 C 
HETATM   23  N   UNL     1      41.825 -14.434   2.102  1.00  0.00    -0.352 N 
HETATM   24  H   UNL     1      42.682 -13.901   2.197  1.00  0.00     0.163 HD
HETATM   25  O   UNL     1      40.476 -16.052   3.051  1.00  0.00    -0.268 OA
BRANCH  23  26
HETATM   26  C   UNL     1      41.002 -14.184   0.963  1.00  0.00     0.084 A 
HETATM   27  C   UNL     1      39.832 -13.244   1.063  1.00  0.00     0.027 A 
HETATM   28  C   UNL     1      41.044 -12.848   0.272  1.00  0.00     0.027 A 
ENDBRANCH  23  26
ENDBRANCH   3  22
TORSDOF 4
ENDMDL
MODEL 5
REMARK VINA RESULT:      -7.6      5.333      8.097
REMARK  4 active torsions:
REMARK  status: ('A' for Active; 'I' for Inactive)
REMARK    1  A    between atoms: C_8  and  N_9 
REMARK       I    between atoms: N_9  and  C_10 
REMARK       I    between atoms: C_10  and  N_11 
REMARK    2  A    between atoms: N_11  and  C_12 
REMARK    3  A    between atoms: C_14  and  C_15 
REMARK       I    between atoms: C_15  and  N_16 
REMARK    4  A    between atoms: N_16  and  C_17 
ROOT
HETATM    1  C   UNL     1      43.692 -11.225   6.178  1.00  0.00     0.037 A 
HETATM    2  C   UNL     1      42.919 -10.422   7.018  1.00  0.00     0.048 A 
HETATM    3  C   UNL     1      43.436  -9.941   8.235  1.00  0.00     0.055 A 
HETATM    4  C   UNL     1      44.754 -10.231   8.597  1.00  0.00     0.049 A 
HETATM    5 CL   UNL     1      45.456  -9.742  10.095  1.00  0.00    -0.083 Cl
HETATM    6  C   UNL     1      45.543 -11.003   7.740  1.00  0.00     0.027 A 
HETATM    7  C   UNL     1      45.016 -11.497   6.540  1.00  0.00     0.031 A 
ENDROOT
BRANCH   1   8
HETATM    8  N   UNL     1      43.214 -11.796   4.979  1.00  0.00    -0.309 N 
HETATM    9  C   UNL     1      42.241 -12.782   4.852  1.00  0.00     0.325 C 
HETATM   10  N   UNL     1      42.052 -13.117   3.525  1.00  0.00    -0.305 N 
HETATM   11  O   UNL     1      41.659 -13.294   5.797  1.00  0.00    -0.247 OA
HETATM   12  H   UNL     1      42.534 -12.568   2.833  1.00  0.00     0.171 HD
HETATM   13  H   UNL     1      43.717 -11.551   4.139  1.00  0.00     0.170 HD
BRANCH  10  14
HETATM   14  C   UNL     1      41.228 -14.112   3.016  1.00  0.00     0.086 A 
HETATM   15  C   UNL     1      39.887 -13.876   2.764  1.00  0.00     0.052 A 
HETATM   16  C   UNL     1      39.030 -12.677   2.917  1.00  0.00     0.072 C 
HETATM   17  N   UNL     1      39.386 -15.045   2.270  1.00  0.00    -0.280 N 
HETATM   18  H   UNL     1      38.438 -15.246   1.970  1.00  0.00     0.189 HD
HETATM   19  N   UNL     1      40.289 -16.023   2.177  1.00  0.00    -0.177 NA
HETATM   20  C   UNL     1      41.426 -15.472   2.629  1.00  0.00     0.079 A 
HETATM   21  C   UNL     1      42.642 -16.327   2.649  1.00  0.00     0.075 C 
ENDBRANCH  10  14
ENDBRANCH   1   8
BRANCH   3  22
HETATM   22  C   UNL     1      42.546  -9.118   9.089  1.00  0.00     0.253 C 
HETATM   23  N   UNL     1      41.864  -9.826  10.062  1.00  0.00    -0.352 N 
HETATM   24  H   UNL     1      42.028 -10.821  10.164  1.00  0.00     0.163 HD
HETATM   25  O   UNL     1      42.436  -7.914   8.898  1.00  0.00    -0.268 OA
BRANCH  23  26
HETATM   26  C   UNL     1      40.903  -9.213  10.919  1.00  0.00     0.084 A 
HETATM   27  C   UNL     1      39.475  -9.056  10.471  1.00  0.00     0.027 A 
HETATM   28  C   UNL     1      39.815 -10.036  11.556  1.00  0.00     0.027 A 
ENDBRANCH  23  26
ENDBRANCH   3  22
TORSDOF 4
ENDMDL
MODEL 6
REMARK VINA RESULT:      -7.5      5.412      7.789
REMARK  4 active torsions:
REMARK  status: ('A' for Active; 'I' for Inactive)
REMARK    1  A    between atoms: C_8  and  N_9 
REMARK       I    between atoms: N_9  and  C_10 
REMARK       I    between atoms: C_10  and  N_11 
REMARK    2  A    between atoms: N_11  and  C_12 
REMARK    3  A    between atoms: C_14  and  C_15 
REMARK       I    between atoms: C_15  and  N_16 
REMARK    4  A    between atoms: N_16  and  C_17 
ROOT
HETATM    1  C   UNL     1      43.824 -12.041   6.369  1.00  0.00     0.037 A 
HETATM    2  C   UNL     1      43.126 -11.270   7.299  1.00  0.00     0.048 A 
HETATM    3  C   UNL     1      43.798 -10.356   8.132  1.00  0.00     0.055 A 
HETATM    4  C   UNL     1      45.178 -10.182   8.004  1.00  0.00     0.049 A 
HETATM    5 CL   UNL     1      46.100  -9.136   9.020  1.00  0.00    -0.083 Cl
HETATM    6  C   UNL     1      45.875 -10.924   7.046  1.00  0.00     0.027 A 
HETATM    7  C   UNL     1      45.203 -11.847   6.235  1.00  0.00     0.031 A 
ENDROOT
BRANCH   1   8
HETATM    8  N   UNL     1      43.222 -13.023   5.552  1.00  0.00    -0.309 N 
HETATM    9  C   UNL     1      42.741 -12.852   4.257  1.00  0.00     0.325 C 
HETATM   10  N   UNL     1      42.191 -14.027   3.780  1.00  0.00    -0.305 N 
HETATM   11  O   UNL     1      42.782 -11.795   3.646  1.00  0.00    -0.247 OA
HETATM   12  H   UNL     1      42.290 -14.852   4.348  1.00  0.00     0.171 HD
HETATM   13  H   UNL     1      43.010 -13.902   5.997  1.00  0.00     0.170 HD
BRANCH  10  14
HETATM   14  C   UNL     1      41.543 -14.222   2.568  1.00  0.00     0.086 A 
HETATM   15  C   UNL     1      42.111 -14.986   1.563  1.00  0.00     0.052 A 
HETATM   16  C   UNL     1      43.384 -15.737   1.467  1.00  0.00     0.072 C 
HETATM   17  N   UNL     1      41.217 -14.976   0.532  1.00  0.00    -0.280 N 
HETATM   18  H   UNL     1      41.292 -15.433  -0.370  1.00  0.00     0.189 HD
HETATM   19  N   UNL     1      40.112 -14.271   0.782  1.00  0.00    -0.177 NA
HETATM   20  C   UNL     1      40.291 -13.799   2.026  1.00  0.00     0.079 A 
HETATM   21  C   UNL     1      39.209 -12.960   2.603  1.00  0.00     0.075 C 
ENDBRANCH  10  14
ENDBRANCH   1   8
BRANCH   3  22
HETATM   22  C   UNL     1      42.994  -9.594   9.117  1.00  0.00     0.253 C 
HETATM   23  N   UNL     1      43.003 -10.117  10.397  1.00  0.00    -0.352 N 
HETATM   24  H   UNL     1      43.565 -10.937  10.600  1.00  0.00     0.163 HD
HETATM   25  O   UNL     1      42.367  -8.600   8.775  1.00  0.00    -0.268 OA
BRANCH  23  26
HETATM   26  C   UNL     1      42.220  -9.564  11.453  1.00  0.00     0.084 A 
HETATM   27  C   UNL     1      42.353 -10.092  12.856  1.00  0.00     0.027 A 
HETATM   28  C   UNL     1      42.866  -8.722  12.521  1.00  0.00     0.027 A 
ENDBRANCH  23  26
ENDBRANCH   3  22
TORSDOF 4
ENDMDL
MODEL 7
REMARK VINA RESULT:      -7.4     10.197     13.091
REMARK  4 active torsions:
REMARK  status: ('A' for Active; 'I' for Inactive)
REMARK    1  A    between atoms: C_8  and  N_9 
REMARK       I    between atoms: N_9  and  C_10 
REMARK       I    between atoms: C_10  and  N_11 
REMARK    2  A    between atoms: N_11  and  C_12 
REMARK    3  A    between atoms: C_14  and  C_15 
REMARK       I    between atoms: C_15  and  N_16 
REMARK    4  A    between atoms: N_16  and  C_17 
ROOT
HETATM    1  C   UNL     1      41.701  -9.601  11.817  1.00  0.00     0.037 A 
HETATM    2  C   UNL     1      42.089  -9.126  13.070  1.00  0.00     0.048 A 
HETATM    3  C   UNL     1      41.262  -8.252  13.800  1.00  0.00     0.055 A 
HETATM    4  C   UNL     1      40.016  -7.881  13.289  1.00  0.00     0.049 A 
HETATM    5 CL   UNL     1      38.961  -6.766  14.076  1.00  0.00    -0.083 Cl
HETATM    6  C   UNL     1      39.608  -8.386  12.051  1.00  0.00     0.027 A 
HETATM    7  C   UNL     1      40.444  -9.239  11.320  1.00  0.00     0.031 A 
ENDROOT
BRANCH   1   8
HETATM    8  N   UNL     1      42.510 -10.425  11.004  1.00  0.00    -0.309 N 
HETATM    9  C   UNL     1      43.169 -10.056   9.835  1.00  0.00     0.325 C 
HETATM   10  N   UNL     1      43.842 -11.134   9.291  1.00  0.00    -0.305 N 
HETATM   11  O   UNL     1      43.128  -8.935   9.351  1.00  0.00    -0.247 OA
HETATM   12  H   UNL     1      43.866 -11.986   9.826  1.00  0.00     0.171 HD
HETATM   13  H   UNL     1      42.509 -11.408  11.228  1.00  0.00     0.170 HD
BRANCH  10  14
HETATM   14  C   UNL     1      44.541 -11.173   8.092  1.00  0.00     0.086 A 
HETATM   15  C   UNL     1      44.259 -12.123   7.126  1.00  0.00     0.052 A 
HETATM   16  C   UNL     1      43.273 -13.227   7.056  1.00  0.00     0.072 C 
HETATM   17  N   UNL     1      45.111 -11.870   6.090  1.00  0.00    -0.280 N 
HETATM   18  H   UNL     1      45.190 -12.361   5.207  1.00  0.00     0.189 HD
HETATM   19  N   UNL     1      45.922 -10.832   6.300  1.00  0.00    -0.177 NA
HETATM   20  C   UNL     1      45.590 -10.389   7.522  1.00  0.00     0.079 A 
HETATM   21  C   UNL     1      46.330  -9.214   8.051  1.00  0.00     0.075 C 
ENDBRANCH  10  14
ENDBRANCH   1   8
BRANCH   3  22
HETATM   22  C   UNL     1      41.754  -7.765  15.111  1.00  0.00     0.253 C 
HETATM   23  N   UNL     1      41.026  -8.207  16.201  1.00  0.00    -0.352 N 
HETATM   24  H   UNL     1      40.250  -8.844  16.060  1.00  0.00     0.163 HD
HETATM   25  O   UNL     1      42.717  -7.012  15.176  1.00  0.00    -0.268 OA
BRANCH  23  26
HETATM   26  C   UNL     1      41.304  -7.773  17.531  1.00  0.00     0.084 A 
HETATM   27  C   UNL     1      40.574  -6.593  18.114  1.00  0.00     0.027 A 
HETATM   28  C   UNL     1      40.290  -7.975  18.626  1.00  0.00     0.027 A 
ENDBRANCH  23  26
ENDBRANCH   3  22
TORSDOF 4
ENDMDL
MODEL 8
REMARK VINA RESULT:      -7.4      3.442      8.491
REMARK  4 active torsions:
REMARK  status: ('A' for Active; 'I' for Inactive)
REMARK    1  A    between atoms: C_8  and  N_9 
REMARK       I    between atoms: N_9  and  C_10 
REMARK       I    between atoms: C_10  and  N_11 
REMARK    2  A    between atoms: N_11  and  C_12 
REMARK    3  A    between atoms: C_14  and  C_15 
REMARK       I    between atoms: C_15  and  N_16 
REMARK    4  A    between atoms: N_16  and  C_17 
ROOT
HETATM    1  C   UNL     1      41.522 -14.291   1.152  1.00  0.00     0.037 A 
HETATM    2  C   UNL     1      41.436 -13.076   1.833  1.00  0.00     0.048 A 
HETATM    3  C   UNL     1      40.497 -12.099   1.453  1.00  0.00     0.055 A 
HETATM    4  C   UNL     1      39.608 -12.357   0.407  1.00  0.00     0.049 A 
HETATM    5 CL   UNL     1      38.466 -11.200  -0.174  1.00  0.00    -0.083 Cl
HETATM    6  C   UNL     1      39.666 -13.588  -0.253  1.00  0.00     0.027 A 
HETATM    7  C   UNL     1      40.616 -14.547   0.117  1.00  0.00     0.031 A 
ENDROOT
BRANCH   1   8
HETATM    8  N   UNL     1      42.483 -15.285   1.437  1.00  0.00    -0.309 N 
HETATM    9  C   UNL     1      42.330 -16.377   2.285  1.00  0.00     0.325 C 
HETATM   10  N   UNL     1      43.494 -17.121   2.342  1.00  0.00    -0.305 N 
HETATM   11  O   UNL     1      41.309 -16.619   2.911  1.00  0.00    -0.247 OA
HETATM   12  H   UNL     1      44.241 -16.865   1.719  1.00  0.00     0.171 HD
HETATM   13  H   UNL     1      43.413 -15.118   1.084  1.00  0.00     0.170 HD
BRANCH  10  14
HETATM   14  C   UNL     1      43.747 -18.229   3.140  1.00  0.00     0.086 A 
HETATM   15  C   UNL     1      44.090 -18.091   4.474  1.00  0.00     0.052 A 
HETATM   16  C   UNL     1      44.263 -16.910   5.352  1.00  0.00     0.072 C 
HETATM   17  N   UNL     1      44.256 -19.358   4.953  1.00  0.00    -0.280 N 
HETATM   18  H   UNL     1      44.506 -19.647   5.892  1.00  0.00     0.189 HD
HETATM   19  N   UNL     1      44.046 -20.310   4.043  1.00  0.00    -0.177 NA
HETATM   20  C   UNL     1      43.732 -19.641   2.923  1.00  0.00     0.079 A 
HETATM   21  C   UNL     1      43.435 -20.439   1.706  1.00  0.00     0.075 C 
ENDBRANCH  10  14
ENDBRANCH   1   8
BRANCH   3  22
HETATM   22  C   UNL     1      40.484 -10.821   2.204  1.00  0.00     0.253 C 
HETATM   23  N   UNL     1      39.654 -10.811   3.311  1.00  0.00    -0.352 N 
HETATM   24  H   UNL     1      39.147 -11.652   3.565  1.00  0.00     0.163 HD
HETATM   25  O   UNL     1      41.152  -9.868   1.826  1.00  0.00    -0.268 OA
BRANCH  23  26
HETATM   26  C   UNL     1      39.452  -9.641   4.102  1.00  0.00     0.084 A 
HETATM   27  C   UNL     1      38.281  -8.735   3.835  1.00  0.00     0.027 A 
HETATM   28  C   UNL     1      38.310  -9.572   5.081  1.00  0.00     0.027 A 
ENDBRANCH  23  26
ENDBRANCH   3  22
TORSDOF 4
ENDMDL
MODEL 9
REMARK VINA RESULT:      -7.3      3.161      8.691
REMARK  4 active torsions:
REMARK  status: ('A' for Active; 'I' for Inactive)
REMARK    1  A    between atoms: C_8  and  N_9 
REMARK       I    between atoms: N_9  and  C_10 
REMARK       I    between atoms: C_10  and  N_11 
REMARK    2  A    between atoms: N_11  and  C_12 
REMARK    3  A    between atoms: C_14  and  C_15 
REMARK       I    between atoms: C_15  and  N_16 
REMARK    4  A    between atoms: N_16  and  C_17 
ROOT
HETATM    1  C   UNL     1      40.326 -14.136   0.784  1.00  0.00     0.037 A 
HETATM    2  C   UNL     1      40.402 -12.745   0.713  1.00  0.00     0.048 A 
HETATM    3  C   UNL     1      40.055 -12.060  -0.466  1.00  0.00     0.055 A 
HETATM    4  C   UNL     1      39.587 -12.771  -1.573  1.00  0.00     0.049 A 
HETATM    5 CL   UNL     1      39.199 -12.030  -3.082  1.00  0.00    -0.083 Cl
HETATM    6  C   UNL     1      39.473 -14.162  -1.493  1.00  0.00     0.027 A 
HETATM    7  C   UNL     1      39.840 -14.839  -0.324  1.00  0.00     0.031 A 
ENDROOT
BRANCH   1   8
HETATM    8  N   UNL     1      40.722 -14.889   1.910  1.00  0.00    -0.309 N 
HETATM    9  C   UNL     1      41.946 -15.521   2.104  1.00  0.00     0.325 C 
HETATM   10  N   UNL     1      41.966 -16.191   3.313  1.00  0.00    -0.305 N 
HETATM   11  O   UNL     1      42.862 -15.503   1.295  1.00  0.00    -0.247 OA
HETATM   12  H   UNL     1      41.179 -16.065   3.928  1.00  0.00     0.171 HD
HETATM   13  H   UNL     1      40.001 -15.090   2.586  1.00  0.00     0.170 HD
BRANCH  10  14
HETATM   14  C   UNL     1      42.980 -16.998   3.812  1.00  0.00     0.086 A 
HETATM   15  C   UNL     1      43.669 -16.658   4.963  1.00  0.00     0.052 A 
HETATM   16  C   UNL     1      43.565 -15.514   5.898  1.00  0.00     0.072 C 
HETATM   17  N   UNL     1      44.573 -17.659   5.169  1.00  0.00    -0.280 N 
HETATM   18  H   UNL     1      45.249 -17.752   5.920  1.00  0.00     0.189 HD
HETATM   19  N   UNL     1      44.529 -18.625   4.250  1.00  0.00    -0.177 NA
HETATM   20  C   UNL     1      43.558 -18.240   3.407  1.00  0.00     0.079 A 
HETATM   21  C   UNL     1      43.259 -19.126   2.253  1.00  0.00     0.075 C 
ENDBRANCH  10  14
ENDBRANCH   1   8
BRANCH   3  22
HETATM   22  C   UNL     1      40.190 -10.583  -0.476  1.00  0.00     0.253 C 
HETATM   23  N   UNL     1      41.276 -10.108  -1.189  1.00  0.00    -0.352 N 
HETATM   24  H   UNL     1      41.876 -10.760  -1.681  1.00  0.00     0.163 HD
HETATM   25  O   UNL     1      39.395  -9.880   0.134  1.00  0.00    -0.268 OA
BRANCH  23  26
HETATM   26  C   UNL     1      41.609  -8.722  -1.238  1.00  0.00     0.084 A 
HETATM   27  C   UNL     1      43.038  -8.290  -1.429  1.00  0.00     0.027 A 
HETATM   28  C   UNL     1      42.040  -8.087  -2.533  1.00  0.00     0.027 A 
ENDBRANCH  23  26
ENDBRANCH   3  22
TORSDOF 4
ENDMDL
MODEL 10
REMARK VINA RESULT:      -7.0      2.736      4.530
REMARK  4 active torsions:
REMARK  status: ('A' for Active; 'I' for Inactive)
REMARK    1  A    between atoms: C_8  and  N_9 
REMARK       I    between atoms: N_9  and  C_10 
REMARK       I    between atoms: C_10  and  N_11 
REMARK    2  A    between atoms: N_11  and  C_12 
REMARK    3  A    between atoms: C_14  and  C_15 
REMARK       I    between atoms: C_15  and  N_16 
REMARK    4  A    between atoms: N_16  and  C_17 
ROOT
HETATM    1  C   UNL     1      40.813 -13.869   3.140  1.00  0.00     0.037 A 
HETATM    2  C   UNL     1      41.284 -12.847   3.965  1.00  0.00     0.048 A 
HETATM    3  C   UNL     1      42.220 -13.112   4.982  1.00  0.00     0.055 A 
HETATM    4  C   UNL     1      42.721 -14.405   5.150  1.00  0.00     0.049 A 
HETATM    5 CL   UNL     1      43.820 -14.840   6.407  1.00  0.00    -0.083 Cl
HETATM    6  C   UNL     1      42.280 -15.423   4.301  1.00  0.00     0.027 A 
HETATM    7  C   UNL     1      41.333 -15.158   3.304  1.00  0.00     0.031 A 
ENDROOT
BRANCH   1   8
HETATM    8  N   UNL     1      39.826 -13.687   2.148  1.00  0.00    -0.309 N 
HETATM    9  C   UNL     1      40.020 -13.208   0.855  1.00  0.00     0.325 C 
HETATM   10  N   UNL     1      38.819 -13.136   0.175  1.00  0.00    -0.305 N 
HETATM   11  O   UNL     1      41.106 -12.875   0.404  1.00  0.00    -0.247 OA
HETATM   12  H   UNL     1      38.004 -13.514   0.627  1.00  0.00     0.171 HD
HETATM   13  H   UNL     1      38.870 -13.799   2.446  1.00  0.00     0.170 HD
BRANCH  10  14
HETATM   14  C   UNL     1      38.603 -12.632  -1.101  1.00  0.00     0.086 A 
HETATM   15  C   UNL     1      38.654 -13.452  -2.216  1.00  0.00     0.052 A 
HETATM   16  C   UNL     1      38.904 -14.902  -2.389  1.00  0.00     0.072 C 
HETATM   17  N   UNL     1      38.391 -12.647  -3.286  1.00  0.00    -0.280 N 
HETATM   18  H   UNL     1      38.340 -12.902  -4.266  1.00  0.00     0.189 HD
HETATM   19  N   UNL     1      38.170 -11.372  -2.962  1.00  0.00    -0.177 NA
HETATM   20  C   UNL     1      38.295 -11.340  -1.626  1.00  0.00     0.079 A 
HETATM   21  C   UNL     1      38.100 -10.032  -0.949  1.00  0.00     0.075 C 
ENDBRANCH  10  14
ENDBRANCH   1   8
BRANCH   3  22
HETATM   22  C   UNL     1      42.652 -11.980   5.838  1.00  0.00     0.253 C 
HETATM   23  N   UNL     1      44.017 -11.754   5.850  1.00  0.00    -0.352 N 
HETATM   24  H   UNL     1      44.624 -12.323   5.270  1.00  0.00     0.163 HD
HETATM   25  O   UNL     1      41.834 -11.339   6.484  1.00  0.00    -0.268 OA
BRANCH  23  26
HETATM   26  C   UNL     1      44.619 -10.763   6.681  1.00  0.00     0.084 A 
HETATM   27  C   UNL     1      44.854 -11.035   8.141  1.00  0.00     0.027 A 
HETATM   28  C   UNL     1      46.019 -10.951   7.199  1.00  0.00     0.027 A 
ENDBRANCH  23  26
ENDBRANCH   3  22
TORSDOF 4
ENDMDL
