MODEL 1
REMARK VINA RESULT:      -8.4      0.000      0.000
REMARK  3 active torsions:
REMARK  status: ('A' for Active; 'I' for Inactive)
REMARK    1  A    between atoms: C_7  and  C_8 
REMARK    2  A    between atoms: C_17  and  C_18 
REMARK       I    between atoms: C_18  and  N_19 
REMARK    3  A    between atoms: N_19  and  C_20 
ROOT
HETATM    1  C   UNL     1      40.440 -13.533   4.623  1.00  0.00     0.206 C 
HETATM    2  N   UNL     1      40.226 -12.207   5.215  1.00  0.00    -0.084 N 
HETATM    3  C   UNL     1      41.106 -11.600   6.070  1.00  0.00     0.725 A 
HETATM    4  N   UNL     1      40.641 -10.427   6.415  1.00  0.00    -0.054 NA
HETATM    5  C   UNL     1      39.436 -10.375   5.761  1.00  0.00     0.275 A 
HETATM    6  N   UNL     1      39.123 -11.450   5.029  1.00  0.00    -0.149 NA
HETATM    7  N   UNL     1      42.221 -12.256   6.445  1.00  0.00    -0.192 N 
HETATM    8  C   UNL     1      42.438 -13.601   6.156  1.00  0.00     0.037 C 
HETATM    9  C   UNL     1      43.553 -14.259   6.930  1.00  0.00     0.070 C 
HETATM   10  C   UNL     1      41.618 -14.238   5.283  1.00  0.00     0.063 C 
HETATM   11  H   UNL     1      42.795 -11.834   7.171  1.00  0.00     0.184 HD
ENDROOT
BRANCH  10  12
HETATM   12  C   UNL     1      41.695 -15.692   4.974  1.00  0.00     0.256 C 
HETATM   13  N   UNL     1      42.714 -16.019   4.107  1.00  0.00    -0.323 N 
HETATM   14  H   UNL     1      43.261 -15.255   3.728  1.00  0.00     0.169 HD
HETATM   15  O   UNL     1      40.865 -16.441   5.472  1.00  0.00    -0.267 OA
BRANCH  13  16
HETATM   16  C   UNL     1      43.116 -17.313   3.711  1.00  0.00     0.035 A 
HETATM   17  C   UNL     1      42.792 -17.889   2.481  1.00  0.00     0.029 A 
HETATM   18  C   UNL     1      43.203 -19.192   2.178  1.00  0.00     0.002 A 
HETATM   19  C   UNL     1      43.936 -19.930   3.103  1.00  0.00     0.000 A 
HETATM   20  C   UNL     1      44.265 -19.365   4.332  1.00  0.00     0.002 A 
HETATM   21  C   UNL     1      43.862 -18.061   4.632  1.00  0.00     0.029 A 
ENDBRANCH  13  16
ENDBRANCH  10  12
BRANCH   1  22
HETATM   22  C   UNL     1      40.645 -13.388   3.137  1.00  0.00     0.015 A 
HETATM   23  C   UNL     1      40.288 -14.262   2.119  1.00  0.00     0.036 A 
HETATM   24  C   UNL     1      39.616 -15.587   2.162  1.00  0.00     0.070 C 
HETATM   25  N   UNL     1      40.653 -13.643   0.948  1.00  0.00    -0.278 N 
HETATM   26  C   UNL     1      40.429 -14.098  -0.405  1.00  0.00     0.179 C 
HETATM   27  N   UNL     1      41.295 -12.477   1.141  1.00  0.00    -0.185 NA
HETATM   28  C   UNL     1      41.258 -12.305   2.460  1.00  0.00     0.150 A 
ENDBRANCH   1  22
TORSDOF 3
ENDMDL
MODEL 2
REMARK VINA RESULT:      -8.3      2.265      2.638
REMARK  3 active torsions:
REMARK  status: ('A' for Active; 'I' for Inactive)
REMARK    1  A    between atoms: C_7  and  C_8 
REMARK    2  A    between atoms: C_17  and  C_18 
REMARK       I    between atoms: C_18  and  N_19 
REMARK    3  A    between atoms: N_19  and  C_20 
ROOT
HETATM    1  C   UNL     1      40.896 -12.874   2.442  1.00  0.00     0.206 C 
HETATM    2  N   UNL     1      40.198 -11.698   2.974  1.00  0.00    -0.084 N 
HETATM    3  C   UNL     1      40.832 -10.616   3.522  1.00  0.00     0.725 A 
HETATM    4  N   UNL     1      39.943  -9.731   3.894  1.00  0.00    -0.054 NA
HETATM    5  C   UNL     1      38.757 -10.344   3.579  1.00  0.00     0.275 A 
HETATM    6  N   UNL     1      38.856 -11.561   3.032  1.00  0.00    -0.149 NA
HETATM    7  N   UNL     1      42.175 -10.624   3.635  1.00  0.00    -0.192 N 
HETATM    8  C   UNL     1      42.945 -11.759   3.394  1.00  0.00     0.037 C 
HETATM    9  C   UNL     1      44.367 -11.695   3.891  1.00  0.00     0.070 C 
HETATM   10  C   UNL     1      42.373 -12.845   2.815  1.00  0.00     0.063 C 
HETATM   11  H   UNL     1      42.609  -9.864   4.153  1.00  0.00     0.184 HD
ENDROOT
BRANCH  10  12
HETATM   12  C   UNL     1      43.071 -14.141   2.600  1.00  0.00     0.256 C 
HETATM   13  N   UNL     1      42.720 -15.116   3.507  1.00  0.00    -0.323 N 
HETATM   14  H   UNL     1      42.083 -14.849   4.248  1.00  0.00     0.169 HD
HETATM   15  O   UNL     1      43.888 -14.222   1.691  1.00  0.00    -0.267 OA
BRANCH  13  16
HETATM   16  C   UNL     1      43.118 -16.470   3.503  1.00  0.00     0.035 A 
HETATM   17  C   UNL     1      43.907 -17.056   4.495  1.00  0.00     0.029 A 
HETATM   18  C   UNL     1      44.285 -18.399   4.399  1.00  0.00     0.002 A 
HETATM   19  C   UNL     1      43.883 -19.166   3.310  1.00  0.00     0.000 A 
HETATM   20  C   UNL     1      43.095 -18.593   2.315  1.00  0.00     0.002 A 
HETATM   21  C   UNL     1      42.710 -17.253   2.414  1.00  0.00     0.029 A 
ENDBRANCH  13  16
ENDBRANCH  10  12
BRANCH   1  22
HETATM   22  C   UNL     1      40.707 -12.932   0.948  1.00  0.00     0.015 A 
HETATM   23  C   UNL     1      40.306 -14.005   0.161  1.00  0.00     0.036 A 
HETATM   24  C   UNL     1      39.954 -15.402   0.524  1.00  0.00     0.070 C 
HETATM   25  N   UNL     1      40.244 -13.524  -1.124  1.00  0.00    -0.278 N 
HETATM   26  C   UNL     1      39.804 -14.218  -2.312  1.00  0.00     0.179 C 
HETATM   27  N   UNL     1      40.658 -12.249  -1.236  1.00  0.00    -0.185 NA
HETATM   28  C   UNL     1      40.902 -11.880   0.019  1.00  0.00     0.150 A 
ENDBRANCH   1  22
TORSDOF 3
ENDMDL
MODEL 3
REMARK VINA RESULT:      -7.8      1.833      4.738
REMARK  3 active torsions:
REMARK  status: ('A' for Active; 'I' for Inactive)
REMARK    1  A    between atoms: C_7  and  C_8 
REMARK    2  A    between atoms: C_17  and  C_18 
REMARK       I    between atoms: C_18  and  N_19 
REMARK    3  A    between atoms: N_19  and  C_20 
ROOT
HETATM    1  C   UNL     1      41.313 -12.561   1.576  1.00  0.00     0.206 C 
HETATM    2  N   UNL     1      41.290 -11.438   0.631  1.00  0.00    -0.084 N 
HETATM    3  C   UNL     1      40.588 -11.442  -0.544  1.00  0.00     0.725 A 
HETATM    4  N   UNL     1      40.758 -10.299  -1.158  1.00  0.00    -0.054 NA
HETATM    5  C   UNL     1      41.614  -9.630  -0.320  1.00  0.00     0.275 A 
HETATM    6  N   UNL     1      41.989 -10.292   0.780  1.00  0.00    -0.149 NA
HETATM    7  N   UNL     1      39.908 -12.548  -0.903  1.00  0.00    -0.192 N 
HETATM    8  C   UNL     1      40.031 -13.760  -0.230  1.00  0.00     0.037 C 
HETATM    9  C   UNL     1      39.479 -14.963  -0.955  1.00  0.00     0.070 C 
HETATM   10  C   UNL     1      40.682 -13.802   0.959  1.00  0.00     0.063 C 
HETATM   11  H   UNL     1      39.496 -12.567  -1.833  1.00  0.00     0.184 HD
ENDROOT
BRANCH  10  12
HETATM   12  C   UNL     1      40.957 -15.053   1.716  1.00  0.00     0.256 C 
HETATM   13  N   UNL     1      42.296 -15.370   1.792  1.00  0.00    -0.323 N 
HETATM   14  H   UNL     1      42.941 -14.772   1.292  1.00  0.00     0.169 HD
HETATM   15  O   UNL     1      40.010 -15.686   2.166  1.00  0.00    -0.267 OA
BRANCH  13  16
HETATM   16  C   UNL     1      42.883 -16.422   2.528  1.00  0.00     0.035 A 
HETATM   17  C   UNL     1      43.031 -17.725   2.047  1.00  0.00     0.029 A 
HETATM   18  C   UNL     1      43.596 -18.718   2.853  1.00  0.00     0.002 A 
HETATM   19  C   UNL     1      44.014 -18.420   4.147  1.00  0.00     0.000 A 
HETATM   20  C   UNL     1      43.872 -17.125   4.637  1.00  0.00     0.002 A 
HETATM   21  C   UNL     1      43.315 -16.129   3.829  1.00  0.00     0.029 A 
ENDBRANCH  13  16
ENDBRANCH  10  12
BRANCH   1  22
HETATM   22  C   UNL     1      40.610 -12.158   2.846  1.00  0.00     0.015 A 
HETATM   23  C   UNL     1      41.081 -12.195   4.153  1.00  0.00     0.036 A 
HETATM   24  C   UNL     1      42.387 -12.638   4.706  1.00  0.00     0.070 C 
HETATM   25  N   UNL     1      40.073 -11.677   4.929  1.00  0.00    -0.278 N 
HETATM   26  C   UNL     1      40.088 -11.424   6.351  1.00  0.00     0.179 C 
HETATM   27  N   UNL     1      38.958 -11.390   4.233  1.00  0.00    -0.185 NA
HETATM   28  C   UNL     1      39.295 -11.646   2.970  1.00  0.00     0.150 A 
ENDBRANCH   1  22
TORSDOF 3
ENDMDL
MODEL 4
REMARK VINA RESULT:      -7.8      1.924      4.365
REMARK  3 active torsions:
REMARK  status: ('A' for Active; 'I' for Inactive)
REMARK    1  A    between atoms: C_7  and  C_8 
REMARK    2  A    between atoms: C_17  and  C_18 
REMARK       I    between atoms: C_18  and  N_19 
REMARK    3  A    between atoms: N_19  and  C_20 
ROOT
HETATM    1  C   UNL     1      41.866 -12.707   2.118  1.00  0.00     0.206 C 
HETATM    2  N   UNL     1      40.920 -11.761   1.513  1.00  0.00    -0.084 N 
HETATM    3  C   UNL     1      39.724 -12.127   0.956  1.00  0.00     0.725 A 
HETATM    4  N   UNL     1      39.106 -11.063   0.513  1.00  0.00    -0.054 NA
HETATM    5  C   UNL     1      39.994 -10.057   0.796  1.00  0.00     0.275 A 
HETATM    6  N   UNL     1      41.133 -10.433   1.390  1.00  0.00    -0.149 NA
HETATM    7  N   UNL     1      39.391 -13.431   0.904  1.00  0.00    -0.192 N 
HETATM    8  C   UNL     1      40.285 -14.451   1.220  1.00  0.00     0.037 C 
HETATM    9  C   UNL     1      39.870 -15.835   0.786  1.00  0.00     0.070 C 
HETATM   10  C   UNL     1      41.468 -14.145   1.811  1.00  0.00     0.063 C 
HETATM   11  H   UNL     1      38.557 -13.684   0.380  1.00  0.00     0.184 HD
ENDROOT
BRANCH  10  12
HETATM   12  C   UNL     1      42.536 -15.138   2.104  1.00  0.00     0.256 C 
HETATM   13  N   UNL     1      42.169 -16.086   3.033  1.00  0.00    -0.323 N 
HETATM   14  H   UNL     1      41.256 -15.986   3.458  1.00  0.00     0.169 HD
HETATM   15  O   UNL     1      43.617 -15.019   1.541  1.00  0.00    -0.267 OA
BRANCH  13  16
HETATM   16  C   UNL     1      42.911 -17.217   3.436  1.00  0.00     0.035 A 
HETATM   17  C   UNL     1      43.243 -18.277   2.590  1.00  0.00     0.029 A 
HETATM   18  C   UNL     1      43.956 -19.378   3.077  1.00  0.00     0.002 A 
HETATM   19  C   UNL     1      44.338 -19.431   4.414  1.00  0.00     0.000 A 
HETATM   20  C   UNL     1      44.014 -18.380   5.267  1.00  0.00     0.002 A 
HETATM   21  C   UNL     1      43.310 -17.275   4.779  1.00  0.00     0.029 A 
ENDBRANCH  13  16
ENDBRANCH  10  12
BRANCH   1  22
HETATM   22  C   UNL     1      41.936 -12.460   3.603  1.00  0.00     0.015 A 
HETATM   23  C   UNL     1      43.002 -11.989   4.359  1.00  0.00     0.036 A 
HETATM   24  C   UNL     1      44.380 -11.598   3.964  1.00  0.00     0.070 C 
HETATM   25  N   UNL     1      42.536 -11.898   5.648  1.00  0.00    -0.278 N 
HETATM   26  C   UNL     1      43.228 -11.388   6.809  1.00  0.00     0.179 C 
HETATM   27  N   UNL     1      41.280 -12.355   5.794  1.00  0.00    -0.185 NA
HETATM   28  C   UNL     1      40.904 -12.660   4.553  1.00  0.00     0.150 A 
ENDBRANCH   1  22
TORSDOF 3
ENDMDL
MODEL 5
REMARK VINA RESULT:      -7.7      2.000      5.649
REMARK  3 active torsions:
REMARK  status: ('A' for Active; 'I' for Inactive)
REMARK    1  A    between atoms: C_7  and  C_8 
REMARK    2  A    between atoms: C_17  and  C_18 
REMARK       I    between atoms: C_18  and  N_19 
REMARK    3  A    between atoms: N_19  and  C_20 
ROOT
HETATM    1  C   UNL     1      41.022 -14.985   4.714  1.00  0.00     0.206 C 
HETATM    2  N   UNL     1      41.980 -15.495   5.703  1.00  0.00    -0.084 N 
HETATM    3  C   UNL     1      43.209 -16.004   5.385  1.00  0.00     0.725 A 
HETATM    4  N   UNL     1      43.829 -16.364   6.479  1.00  0.00    -0.054 NA
HETATM    5  C   UNL     1      42.908 -16.083   7.455  1.00  0.00     0.275 A 
HETATM    6  N   UNL     1      41.748 -15.568   7.031  1.00  0.00    -0.149 NA
HETATM    7  N   UNL     1      43.570 -16.098   4.090  1.00  0.00    -0.192 N 
HETATM    8  C   UNL     1      42.681 -15.877   3.042  1.00  0.00     0.037 C 
HETATM    9  C   UNL     1      43.145 -16.352   1.687  1.00  0.00     0.070 C 
HETATM   10  C   UNL     1      41.464 -15.336   3.299  1.00  0.00     0.063 C 
HETATM   11  H   UNL     1      44.435 -16.589   3.876  1.00  0.00     0.184 HD
ENDROOT
BRANCH  10  12
HETATM   12  C   UNL     1      40.401 -15.146   2.275  1.00  0.00     0.256 C 
HETATM   13  N   UNL     1      40.615 -14.064   1.451  1.00  0.00    -0.323 N 
HETATM   14  H   UNL     1      41.421 -13.484   1.651  1.00  0.00     0.169 HD
HETATM   15  O   UNL     1      39.450 -15.917   2.268  1.00  0.00    -0.267 OA
BRANCH  13  16
HETATM   16  C   UNL     1      39.856 -13.687   0.322  1.00  0.00     0.035 A 
HETATM   17  C   UNL     1      39.121 -12.503   0.234  1.00  0.00     0.029 A 
HETATM   18  C   UNL     1      38.369 -12.219  -0.910  1.00  0.00     0.002 A 
HETATM   19  C   UNL     1      38.339 -13.117  -1.973  1.00  0.00     0.000 A 
HETATM   20  C   UNL     1      39.069 -14.301  -1.897  1.00  0.00     0.002 A 
HETATM   21  C   UNL     1      39.828 -14.582  -0.757  1.00  0.00     0.029 A 
ENDBRANCH  13  16
ENDBRANCH  10  12
BRANCH   1  22
HETATM   22  C   UNL     1      40.870 -13.495   4.890  1.00  0.00     0.015 A 
HETATM   23  C   UNL     1      41.801 -12.491   4.659  1.00  0.00     0.036 A 
HETATM   24  C   UNL     1      43.209 -12.556   4.187  1.00  0.00     0.070 C 
HETATM   25  N   UNL     1      41.152 -11.310   4.925  1.00  0.00    -0.278 N 
HETATM   26  C   UNL     1      41.653  -9.965   4.764  1.00  0.00     0.179 C 
HETATM   27  N   UNL     1      39.902 -11.483   5.392  1.00  0.00    -0.185 NA
HETATM   28  C   UNL     1      39.719 -12.800   5.336  1.00  0.00     0.150 A 
ENDBRANCH   1  22
TORSDOF 3
ENDMDL
MODEL 6
REMARK VINA RESULT:      -7.5      2.062      5.386
REMARK  3 active torsions:
REMARK  status: ('A' for Active; 'I' for Inactive)
REMARK    1  A    between atoms: C_7  and  C_8 
REMARK    2  A    between atoms: C_17  and  C_18 
REMARK       I    between atoms: C_18  and  N_19 
REMARK    3  A    between atoms: N_19  and  C_20 
ROOT
HETATM    1  C   UNL     1      43.072 -12.884   5.576  1.00  0.00     0.206 C 
HETATM    2  N   UNL     1      43.903 -12.004   6.406  1.00  0.00    -0.084 N 
HETATM    3  C   UNL     1      43.409 -10.975   7.162  1.00  0.00     0.725 A 
HETATM    4  N   UNL     1      44.391 -10.386   7.793  1.00  0.00    -0.054 NA
HETATM    5  C   UNL     1      45.490 -11.081   7.357  1.00  0.00     0.275 A 
HETATM    6  N   UNL     1      45.249 -12.069   6.489  1.00  0.00    -0.149 NA
HETATM    7  N   UNL     1      42.090 -10.702   7.123  1.00  0.00    -0.192 N 
HETATM    8  C   UNL     1      41.224 -11.294   6.208  1.00  0.00     0.037 C 
HETATM    9  C   UNL     1      39.873 -10.634   6.073  1.00  0.00     0.070 C 
HETATM   10  C   UNL     1      41.652 -12.344   5.463  1.00  0.00     0.063 C 
HETATM   11  H   UNL     1      41.768  -9.861   7.597  1.00  0.00     0.184 HD
ENDROOT
BRANCH  10  12
HETATM   12  C   UNL     1      40.849 -12.989   4.390  1.00  0.00     0.256 C 
HETATM   13  N   UNL     1      41.175 -12.562   3.122  1.00  0.00    -0.323 N 
HETATM   14  H   UNL     1      41.869 -11.829   3.047  1.00  0.00     0.169 HD
HETATM   15  O   UNL     1      39.981 -13.791   4.711  1.00  0.00    -0.267 OA
BRANCH  13  16
HETATM   16  C   UNL     1      40.677 -13.060   1.899  1.00  0.00     0.035 A 
HETATM   17  C   UNL     1      40.991 -14.320   1.383  1.00  0.00     0.029 A 
HETATM   18  C   UNL     1      40.479 -14.727   0.146  1.00  0.00     0.002 A 
HETATM   19  C   UNL     1      39.655 -13.878  -0.587  1.00  0.00     0.000 A 
HETATM   20  C   UNL     1      39.335 -12.621  -0.082  1.00  0.00     0.002 A 
HETATM   21  C   UNL     1      39.839 -12.216   1.158  1.00  0.00     0.029 A 
ENDBRANCH  13  16
ENDBRANCH  10  12
BRANCH   1  22
HETATM   22  C   UNL     1      43.088 -14.276   6.156  1.00  0.00     0.015 A 
HETATM   23  C   UNL     1      43.165 -15.495   5.494  1.00  0.00     0.036 A 
HETATM   24  C   UNL     1      43.246 -15.814   4.045  1.00  0.00     0.070 C 
HETATM   25  N   UNL     1      43.194 -16.453   6.477  1.00  0.00    -0.278 N 
HETATM   26  C   UNL     1      43.348 -17.881   6.321  1.00  0.00     0.179 C 
HETATM   27  N   UNL     1      43.053 -15.950   7.716  1.00  0.00    -0.185 NA
HETATM   28  C   UNL     1      43.026 -14.632   7.525  1.00  0.00     0.150 A 
ENDBRANCH   1  22
TORSDOF 3
ENDMDL
MODEL 7
REMARK VINA RESULT:      -7.3      2.358      6.346
REMARK  3 active torsions:
REMARK  status: ('A' for Active; 'I' for Inactive)
REMARK    1  A    between atoms: C_7  and  C_8 
REMARK    2  A    between atoms: C_17  and  C_18 
REMARK       I    between atoms: C_18  and  N_19 
REMARK    3  A    between atoms: N_19  and  C_20 
ROOT
HETATM    1  C   UNL     1      41.071 -14.380   3.843  1.00  0.00     0.206 C 
HETATM    2  N   UNL     1      40.631 -14.814   2.512  1.00  0.00    -0.084 N 
HETATM    3  C   UNL     1      40.946 -14.160   1.351  1.00  0.00     0.725 A 
HETATM    4  N   UNL     1      40.418 -14.793   0.336  1.00  0.00    -0.054 NA
HETATM    5  C   UNL     1      39.750 -15.828   0.939  1.00  0.00     0.275 A 
HETATM    6  N   UNL     1      39.829 -15.874   2.274  1.00  0.00    -0.149 NA
HETATM    7  N   UNL     1      41.662 -13.020   1.409  1.00  0.00    -0.192 N 
HETATM    8  C   UNL     1      41.943 -12.366   2.606  1.00  0.00     0.037 C 
HETATM    9  C   UNL     1      42.446 -10.951   2.469  1.00  0.00     0.070 C 
HETATM   10  C   UNL     1      41.687 -12.988   3.785  1.00  0.00     0.063 C 
HETATM   11  H   UNL     1      41.778 -12.492   0.548  1.00  0.00     0.184 HD
ENDROOT
BRANCH  10  12
HETATM   12  C   UNL     1      41.856 -12.351   5.119  1.00  0.00     0.256 C 
HETATM   13  N   UNL     1      43.148 -11.950   5.380  1.00  0.00    -0.323 N 
HETATM   14  H   UNL     1      43.849 -12.172   4.684  1.00  0.00     0.169 HD
HETATM   15  O   UNL     1      40.882 -12.266   5.855  1.00  0.00    -0.267 OA
BRANCH  13  16
HETATM   16  C   UNL     1      43.605 -11.222   6.499  1.00  0.00     0.035 A 
HETATM   17  C   UNL     1      42.908 -10.159   7.078  1.00  0.00     0.029 A 
HETATM   18  C   UNL     1      43.446  -9.468   8.168  1.00  0.00     0.002 A 
HETATM   19  C   UNL     1      44.687  -9.828   8.685  1.00  0.00     0.000 A 
HETATM   20  C   UNL     1      45.391 -10.886   8.117  1.00  0.00     0.002 A 
HETATM   21  C   UNL     1      44.850 -11.583   7.033  1.00  0.00     0.029 A 
ENDBRANCH  13  16
ENDBRANCH  10  12
BRANCH   1  22
HETATM   22  C   UNL     1      42.042 -15.390   4.400  1.00  0.00     0.015 A 
HETATM   23  C   UNL     1      42.011 -16.045   5.625  1.00  0.00     0.036 A 
HETATM   24  C   UNL     1      41.047 -15.959   6.752  1.00  0.00     0.070 C 
HETATM   25  N   UNL     1      43.092 -16.892   5.623  1.00  0.00    -0.278 N 
HETATM   26  C   UNL     1      43.468 -17.854   6.633  1.00  0.00     0.179 C 
HETATM   27  N   UNL     1      43.864 -16.769   4.529  1.00  0.00    -0.185 NA
HETATM   28  C   UNL     1      43.210 -15.889   3.773  1.00  0.00     0.150 A 
ENDBRANCH   1  22
TORSDOF 3
ENDMDL
MODEL 8
REMARK VINA RESULT:      -7.0      2.919      6.270
REMARK  3 active torsions:
REMARK  status: ('A' for Active; 'I' for Inactive)
REMARK    1  A    between atoms: C_7  and  C_8 
REMARK    2  A    between atoms: C_17  and  C_18 
REMARK       I    between atoms: C_18  and  N_19 
REMARK    3  A    between atoms: N_19  and  C_20 
ROOT
HETATM    1  C   UNL     1      41.958 -12.560   3.228  1.00  0.00     0.206 C 
HETATM    2  N   UNL     1      41.317 -13.734   2.625  1.00  0.00    -0.084 N 
HETATM    3  C   UNL     1      41.249 -14.962   3.225  1.00  0.00     0.725 A 
HETATM    4  N   UNL     1      40.611 -15.795   2.446  1.00  0.00    -0.054 NA
HETATM    5  C   UNL     1      40.333 -15.026   1.344  1.00  0.00     0.275 A 
HETATM    6  N   UNL     1      40.763 -13.760   1.393  1.00  0.00    -0.149 NA
HETATM    7  N   UNL     1      41.839 -15.145   4.423  1.00  0.00    -0.192 N 
HETATM    8  C   UNL     1      42.679 -14.197   5.002  1.00  0.00     0.037 C 
HETATM    9  C   UNL     1      43.515 -14.691   6.157  1.00  0.00     0.070 C 
HETATM   10  C   UNL     1      42.752 -12.952   4.468  1.00  0.00     0.063 C 
HETATM   11  H   UNL     1      41.878 -16.093   4.790  1.00  0.00     0.184 HD
ENDROOT
BRANCH  10  12
HETATM   12  C   UNL     1      43.684 -11.893   4.942  1.00  0.00     0.256 C 
HETATM   13  N   UNL     1      43.473 -11.517   6.251  1.00  0.00    -0.323 N 
HETATM   14  H   UNL     1      42.690 -11.942   6.732  1.00  0.00     0.169 HD
HETATM   15  O   UNL     1      44.507 -11.443   4.156  1.00  0.00    -0.267 OA
BRANCH  13  16
HETATM   16  C   UNL     1      44.254 -10.628   7.019  1.00  0.00     0.035 A 
HETATM   17  C   UNL     1      45.637 -10.737   7.175  1.00  0.00     0.029 A 
HETATM   18  C   UNL     1      46.334  -9.831   7.981  1.00  0.00     0.002 A 
HETATM   19  C   UNL     1      45.655  -8.811   8.641  1.00  0.00     0.000 A 
HETATM   20  C   UNL     1      44.276  -8.691   8.492  1.00  0.00     0.002 A 
HETATM   21  C   UNL     1      43.580  -9.591   7.680  1.00  0.00     0.029 A 
ENDBRANCH  13  16
ENDBRANCH  10  12
BRANCH   1  22
HETATM   22  C   UNL     1      40.907 -11.529   3.550  1.00  0.00     0.015 A 
HETATM   23  C   UNL     1      39.928 -11.560   4.536  1.00  0.00     0.036 A 
HETATM   24  C   UNL     1      39.604 -12.590   5.556  1.00  0.00     0.070 C 
HETATM   25  N   UNL     1      39.263 -10.362   4.440  1.00  0.00    -0.278 N 
HETATM   26  C   UNL     1      38.206  -9.863   5.289  1.00  0.00     0.179 C 
HETATM   27  N   UNL     1      39.681  -9.601   3.413  1.00  0.00    -0.185 NA
HETATM   28  C   UNL     1      40.698 -10.288   2.898  1.00  0.00     0.150 A 
ENDBRANCH   1  22
TORSDOF 3
ENDMDL
MODEL 9
REMARK VINA RESULT:      -7.0     15.646     17.518
REMARK  3 active torsions:
REMARK  status: ('A' for Active; 'I' for Inactive)
REMARK    1  A    between atoms: C_7  and  C_8 
REMARK    2  A    between atoms: C_17  and  C_18 
REMARK       I    between atoms: C_18  and  N_19 
REMARK    3  A    between atoms: N_19  and  C_20 
ROOT
HETATM    1  C   UNL     1      43.061 -30.855   2.312  1.00  0.00     0.206 C 
HETATM    2  N   UNL     1      41.938 -31.141   3.213  1.00  0.00    -0.084 N 
HETATM    3  C   UNL     1      41.127 -32.238   3.100  1.00  0.00     0.725 A 
HETATM    4  N   UNL     1      40.231 -32.217   4.052  1.00  0.00    -0.054 NA
HETATM    5  C   UNL     1      40.517 -31.050   4.713  1.00  0.00     0.275 A 
HETATM    6  N   UNL     1      41.542 -30.341   4.226  1.00  0.00    -0.149 NA
HETATM    7  N   UNL     1      41.319 -33.099   2.082  1.00  0.00    -0.192 N 
HETATM    8  C   UNL     1      42.183 -32.834   1.023  1.00  0.00     0.037 C 
HETATM    9  C   UNL     1      42.023 -33.725  -0.184  1.00  0.00     0.070 C 
HETATM   10  C   UNL     1      43.036 -31.781   1.103  1.00  0.00     0.063 C 
HETATM   11  H   UNL     1      40.630 -33.836   1.952  1.00  0.00     0.184 HD
ENDROOT
BRANCH  10  12
HETATM   12  C   UNL     1      43.932 -31.347  -0.004  1.00  0.00     0.256 C 
HETATM   13  N   UNL     1      43.468 -30.248  -0.691  1.00  0.00    -0.323 N 
HETATM   14  H   UNL     1      42.561 -29.885  -0.424  1.00  0.00     0.169 HD
HETATM   15  O   UNL     1      44.949 -31.993  -0.221  1.00  0.00    -0.267 OA
BRANCH  13  16
HETATM   16  C   UNL     1      44.136 -29.535  -1.710  1.00  0.00     0.035 A 
HETATM   17  C   UNL     1      44.953 -28.426  -1.481  1.00  0.00     0.029 A 
HETATM   18  C   UNL     1      45.555 -27.755  -2.551  1.00  0.00     0.002 A 
HETATM   19  C   UNL     1      45.341 -28.183  -3.858  1.00  0.00     0.000 A 
HETATM   20  C   UNL     1      44.528 -29.288  -4.098  1.00  0.00     0.002 A 
HETATM   21  C   UNL     1      43.934 -29.964  -3.029  1.00  0.00     0.029 A 
ENDBRANCH  13  16
ENDBRANCH  10  12
BRANCH   1  22
HETATM   22  C   UNL     1      44.355 -30.978   3.073  1.00  0.00     0.015 A 
HETATM   23  C   UNL     1      45.469 -30.148   3.038  1.00  0.00     0.036 A 
HETATM   24  C   UNL     1      45.741 -28.913   2.257  1.00  0.00     0.070 C 
HETATM   25  N   UNL     1      46.354 -30.670   3.950  1.00  0.00    -0.278 N 
HETATM   26  C   UNL     1      47.635 -30.136   4.351  1.00  0.00     0.179 C 
HETATM   27  N   UNL     1      45.931 -31.821   4.504  1.00  0.00    -0.185 NA
HETATM   28  C   UNL     1      44.709 -31.987   4.003  1.00  0.00     0.150 A 
ENDBRANCH   1  22
TORSDOF 3
ENDMDL
MODEL 10
REMARK VINA RESULT:      -6.9     15.765     17.819
REMARK  3 active torsions:
REMARK  status: ('A' for Active; 'I' for Inactive)
REMARK    1  A    between atoms: C_7  and  C_8 
REMARK    2  A    between atoms: C_17  and  C_18 
REMARK       I    between atoms: C_18  and  N_19 
REMARK    3  A    between atoms: N_19  and  C_20 
ROOT
HETATM    1  C   UNL     1      45.594 -29.454  -2.056  1.00  0.00     0.206 C 
HETATM    2  N   UNL     1      45.125 -29.864  -3.385  1.00  0.00    -0.084 N 
HETATM    3  C   UNL     1      45.746 -30.808  -4.157  1.00  0.00     0.725 A 
HETATM    4  N   UNL     1      45.087 -30.958  -5.276  1.00  0.00    -0.054 NA
HETATM    5  C   UNL     1      44.072 -30.043  -5.155  1.00  0.00     0.275 A 
HETATM    6  N   UNL     1      44.062 -29.330  -4.023  1.00  0.00    -0.149 NA
HETATM    7  N   UNL     1      46.884 -31.379  -3.716  1.00  0.00    -0.192 N 
HETATM    8  C   UNL     1      47.570 -30.923  -2.593  1.00  0.00     0.037 C 
HETATM    9  C   UNL     1      48.979 -31.439  -2.439  1.00  0.00     0.070 C 
HETATM   10  C   UNL     1      46.982 -30.016  -1.772  1.00  0.00     0.063 C 
HETATM   11  H   UNL     1      47.387 -31.985  -4.358  1.00  0.00     0.184 HD
ENDROOT
BRANCH  10  12
HETATM   12  C   UNL     1      47.655 -29.389  -0.603  1.00  0.00     0.256 C 
HETATM   13  N   UNL     1      47.779 -30.231   0.480  1.00  0.00    -0.323 N 
HETATM   14  H   UNL     1      47.362 -31.149   0.401  1.00  0.00     0.169 HD
HETATM   15  O   UNL     1      48.002 -28.218  -0.686  1.00  0.00    -0.267 OA
BRANCH  13  16
HETATM   16  C   UNL     1      48.464 -29.972   1.687  1.00  0.00     0.035 A 
HETATM   17  C   UNL     1      47.987 -29.126   2.691  1.00  0.00     0.029 A 
HETATM   18  C   UNL     1      48.742 -28.899   3.846  1.00  0.00     0.002 A 
HETATM   19  C   UNL     1      49.982 -29.510   4.005  1.00  0.00     0.000 A 
HETATM   20  C   UNL     1      50.467 -30.357   3.012  1.00  0.00     0.002 A 
HETATM   21  C   UNL     1      49.709 -30.591   1.862  1.00  0.00     0.029 A 
ENDBRANCH  13  16
ENDBRANCH  10  12
BRANCH   1  22
HETATM   22  C   UNL     1      44.597 -29.899  -1.017  1.00  0.00     0.015 A 
HETATM   23  C   UNL     1      44.149 -31.183  -0.731  1.00  0.00     0.036 A 
HETATM   24  C   UNL     1      44.489 -32.493  -1.344  1.00  0.00     0.070 C 
HETATM   25  N   UNL     1      43.286 -31.051   0.329  1.00  0.00    -0.278 N 
HETATM   26  C   UNL     1      42.608 -32.098   1.058  1.00  0.00     0.179 C 
HETATM   27  N   UNL     1      43.078 -29.772   0.691  1.00  0.00    -0.185 NA
HETATM   28  C   UNL     1      43.898 -29.079  -0.096  1.00  0.00     0.150 A 
ENDBRANCH   1  22
TORSDOF 3
ENDMDL
