MODEL 1
REMARK VINA RESULT:      -7.9      0.000      0.000
REMARK  8 active torsions:
REMARK  status: ('A' for Active; 'I' for Inactive)
REMARK    1  A    between atoms: O_2  and  C_3 
REMARK    2  A    between atoms: C_3  and  C_4 
REMARK    3  A    between atoms: C_4  and  N_5 
REMARK    4  A    between atoms: N_5  and  C_6 
REMARK       I    between atoms: N_5  and  C_15 
REMARK    5  A    between atoms: C_6  and  C_7 
REMARK    6  A    between atoms: C_11  and  O_12 
REMARK    7  A    between atoms: C_15  and  C_17 
REMARK    8  A    between atoms: C_22  and  C_26 
ROOT
HETATM    1  N   UNL     1      41.220 -11.176   2.378  1.00  0.00    -0.340 N 
HETATM    2  C   UNL     1      42.423 -11.664   2.937  1.00  0.00     0.279 C 
HETATM    3  O   UNL     1      43.332 -10.877   3.214  1.00  0.00    -0.265 OA
ENDROOT
BRANCH   2   4
HETATM    4  C   UNL     1      42.581 -13.105   3.186  1.00  0.00     0.166 A 
HETATM    5  N   UNL     1      42.522 -13.690   4.365  1.00  0.00    -0.235 NA
HETATM    6  C   UNL     1      42.763 -15.046   4.237  1.00  0.00     0.075 A 
HETATM    7  C   UNL     1      42.817 -15.982   5.287  1.00  0.00     0.034 A 
HETATM    8  C   UNL     1      42.983 -15.492   2.934  1.00  0.00     0.036 A 
HETATM    9  C   UNL     1      43.104 -17.327   5.008  1.00  0.00     0.014 A 
HETATM   10  C   UNL     1      43.333 -17.761   3.698  1.00  0.00    -0.022 A 
HETATM   11  C   UNL     1      43.265 -16.838   2.642  1.00  0.00     0.033 A 
HETATM   12  S   UNL     1      42.851 -14.160   1.856  1.00  0.00    -0.063 SA
BRANCH  10  13
HETATM   13  C   UNL     1      43.660 -19.148   3.412  1.00  0.00     0.010 A 
HETATM   14  C   UNL     1      43.597 -19.882   2.203  1.00  0.00     0.152 A 
HETATM   15  N   UNL     1      43.972 -21.155   2.349  1.00  0.00    -0.187 NA
HETATM   16  N   UNL     1      44.272 -21.246   3.653  1.00  0.00    -0.289 N 
HETATM   17  H   UNL     1      44.585 -22.142   4.014  1.00  0.00     0.188 HD
HETATM   18  C   UNL     1      44.103 -20.073   4.333  1.00  0.00     0.123 A 
ENDBRANCH  10  13
ENDBRANCH   2   4
BRANCH   1  19
HETATM   19  C   UNL     1      41.027  -9.735   2.138  1.00  0.00     0.152 C 
BRANCH  19  20
HETATM   20  C   UNL     1      41.081  -9.199   0.701  1.00  0.00     0.187 C 
BRANCH  20  21
HETATM   21  O   UNL     1      42.078  -9.934  -0.022  1.00  0.00    -0.394 OA
HETATM   22  C   UNL     1      41.622 -10.277  -1.326  1.00  0.00     0.201 C 
ENDBRANCH  20  21
ENDBRANCH  19  20
ENDBRANCH   1  19
BRANCH   1  23
HETATM   23  C   UNL     1      39.978 -11.959   2.402  1.00  0.00     0.164 C 
BRANCH  23  24
HETATM   24  C   UNL     1      39.312 -12.176   1.060  1.00  0.00    -0.038 A 
HETATM   25  C   UNL     1      38.186 -11.460   0.637  1.00  0.00     0.009 A 
HETATM   26  C   UNL     1      37.627 -11.695  -0.619  1.00  0.00     0.003 A 
HETATM   27  C   UNL     1      38.199 -12.639  -1.473  1.00  0.00     0.037 A 
HETATM   28  C   UNL     1      39.333 -13.351  -1.083  1.00  0.00     0.068 A 
HETATM   29  C   UNL     1      39.883 -13.118   0.179  1.00  0.00     0.045 A 
BRANCH  28  30
HETATM   30  O   UNL     1      39.802 -14.237  -2.015  1.00  0.00    -0.356 OA
HETATM   31  C   UNL     1      38.839 -15.055  -2.668  1.00  0.00     0.210 C 
ENDBRANCH  28  30
ENDBRANCH  23  24
ENDBRANCH   1  23
TORSDOF 8
ENDMDL
MODEL 2
REMARK VINA RESULT:      -7.8      1.284      2.070
REMARK  8 active torsions:
REMARK  status: ('A' for Active; 'I' for Inactive)
REMARK    1  A    between atoms: O_2  and  C_3 
REMARK    2  A    between atoms: C_3  and  C_4 
REMARK    3  A    between atoms: C_4  and  N_5 
REMARK    4  A    between atoms: N_5  and  C_6 
REMARK       I    between atoms: N_5  and  C_15 
REMARK    5  A    between atoms: C_6  and  C_7 
REMARK    6  A    between atoms: C_11  and  O_12 
REMARK    7  A    between atoms: C_15  and  C_17 
REMARK    8  A    between atoms: C_22  and  C_26 
ROOT
HETATM    1  N   UNL     1      41.161 -11.348   2.330  1.00  0.00    -0.340 N 
HETATM    2  C   UNL     1      42.424 -11.763   2.808  1.00  0.00     0.279 C 
HETATM    3  O   UNL     1      43.250 -10.920   3.166  1.00  0.00    -0.265 OA
ENDROOT
BRANCH   2   4
HETATM    4  C   UNL     1      42.743 -13.197   2.878  1.00  0.00     0.166 A 
HETATM    5  N   UNL     1      42.894 -14.001   1.843  1.00  0.00    -0.235 NA
HETATM    6  C   UNL     1      43.139 -15.292   2.274  1.00  0.00     0.075 A 
HETATM    7  C   UNL     1      43.314 -16.422   1.452  1.00  0.00     0.034 A 
HETATM    8  C   UNL     1      43.198 -15.458   3.657  1.00  0.00     0.036 A 
HETATM    9  C   UNL     1      43.524 -17.681   2.034  1.00  0.00     0.014 A 
HETATM   10  C   UNL     1      43.572 -17.837   3.423  1.00  0.00    -0.022 A 
HETATM   11  C   UNL     1      43.414 -16.714   4.251  1.00  0.00     0.033 A 
HETATM   12  S   UNL     1      42.964 -13.934   4.415  1.00  0.00    -0.063 SA
BRANCH  10  13
HETATM   13  C   UNL     1      43.761 -19.146   4.026  1.00  0.00     0.010 A 
HETATM   14  C   UNL     1      43.963 -19.521   5.376  1.00  0.00     0.152 A 
HETATM   15  N   UNL     1      44.111 -20.838   5.532  1.00  0.00    -0.187 NA
HETATM   16  N   UNL     1      44.010 -21.315   4.283  1.00  0.00    -0.289 N 
HETATM   17  H   UNL     1      44.098 -22.317   4.141  1.00  0.00     0.188 HD
HETATM   18  C   UNL     1      43.799 -20.344   3.345  1.00  0.00     0.123 A 
ENDBRANCH  10  13
ENDBRANCH   2   4
BRANCH   1  19
HETATM   19  C   UNL     1      40.807  -9.919   2.269  1.00  0.00     0.152 C 
BRANCH  19  20
HETATM   20  C   UNL     1      40.964  -9.162   0.945  1.00  0.00     0.187 C 
BRANCH  20  21
HETATM   21  O   UNL     1      42.023  -9.771   0.193  1.00  0.00    -0.394 OA
HETATM   22  C   UNL     1      41.591 -10.124  -1.116  1.00  0.00     0.201 C 
ENDBRANCH  20  21
ENDBRANCH  19  20
ENDBRANCH   1  19
BRANCH   1  23
HETATM   23  C   UNL     1      40.012 -12.260   2.275  1.00  0.00     0.164 C 
BRANCH  23  24
HETATM   24  C   UNL     1      39.553 -12.657   0.889  1.00  0.00    -0.038 A 
HETATM   25  C   UNL     1      39.998 -13.812   0.234  1.00  0.00     0.009 A 
HETATM   26  C   UNL     1      39.524 -14.132  -1.038  1.00  0.00     0.003 A 
HETATM   27  C   UNL     1      38.588 -13.309  -1.663  1.00  0.00     0.037 A 
HETATM   28  C   UNL     1      38.114 -12.164  -1.024  1.00  0.00     0.068 A 
HETATM   29  C   UNL     1      38.598 -11.843   0.246  1.00  0.00     0.045 A 
BRANCH  28  30
HETATM   30  O   UNL     1      37.190 -11.449  -1.738  1.00  0.00    -0.356 OA
HETATM   31  C   UNL     1      37.664 -10.743  -2.879  1.00  0.00     0.210 C 
ENDBRANCH  28  30
ENDBRANCH  23  24
ENDBRANCH   1  23
TORSDOF 8
ENDMDL
MODEL 3
REMARK VINA RESULT:      -7.7      2.093      2.913
REMARK  8 active torsions:
REMARK  status: ('A' for Active; 'I' for Inactive)
REMARK    1  A    between atoms: O_2  and  C_3 
REMARK    2  A    between atoms: C_3  and  C_4 
REMARK    3  A    between atoms: C_4  and  N_5 
REMARK    4  A    between atoms: N_5  and  C_6 
REMARK       I    between atoms: N_5  and  C_15 
REMARK    5  A    between atoms: C_6  and  C_7 
REMARK    6  A    between atoms: C_11  and  O_12 
REMARK    7  A    between atoms: C_15  and  C_17 
REMARK    8  A    between atoms: C_22  and  C_26 
ROOT
HETATM    1  N   UNL     1      40.240 -11.466   4.108  1.00  0.00    -0.340 N 
HETATM    2  C   UNL     1      41.492 -11.908   4.591  1.00  0.00     0.279 C 
HETATM    3  O   UNL     1      42.153 -11.179   5.336  1.00  0.00    -0.265 OA
ENDROOT
BRANCH   2   4
HETATM    4  C   UNL     1      41.997 -13.235   4.205  1.00  0.00     0.166 A 
HETATM    5  N   UNL     1      42.377 -13.588   2.993  1.00  0.00    -0.235 NA
HETATM    6  C   UNL     1      42.746 -14.921   2.980  1.00  0.00     0.075 A 
HETATM    7  C   UNL     1      43.171 -15.652   1.854  1.00  0.00     0.034 A 
HETATM    8  C   UNL     1      42.666 -15.575   4.208  1.00  0.00     0.036 A 
HETATM    9  C   UNL     1      43.485 -17.013   1.985  1.00  0.00     0.014 A 
HETATM   10  C   UNL     1      43.391 -17.662   3.221  1.00  0.00    -0.022 A 
HETATM   11  C   UNL     1      42.985 -16.937   4.352  1.00  0.00     0.033 A 
HETATM   12  S   UNL     1      42.137 -14.459   5.403  1.00  0.00    -0.063 SA
BRANCH  10  13
HETATM   13  C   UNL     1      43.689 -19.078   3.351  1.00  0.00     0.010 A 
HETATM   14  C   UNL     1      43.665 -20.119   2.392  1.00  0.00     0.152 A 
HETATM   15  N   UNL     1      43.992 -21.306   2.907  1.00  0.00    -0.187 NA
HETATM   16  N   UNL     1      44.222 -21.035   4.200  1.00  0.00    -0.289 N 
HETATM   17  H   UNL     1      44.488 -21.799   4.813  1.00  0.00     0.188 HD
HETATM   18  C   UNL     1      44.055 -19.716   4.516  1.00  0.00     0.123 A 
ENDBRANCH  10  13
ENDBRANCH   2   4
BRANCH   1  19
HETATM   19  C   UNL     1      39.701 -10.150   4.495  1.00  0.00     0.152 C 
BRANCH  19  20
HETATM   20  C   UNL     1      38.362 -10.076   5.239  1.00  0.00     0.187 C 
BRANCH  20  21
HETATM   21  O   UNL     1      38.599 -10.331   6.630  1.00  0.00    -0.394 OA
HETATM   22  C   UNL     1      39.577  -9.442   7.159  1.00  0.00     0.201 C 
ENDBRANCH  20  21
ENDBRANCH  19  20
ENDBRANCH   1  19
BRANCH   1  23
HETATM   23  C   UNL     1      39.240 -12.398   3.573  1.00  0.00     0.164 C 
BRANCH  23  24
HETATM   24  C   UNL     1      38.830 -12.169   2.134  1.00  0.00    -0.038 A 
HETATM   25  C   UNL     1      37.720 -11.399   1.766  1.00  0.00     0.009 A 
HETATM   26  C   UNL     1      37.403 -11.211   0.420  1.00  0.00     0.003 A 
HETATM   27  C   UNL     1      38.203 -11.779  -0.572  1.00  0.00     0.037 A 
HETATM   28  C   UNL     1      39.324 -12.534  -0.231  1.00  0.00     0.068 A 
HETATM   29  C   UNL     1      39.632 -12.725   1.117  1.00  0.00     0.045 A 
BRANCH  28  30
HETATM   30  O   UNL     1      40.030 -13.025  -1.296  1.00  0.00    -0.356 OA
HETATM   31  C   UNL     1      40.905 -12.122  -1.961  1.00  0.00     0.210 C 
ENDBRANCH  28  30
ENDBRANCH  23  24
ENDBRANCH   1  23
TORSDOF 8
ENDMDL
MODEL 4
REMARK VINA RESULT:      -7.6      4.288      7.701
REMARK  8 active torsions:
REMARK  status: ('A' for Active; 'I' for Inactive)
REMARK    1  A    between atoms: O_2  and  C_3 
REMARK    2  A    between atoms: C_3  and  C_4 
REMARK    3  A    between atoms: C_4  and  N_5 
REMARK    4  A    between atoms: N_5  and  C_6 
REMARK       I    between atoms: N_5  and  C_15 
REMARK    5  A    between atoms: C_6  and  C_7 
REMARK    6  A    between atoms: C_11  and  O_12 
REMARK    7  A    between atoms: C_15  and  C_17 
REMARK    8  A    between atoms: C_22  and  C_26 
ROOT
HETATM    1  N   UNL     1      41.771 -12.920   2.133  1.00  0.00    -0.340 N 
HETATM    2  C   UNL     1      42.280 -11.636   2.433  1.00  0.00     0.279 C 
HETATM    3  O   UNL     1      42.334 -10.777   1.549  1.00  0.00    -0.265 OA
ENDROOT
BRANCH   2   4
HETATM    4  C   UNL     1      42.738 -11.333   3.798  1.00  0.00     0.166 A 
HETATM    5  N   UNL     1      43.899 -11.686   4.313  1.00  0.00    -0.235 NA
HETATM    6  C   UNL     1      43.978 -11.280   5.633  1.00  0.00     0.075 A 
HETATM    7  C   UNL     1      45.052 -11.516   6.511  1.00  0.00     0.034 A 
HETATM    8  C   UNL     1      42.867 -10.586   6.111  1.00  0.00     0.036 A 
HETATM    9  C   UNL     1      44.979 -11.069   7.839  1.00  0.00     0.014 A 
HETATM   10  C   UNL     1      43.855 -10.382   8.310  1.00  0.00    -0.022 A 
HETATM   11  C   UNL     1      42.785 -10.128   7.438  1.00  0.00     0.033 A 
HETATM   12  S   UNL     1      41.717 -10.428   4.843  1.00  0.00    -0.063 SA
BRANCH  10  13
HETATM   13  C   UNL     1      43.767  -9.945   9.693  1.00  0.00     0.010 A 
HETATM   14  C   UNL     1      43.559 -10.682  10.884  1.00  0.00     0.152 A 
HETATM   15  N   UNL     1      43.526  -9.910  11.972  1.00  0.00    -0.187 NA
HETATM   16  N   UNL     1      43.706  -8.673  11.485  1.00  0.00    -0.289 N 
HETATM   17  H   UNL     1      43.712  -7.896  12.138  1.00  0.00     0.188 HD
HETATM   18  C   UNL     1      43.856  -8.640  10.128  1.00  0.00     0.123 A 
ENDBRANCH  10  13
ENDBRANCH   2   4
BRANCH   1  19
HETATM   19  C   UNL     1      41.286 -13.244   0.781  1.00  0.00     0.152 C 
BRANCH  19  20
HETATM   20  C   UNL     1      39.791 -13.512   0.563  1.00  0.00     0.187 C 
BRANCH  20  21
HETATM   21  O   UNL     1      39.652 -14.658  -0.288  1.00  0.00    -0.394 OA
HETATM   22  C   UNL     1      39.571 -14.279  -1.657  1.00  0.00     0.201 C 
ENDBRANCH  20  21
ENDBRANCH  19  20
ENDBRANCH   1  19
BRANCH   1  23
HETATM   23  C   UNL     1      41.303 -13.835   3.182  1.00  0.00     0.164 C 
BRANCH  23  24
HETATM   24  C   UNL     1      41.983 -15.187   3.226  1.00  0.00    -0.038 A 
HETATM   25  C   UNL     1      41.737 -16.200   2.292  1.00  0.00     0.009 A 
HETATM   26  C   UNL     1      42.408 -17.420   2.377  1.00  0.00     0.003 A 
HETATM   27  C   UNL     1      43.345 -17.633   3.389  1.00  0.00     0.037 A 
HETATM   28  C   UNL     1      43.622 -16.632   4.319  1.00  0.00     0.068 A 
HETATM   29  C   UNL     1      42.941 -15.416   4.235  1.00  0.00     0.045 A 
BRANCH  28  30
HETATM   30  O   UNL     1      44.568 -16.962   5.252  1.00  0.00    -0.356 OA
HETATM   31  C   UNL     1      44.506 -16.283   6.500  1.00  0.00     0.210 C 
ENDBRANCH  28  30
ENDBRANCH  23  24
ENDBRANCH   1  23
TORSDOF 8
ENDMDL
MODEL 5
REMARK VINA RESULT:      -7.6      4.462      7.272
REMARK  8 active torsions:
REMARK  status: ('A' for Active; 'I' for Inactive)
REMARK    1  A    between atoms: O_2  and  C_3 
REMARK    2  A    between atoms: C_3  and  C_4 
REMARK    3  A    between atoms: C_4  and  N_5 
REMARK    4  A    between atoms: N_5  and  C_6 
REMARK       I    between atoms: N_5  and  C_15 
REMARK    5  A    between atoms: C_6  and  C_7 
REMARK    6  A    between atoms: C_11  and  O_12 
REMARK    7  A    between atoms: C_15  and  C_17 
REMARK    8  A    between atoms: C_22  and  C_26 
ROOT
HETATM    1  N   UNL     1      42.460 -10.790   5.912  1.00  0.00    -0.340 N 
HETATM    2  C   UNL     1      41.689 -11.482   4.950  1.00  0.00     0.279 C 
HETATM    3  O   UNL     1      40.645 -10.979   4.527  1.00  0.00    -0.265 OA
ENDROOT
BRANCH   2   4
HETATM    4  C   UNL     1      42.139 -12.793   4.460  1.00  0.00     0.166 A 
HETATM    5  N   UNL     1      42.564 -13.051   3.239  1.00  0.00    -0.235 NA
HETATM    6  C   UNL     1      42.859 -14.397   3.111  1.00  0.00     0.075 A 
HETATM    7  C   UNL     1      43.303 -15.041   1.941  1.00  0.00     0.034 A 
HETATM    8  C   UNL     1      42.676 -15.160   4.264  1.00  0.00     0.036 A 
HETATM    9  C   UNL     1      43.533 -16.425   1.951  1.00  0.00     0.014 A 
HETATM   10  C   UNL     1      43.337 -17.182   3.111  1.00  0.00    -0.022 A 
HETATM   11  C   UNL     1      42.910 -16.546   4.288  1.00  0.00     0.033 A 
HETATM   12  S   UNL     1      42.146 -14.133   5.536  1.00  0.00    -0.063 SA
BRANCH  10  13
HETATM   13  C   UNL     1      43.547 -18.620   3.115  1.00  0.00     0.010 A 
HETATM   14  C   UNL     1      43.328 -19.588   2.106  1.00  0.00     0.152 A 
HETATM   15  N   UNL     1      43.634 -20.826   2.501  1.00  0.00    -0.187 NA
HETATM   16  N   UNL     1      44.045 -20.660   3.766  1.00  0.00    -0.289 N 
HETATM   17  H   UNL     1      44.332 -21.480   4.291  1.00  0.00     0.188 HD
HETATM   18  C   UNL     1      44.013 -19.358   4.181  1.00  0.00     0.123 A 
ENDBRANCH  10  13
ENDBRANCH   2   4
BRANCH   1  19
HETATM   19  C   UNL     1      42.044  -9.466   6.406  1.00  0.00     0.152 C 
BRANCH  19  20
HETATM   20  C   UNL     1      41.019  -9.376   7.543  1.00  0.00     0.187 C 
BRANCH  20  21
HETATM   21  O   UNL     1      41.079  -8.059   8.108  1.00  0.00    -0.394 OA
HETATM   22  C   UNL     1      41.926  -8.024   9.251  1.00  0.00     0.201 C 
ENDBRANCH  20  21
ENDBRANCH  19  20
ENDBRANCH   1  19
BRANCH   1  23
HETATM   23  C   UNL     1      43.872 -11.111   6.154  1.00  0.00     0.164 C 
BRANCH  23  24
HETATM   24  C   UNL     1      44.447 -10.608   7.461  1.00  0.00    -0.038 A 
HETATM   25  C   UNL     1      45.422  -9.606   7.535  1.00  0.00     0.009 A 
HETATM   26  C   UNL     1      45.900  -9.173   8.771  1.00  0.00     0.003 A 
HETATM   27  C   UNL     1      45.396  -9.727   9.948  1.00  0.00     0.037 A 
HETATM   28  C   UNL     1      44.411 -10.712   9.902  1.00  0.00     0.068 A 
HETATM   29  C   UNL     1      43.942 -11.148   8.661  1.00  0.00     0.045 A 
BRANCH  28  30
HETATM   30  O   UNL     1      43.994 -11.164  11.125  1.00  0.00    -0.356 OA
HETATM   31  C   UNL     1      43.168 -10.293  11.887  1.00  0.00     0.210 C 
ENDBRANCH  28  30
ENDBRANCH  23  24
ENDBRANCH   1  23
TORSDOF 8
ENDMDL
MODEL 6
REMARK VINA RESULT:      -7.6      3.260      7.857
REMARK  8 active torsions:
REMARK  status: ('A' for Active; 'I' for Inactive)
REMARK    1  A    between atoms: O_2  and  C_3 
REMARK    2  A    between atoms: C_3  and  C_4 
REMARK    3  A    between atoms: C_4  and  N_5 
REMARK    4  A    between atoms: N_5  and  C_6 
REMARK       I    between atoms: N_5  and  C_15 
REMARK    5  A    between atoms: C_6  and  C_7 
REMARK    6  A    between atoms: C_11  and  O_12 
REMARK    7  A    between atoms: C_15  and  C_17 
REMARK    8  A    between atoms: C_22  and  C_26 
ROOT
HETATM    1  N   UNL     1      43.296 -12.340   5.158  1.00  0.00    -0.340 N 
HETATM    2  C   UNL     1      43.532 -12.009   3.805  1.00  0.00     0.279 C 
HETATM    3  O   UNL     1      44.594 -11.470   3.483  1.00  0.00    -0.265 OA
ENDROOT
BRANCH   2   4
HETATM    4  C   UNL     1      42.511 -12.312   2.790  1.00  0.00     0.166 A 
HETATM    5  N   UNL     1      42.321 -13.485   2.220  1.00  0.00    -0.235 NA
HETATM    6  C   UNL     1      41.311 -13.399   1.279  1.00  0.00     0.075 A 
HETATM    7  C   UNL     1      40.860 -14.442   0.448  1.00  0.00     0.034 A 
HETATM    8  C   UNL     1      40.715 -12.144   1.156  1.00  0.00     0.036 A 
HETATM    9  C   UNL     1      39.844 -14.199  -0.488  1.00  0.00     0.014 A 
HETATM   10  C   UNL     1      39.259 -12.933  -0.608  1.00  0.00    -0.022 A 
HETATM   11  C   UNL     1      39.691 -11.890   0.226  1.00  0.00     0.033 A 
HETATM   12  S   UNL     1      41.439 -11.068   2.283  1.00  0.00    -0.063 SA
BRANCH  10  13
HETATM   13  C   UNL     1      38.227 -12.673  -1.597  1.00  0.00     0.010 A 
HETATM   14  C   UNL     1      37.467 -11.507  -1.855  1.00  0.00     0.152 A 
HETATM   15  N   UNL     1      36.594 -11.667  -2.852  1.00  0.00    -0.187 NA
HETATM   16  N   UNL     1      36.784 -12.938  -3.235  1.00  0.00    -0.289 N 
HETATM   17  H   UNL     1      36.217 -13.303  -3.994  1.00  0.00     0.188 HD
HETATM   18  C   UNL     1      37.751 -13.583  -2.517  1.00  0.00     0.123 A 
ENDBRANCH  10  13
ENDBRANCH   2   4
BRANCH   1  19
HETATM   19  C   UNL     1      44.310 -12.067   6.192  1.00  0.00     0.152 C 
BRANCH  19  20
HETATM   20  C   UNL     1      43.880 -11.417   7.513  1.00  0.00     0.187 C 
BRANCH  20  21
HETATM   21  O   UNL     1      45.028 -11.310   8.364  1.00  0.00    -0.394 OA
HETATM   22  C   UNL     1      45.955 -10.352   7.865  1.00  0.00     0.201 C 
ENDBRANCH  20  21
ENDBRANCH  19  20
ENDBRANCH   1  19
BRANCH   1  23
HETATM   23  C   UNL     1      42.276 -13.319   5.553  1.00  0.00     0.164 C 
BRANCH  23  24
HETATM   24  C   UNL     1      42.797 -14.670   5.994  1.00  0.00    -0.038 A 
HETATM   25  C   UNL     1      42.789 -15.097   7.327  1.00  0.00     0.009 A 
HETATM   26  C   UNL     1      43.269 -16.362   7.669  1.00  0.00     0.003 A 
HETATM   27  C   UNL     1      43.747 -17.219   6.678  1.00  0.00     0.037 A 
HETATM   28  C   UNL     1      43.747 -16.825   5.341  1.00  0.00     0.068 A 
HETATM   29  C   UNL     1      43.273 -15.555   5.005  1.00  0.00     0.045 A 
BRANCH  28  30
HETATM   30  O   UNL     1      44.230 -17.761   4.467  1.00  0.00    -0.356 OA
HETATM   31  C   UNL     1      43.480 -17.981   3.278  1.00  0.00     0.210 C 
ENDBRANCH  28  30
ENDBRANCH  23  24
ENDBRANCH   1  23
TORSDOF 8
ENDMDL
MODEL 7
REMARK VINA RESULT:      -7.5      3.369      8.139
REMARK  8 active torsions:
REMARK  status: ('A' for Active; 'I' for Inactive)
REMARK    1  A    between atoms: O_2  and  C_3 
REMARK    2  A    between atoms: C_3  and  C_4 
REMARK    3  A    between atoms: C_4  and  N_5 
REMARK    4  A    between atoms: N_5  and  C_6 
REMARK       I    between atoms: N_5  and  C_15 
REMARK    5  A    between atoms: C_6  and  C_7 
REMARK    6  A    between atoms: C_11  and  O_12 
REMARK    7  A    between atoms: C_15  and  C_17 
REMARK    8  A    between atoms: C_22  and  C_26 
ROOT
HETATM    1  N   UNL     1      41.890 -15.439   5.476  1.00  0.00    -0.340 N 
HETATM    2  C   UNL     1      40.772 -14.646   5.129  1.00  0.00     0.279 C 
HETATM    3  O   UNL     1      39.982 -14.286   6.005  1.00  0.00    -0.265 OA
ENDROOT
BRANCH   2   4
HETATM    4  C   UNL     1      40.562 -14.255   3.727  1.00  0.00     0.166 A 
HETATM    5  N   UNL     1      40.241 -15.071   2.743  1.00  0.00    -0.235 NA
HETATM    6  C   UNL     1      40.172 -14.374   1.550  1.00  0.00     0.075 A 
HETATM    7  C   UNL     1      39.893 -14.923   0.284  1.00  0.00     0.034 A 
HETATM    8  C   UNL     1      40.420 -13.005   1.643  1.00  0.00     0.036 A 
HETATM    9  C   UNL     1      39.887 -14.095  -0.849  1.00  0.00     0.014 A 
HETATM   10  C   UNL     1      40.147 -12.724  -0.745  1.00  0.00    -0.022 A 
HETATM   11  C   UNL     1      40.411 -12.165   0.515  1.00  0.00     0.033 A 
HETATM   12  S   UNL     1      40.719 -12.601   3.286  1.00  0.00    -0.063 SA
BRANCH  10  13
HETATM   13  C   UNL     1      40.170 -11.872  -1.922  1.00  0.00     0.010 A 
HETATM   14  C   UNL     1      39.229 -10.927  -2.397  1.00  0.00     0.152 A 
HETATM   15  N   UNL     1      39.608 -10.347  -3.537  1.00  0.00    -0.187 NA
HETATM   16  N   UNL     1      40.791 -10.919  -3.803  1.00  0.00    -0.289 N 
HETATM   17  H   UNL     1      41.284 -10.637  -4.645  1.00  0.00     0.188 HD
HETATM   18  C   UNL     1      41.173 -11.838  -2.867  1.00  0.00     0.123 A 
ENDBRANCH  10  13
ENDBRANCH   2   4
BRANCH   1  19
HETATM   19  C   UNL     1      42.136 -15.828   6.875  1.00  0.00     0.152 C 
BRANCH  19  20
HETATM   20  C   UNL     1      43.188 -15.067   7.693  1.00  0.00     0.187 C 
BRANCH  20  21
HETATM   21  O   UNL     1      43.024 -13.663   7.453  1.00  0.00    -0.394 OA
HETATM   22  C   UNL     1      44.195 -13.097   6.875  1.00  0.00     0.201 C 
ENDBRANCH  20  21
ENDBRANCH  19  20
ENDBRANCH   1  19
BRANCH   1  23
HETATM   23  C   UNL     1      43.060 -15.560   4.597  1.00  0.00     0.164 C 
BRANCH  23  24
HETATM   24  C   UNL     1      43.257 -16.912   3.947  1.00  0.00    -0.038 A 
HETATM   25  C   UNL     1      42.863 -17.198   2.635  1.00  0.00     0.009 A 
HETATM   26  C   UNL     1      43.088 -18.460   2.086  1.00  0.00     0.003 A 
HETATM   27  C   UNL     1      43.723 -19.447   2.840  1.00  0.00     0.037 A 
HETATM   28  C   UNL     1      44.143 -19.181   4.143  1.00  0.00     0.068 A 
HETATM   29  C   UNL     1      43.909 -17.919   4.690  1.00  0.00     0.045 A 
BRANCH  28  30
HETATM   30  O   UNL     1      44.764 -20.228   4.770  1.00  0.00    -0.356 OA
HETATM   31  C   UNL     1      43.939 -21.110   5.521  1.00  0.00     0.210 C 
ENDBRANCH  28  30
ENDBRANCH  23  24
ENDBRANCH   1  23
TORSDOF 8
ENDMDL
MODEL 8
REMARK VINA RESULT:      -7.4      1.553      2.438
REMARK  8 active torsions:
REMARK  status: ('A' for Active; 'I' for Inactive)
REMARK    1  A    between atoms: O_2  and  C_3 
REMARK    2  A    between atoms: C_3  and  C_4 
REMARK    3  A    between atoms: C_4  and  N_5 
REMARK    4  A    between atoms: N_5  and  C_6 
REMARK       I    between atoms: N_5  and  C_15 
REMARK    5  A    between atoms: C_6  and  C_7 
REMARK    6  A    between atoms: C_11  and  O_12 
REMARK    7  A    between atoms: C_15  and  C_17 
REMARK    8  A    between atoms: C_22  and  C_26 
ROOT
HETATM    1  N   UNL     1      41.262 -11.129   2.658  1.00  0.00    -0.340 N 
HETATM    2  C   UNL     1      42.372 -11.625   3.379  1.00  0.00     0.279 C 
HETATM    3  O   UNL     1      43.052 -10.854   4.061  1.00  0.00    -0.265 OA
ENDROOT
BRANCH   2   4
HETATM    4  C   UNL     1      42.705 -13.055   3.312  1.00  0.00     0.166 A 
HETATM    5  N   UNL     1      42.885 -13.750   2.206  1.00  0.00    -0.235 NA
HETATM    6  C   UNL     1      43.136 -15.076   2.512  1.00  0.00     0.075 A 
HETATM    7  C   UNL     1      43.340 -16.116   1.586  1.00  0.00     0.034 A 
HETATM    8  C   UNL     1      43.169 -15.378   3.873  1.00  0.00     0.036 A 
HETATM    9  C   UNL     1      43.553 -17.425   2.044  1.00  0.00     0.014 A 
HETATM   10  C   UNL     1      43.575 -17.719   3.412  1.00  0.00    -0.022 A 
HETATM   11  C   UNL     1      43.388 -16.685   4.343  1.00  0.00     0.033 A 
HETATM   12  S   UNL     1      42.903 -13.939   4.773  1.00  0.00    -0.063 SA
BRANCH  10  13
HETATM   13  C   UNL     1      43.767 -19.079   3.886  1.00  0.00     0.010 A 
HETATM   14  C   UNL     1      44.029 -19.577   5.185  1.00  0.00     0.152 A 
HETATM   15  N   UNL     1      44.157 -20.905   5.215  1.00  0.00    -0.187 NA
HETATM   16  N   UNL     1      43.983 -21.266   3.936  1.00  0.00    -0.289 N 
HETATM   17  H   UNL     1      44.042 -22.252   3.701  1.00  0.00     0.188 HD
HETATM   18  C   UNL     1      43.745 -20.211   3.100  1.00  0.00     0.123 A 
ENDBRANCH  10  13
ENDBRANCH   2   4
BRANCH   1  19
HETATM   19  C   UNL     1      40.892  -9.704   2.723  1.00  0.00     0.152 C 
BRANCH  19  20
HETATM   20  C   UNL     1      39.518  -9.309   3.277  1.00  0.00     0.187 C 
BRANCH  20  21
HETATM   21  O   UNL     1      39.706  -8.336   4.313  1.00  0.00    -0.394 OA
HETATM   22  C   UNL     1      40.378  -8.899   5.435  1.00  0.00     0.201 C 
ENDBRANCH  20  21
ENDBRANCH  19  20
ENDBRANCH   1  19
BRANCH   1  23
HETATM   23  C   UNL     1      40.194 -12.011   2.171  1.00  0.00     0.164 C 
BRANCH  23  24
HETATM   24  C   UNL     1      40.245 -12.355   0.698  1.00  0.00    -0.038 A 
HETATM   25  C   UNL     1      40.919 -11.574  -0.249  1.00  0.00     0.009 A 
HETATM   26  C   UNL     1      40.944 -11.954  -1.592  1.00  0.00     0.003 A 
HETATM   27  C   UNL     1      40.307 -13.126  -1.998  1.00  0.00     0.037 A 
HETATM   28  C   UNL     1      39.645 -13.930  -1.071  1.00  0.00     0.068 A 
HETATM   29  C   UNL     1      39.617 -13.542   0.270  1.00  0.00     0.045 A 
BRANCH  28  30
HETATM   30  O   UNL     1      39.073 -15.058  -1.595  1.00  0.00    -0.356 OA
HETATM   31  C   UNL     1      38.659 -14.997  -2.955  1.00  0.00     0.210 C 
ENDBRANCH  28  30
ENDBRANCH  23  24
ENDBRANCH   1  23
TORSDOF 8
ENDMDL
MODEL 9
REMARK VINA RESULT:      -7.2      3.618      7.304
REMARK  8 active torsions:
REMARK  status: ('A' for Active; 'I' for Inactive)
REMARK    1  A    between atoms: O_2  and  C_3 
REMARK    2  A    between atoms: C_3  and  C_4 
REMARK    3  A    between atoms: C_4  and  N_5 
REMARK    4  A    between atoms: N_5  and  C_6 
REMARK       I    between atoms: N_5  and  C_15 
REMARK    5  A    between atoms: C_6  and  C_7 
REMARK    6  A    between atoms: C_11  and  O_12 
REMARK    7  A    between atoms: C_15  and  C_17 
REMARK    8  A    between atoms: C_22  and  C_26 
ROOT
HETATM    1  N   UNL     1      42.857 -11.250   5.262  1.00  0.00    -0.340 N 
HETATM    2  C   UNL     1      43.404 -11.657   4.024  1.00  0.00     0.279 C 
HETATM    3  O   UNL     1      44.612 -11.523   3.816  1.00  0.00    -0.265 OA
ENDROOT
BRANCH   2   4
HETATM    4  C   UNL     1      42.529 -12.241   2.997  1.00  0.00     0.166 A 
HETATM    5  N   UNL     1      42.250 -13.523   2.864  1.00  0.00    -0.235 NA
HETATM    6  C   UNL     1      41.436 -13.723   1.764  1.00  0.00     0.075 A 
HETATM    7  C   UNL     1      40.968 -14.964   1.293  1.00  0.00     0.034 A 
HETATM    8  C   UNL     1      41.076 -12.568   1.071  1.00  0.00     0.036 A 
HETATM    9  C   UNL     1      40.172 -15.017   0.139  1.00  0.00     0.014 A 
HETATM   10  C   UNL     1      39.824 -13.852  -0.554  1.00  0.00    -0.022 A 
HETATM   11  C   UNL     1      40.273 -12.608  -0.083  1.00  0.00     0.033 A 
HETATM   12  S   UNL     1      41.767 -11.205   1.857  1.00  0.00    -0.063 SA
BRANCH  10  13
HETATM   13  C   UNL     1      39.024 -13.908  -1.765  1.00  0.00     0.010 A 
HETATM   14  C   UNL     1      38.986 -14.869  -2.804  1.00  0.00     0.152 A 
HETATM   15  N   UNL     1      38.116 -14.558  -3.767  1.00  0.00    -0.187 NA
HETATM   16  N   UNL     1      37.595 -13.393  -3.355  1.00  0.00    -0.289 N 
HETATM   17  H   UNL     1      36.896 -12.945  -3.939  1.00  0.00     0.188 HD
HETATM   18  C   UNL     1      38.103 -12.962  -2.162  1.00  0.00     0.123 A 
ENDBRANCH  10  13
ENDBRANCH   2   4
BRANCH   1  19
HETATM   19  C   UNL     1      43.714 -10.681   6.317  1.00  0.00     0.152 C 
BRANCH  19  20
HETATM   20  C   UNL     1      43.071 -10.170   7.613  1.00  0.00     0.187 C 
BRANCH  20  21
HETATM   21  O   UNL     1      43.864 -10.613   8.722  1.00  0.00    -0.394 OA
HETATM   22  C   UNL     1      45.254 -10.528   8.430  1.00  0.00     0.201 C 
ENDBRANCH  20  21
ENDBRANCH  19  20
ENDBRANCH   1  19
BRANCH   1  23
HETATM   23  C   UNL     1      41.554 -11.735   5.735  1.00  0.00     0.164 C 
BRANCH  23  24
HETATM   24  C   UNL     1      41.498 -13.198   6.118  1.00  0.00    -0.038 A 
HETATM   25  C   UNL     1      40.335 -13.972   6.021  1.00  0.00     0.009 A 
HETATM   26  C   UNL     1      40.350 -15.322   6.375  1.00  0.00     0.003 A 
HETATM   27  C   UNL     1      41.534 -15.915   6.814  1.00  0.00     0.037 A 
HETATM   28  C   UNL     1      42.709 -15.171   6.901  1.00  0.00     0.068 A 
HETATM   29  C   UNL     1      42.686 -13.819   6.554  1.00  0.00     0.045 A 
BRANCH  28  30
HETATM   30  O   UNL     1      43.802 -15.873   7.334  1.00  0.00    -0.356 OA
HETATM   31  C   UNL     1      44.664 -16.404   6.335  1.00  0.00     0.210 C 
ENDBRANCH  28  30
ENDBRANCH  23  24
ENDBRANCH   1  23
TORSDOF 8
ENDMDL
MODEL 10
REMARK VINA RESULT:      -7.2      2.509      3.494
REMARK  8 active torsions:
REMARK  status: ('A' for Active; 'I' for Inactive)
REMARK    1  A    between atoms: O_2  and  C_3 
REMARK    2  A    between atoms: C_3  and  C_4 
REMARK    3  A    between atoms: C_4  and  N_5 
REMARK    4  A    between atoms: N_5  and  C_6 
REMARK       I    between atoms: N_5  and  C_15 
REMARK    5  A    between atoms: C_6  and  C_7 
REMARK    6  A    between atoms: C_11  and  O_12 
REMARK    7  A    between atoms: C_15  and  C_17 
REMARK    8  A    between atoms: C_22  and  C_26 
ROOT
HETATM    1  N   UNL     1      41.089 -11.433   6.034  1.00  0.00    -0.340 N 
HETATM    2  C   UNL     1      42.366 -12.025   6.157  1.00  0.00     0.279 C 
HETATM    3  O   UNL     1      43.224 -11.487   6.862  1.00  0.00    -0.265 OA
ENDROOT
BRANCH   2   4
HETATM    4  C   UNL     1      42.662 -13.278   5.446  1.00  0.00     0.166 A 
HETATM    5  N   UNL     1      42.782 -13.408   4.140  1.00  0.00    -0.235 NA
HETATM    6  C   UNL     1      43.013 -14.732   3.812  1.00  0.00     0.075 A 
HETATM    7  C   UNL     1      43.155 -15.252   2.512  1.00  0.00     0.034 A 
HETATM    8  C   UNL     1      43.092 -15.609   4.893  1.00  0.00     0.036 A 
HETATM    9  C   UNL     1      43.354 -16.629   2.329  1.00  0.00     0.014 A 
HETATM   10  C   UNL     1      43.422 -17.501   3.421  1.00  0.00    -0.022 A 
HETATM   11  C   UNL     1      43.297 -16.990   4.723  1.00  0.00     0.033 A 
HETATM   12  S   UNL     1      42.896 -14.720   6.351  1.00  0.00    -0.063 SA
BRANCH  10  13
HETATM   13  C   UNL     1      43.599 -18.931   3.232  1.00  0.00     0.010 A 
HETATM   14  C   UNL     1      43.371 -19.748   2.099  1.00  0.00     0.152 A 
HETATM   15  N   UNL     1      43.643 -21.035   2.324  1.00  0.00    -0.187 NA
HETATM   16  N   UNL     1      44.042 -21.052   3.604  1.00  0.00    -0.289 N 
HETATM   17  H   UNL     1      44.302 -21.943   4.016  1.00  0.00     0.188 HD
HETATM   18  C   UNL     1      44.035 -19.818   4.192  1.00  0.00     0.123 A 
ENDBRANCH  10  13
ENDBRANCH   2   4
BRANCH   1  19
HETATM   19  C   UNL     1      40.758 -10.190   6.751  1.00  0.00     0.152 C 
BRANCH  19  20
HETATM   20  C   UNL     1      41.050  -8.838   6.087  1.00  0.00     0.187 C 
BRANCH  20  21
HETATM   21  O   UNL     1      42.309  -8.354   6.573  1.00  0.00    -0.394 OA
HETATM   22  C   UNL     1      42.197  -7.869   7.906  1.00  0.00     0.201 C 
ENDBRANCH  20  21
ENDBRANCH  19  20
ENDBRANCH   1  19
BRANCH   1  23
HETATM   23  C   UNL     1      39.922 -12.192   5.566  1.00  0.00     0.164 C 
BRANCH  23  24
HETATM   24  C   UNL     1      39.449 -11.874   4.164  1.00  0.00    -0.038 A 
HETATM   25  C   UNL     1      38.779 -10.691   3.830  1.00  0.00     0.009 A 
HETATM   26  C   UNL     1      38.382 -10.449   2.515  1.00  0.00     0.003 A 
HETATM   27  C   UNL     1      38.666 -11.380   1.517  1.00  0.00     0.037 A 
HETATM   28  C   UNL     1      39.350 -12.557   1.820  1.00  0.00     0.068 A 
HETATM   29  C   UNL     1      39.737 -12.799   3.139  1.00  0.00     0.045 A 
BRANCH  28  30
HETATM   30  O   UNL     1      39.576 -13.381   0.750  1.00  0.00    -0.356 OA
HETATM   31  C   UNL     1      39.181 -12.900  -0.528  1.00  0.00     0.210 C 
ENDBRANCH  28  30
ENDBRANCH  23  24
ENDBRANCH   1  23
TORSDOF 8
ENDMDL
