MODEL 1
REMARK VINA RESULT:      -8.8      0.000      0.000
REMARK  7 active torsions:
REMARK  status: ('A' for Active; 'I' for Inactive)
REMARK    1  A    between atoms: C_2  and  N_3 
REMARK    2  A    between atoms: C_2  and  C_26 
REMARK       I    between atoms: N_3  and  C_4 
REMARK    3  A    between atoms: C_4  and  C_5 
REMARK    4  A    between atoms: C_8  and  C_9 
REMARK       I    between atoms: C_9  and  N_10 
REMARK    5  A    between atoms: N_10  and  C_11 
REMARK    6  A    between atoms: N_20  and  C_21 
REMARK    7  A    between atoms: C_28  and  O_29 
ROOT
HETATM    1  C   UNL     1      43.405 -11.320   7.105  1.00  0.00     0.098 A 
HETATM    2  C   UNL     1      43.136 -12.720   6.654  1.00  0.00     0.206 A 
HETATM    3  O   UNL     1      43.604 -13.678   7.272  1.00  0.00    -0.286 OA
HETATM    4  C   UNL     1      42.303 -12.936   5.432  1.00  0.00     0.098 A 
HETATM    5  C   UNL     1      41.859 -11.836   4.801  1.00  0.00     0.112 A 
HETATM    6  N   UNL     1      42.110 -10.549   5.232  1.00  0.00    -0.360 N 
HETATM    7  C   UNL     1      42.890 -10.335   6.351  1.00  0.00     0.112 A 
ENDROOT
BRANCH   1   8
HETATM    8  C   UNL     1      44.208 -10.966   8.311  1.00  0.00     0.257 C 
HETATM    9  N   UNL     1      43.480 -10.502   9.374  1.00  0.00    -0.348 N 
HETATM   10  H   UNL     1      42.475 -10.381   9.254  1.00  0.00     0.163 HD
HETATM   11  O   UNL     1      45.429 -11.084   8.332  1.00  0.00    -0.267 OA
BRANCH   9  12
HETATM   12  C   UNL     1      44.062 -10.076  10.635  1.00  0.00     0.114 C 
HETATM   13  C   UNL     1      43.871 -11.125  11.734  1.00  0.00     0.037 C 
BRANCH  12  14
HETATM   14  C   UNL     1      43.463  -8.742  11.056  1.00  0.00    -0.033 A 
HETATM   15  C   UNL     1      43.158  -7.767  10.087  1.00  0.00     0.046 A 
HETATM   16  C   UNL     1      42.605  -6.540  10.462  1.00  0.00     0.068 A 
HETATM   17  C   UNL     1      42.339  -6.287  11.810  1.00  0.00     0.037 A 
HETATM   18  C   UNL     1      42.636  -7.240  12.781  1.00  0.00     0.003 A 
HETATM   19  C   UNL     1      43.200  -8.459  12.407  1.00  0.00     0.009 A 
BRANCH  16  20
HETATM   20  O   UNL     1      42.273  -5.514   9.618  1.00  0.00    -0.356 OA
HETATM   21  C   UNL     1      42.190  -4.214  10.188  1.00  0.00     0.210 C 
ENDBRANCH  16  20
ENDBRANCH  12  14
ENDBRANCH   9  12
ENDBRANCH   1   8
BRANCH   4  22
HETATM   22  C   UNL     1      41.949 -14.278   4.887  1.00  0.00     0.257 C 
HETATM   23  N   UNL     1      42.990 -15.171   4.839  1.00  0.00    -0.352 N 
HETATM   24  H   UNL     1      43.874 -14.887   5.261  1.00  0.00     0.163 HD
HETATM   25  O   UNL     1      40.810 -14.546   4.521  1.00  0.00    -0.267 OA
BRANCH  23  26
HETATM   26  C   UNL     1      42.836 -16.594   4.546  1.00  0.00     0.084 C 
HETATM   27  C   UNL     1      42.967 -16.785   3.030  1.00  0.00     0.025 C 
HETATM   28  C   UNL     1      42.979 -18.227   2.530  1.00  0.00     0.002 C 
HETATM   29  C   UNL     1      44.291 -18.941   2.840  1.00  0.00     0.000 C 
HETATM   30  C   UNL     1      44.353 -19.605   4.212  1.00  0.00     0.000 C 
HETATM   31  C   UNL     1      43.643 -18.888   5.355  1.00  0.00     0.002 C 
HETATM   32  C   UNL     1      43.853 -17.378   5.390  1.00  0.00     0.025 C 
ENDBRANCH  23  26
ENDBRANCH   4  22
BRANCH   6  33
HETATM   33  C   UNL     1      41.745  -9.415   4.371  1.00  0.00     0.089 A 
HETATM   34  C   UNL     1      40.733  -9.560   3.263  1.00  0.00     0.028 A 
HETATM   35  C   UNL     1      40.404  -8.733   4.469  1.00  0.00     0.028 A 
ENDBRANCH   6  33
TORSDOF 7
ENDMDL
MODEL 2
REMARK VINA RESULT:      -8.7      4.286      8.493
REMARK  7 active torsions:
REMARK  status: ('A' for Active; 'I' for Inactive)
REMARK    1  A    between atoms: C_2  and  N_3 
REMARK    2  A    between atoms: C_2  and  C_26 
REMARK       I    between atoms: N_3  and  C_4 
REMARK    3  A    between atoms: C_4  and  C_5 
REMARK    4  A    between atoms: C_8  and  C_9 
REMARK       I    between atoms: C_9  and  N_10 
REMARK    5  A    between atoms: N_10  and  C_11 
REMARK    6  A    between atoms: N_20  and  C_21 
REMARK    7  A    between atoms: C_28  and  O_29 
ROOT
HETATM    1  C   UNL     1      40.131 -13.326   5.426  1.00  0.00     0.098 A 
HETATM    2  C   UNL     1      40.269 -13.203   3.943  1.00  0.00     0.206 A 
HETATM    3  O   UNL     1      40.686 -14.149   3.272  1.00  0.00    -0.286 OA
HETATM    4  C   UNL     1      39.909 -11.908   3.290  1.00  0.00     0.098 A 
HETATM    5  C   UNL     1      39.493 -10.918   4.099  1.00  0.00     0.112 A 
HETATM    6  N   UNL     1      39.363 -11.048   5.468  1.00  0.00    -0.360 N 
HETATM    7  C   UNL     1      39.707 -12.234   6.085  1.00  0.00     0.112 A 
ENDROOT
BRANCH   1   8
HETATM    8  C   UNL     1      40.443 -14.563   6.200  1.00  0.00     0.257 C 
HETATM    9  N   UNL     1      41.735 -15.002   6.090  1.00  0.00    -0.348 N 
HETATM   10  H   UNL     1      42.363 -14.501   5.462  1.00  0.00     0.163 HD
HETATM   11  O   UNL     1      39.594 -15.134   6.877  1.00  0.00    -0.267 OA
BRANCH   9  12
HETATM   12  C   UNL     1      42.247 -16.197   6.738  1.00  0.00     0.114 C 
HETATM   13  C   UNL     1      43.258 -15.862   7.838  1.00  0.00     0.037 C 
BRANCH  12  14
HETATM   14  C   UNL     1      42.869 -17.121   5.701  1.00  0.00    -0.033 A 
HETATM   15  C   UNL     1      42.850 -16.768   4.338  1.00  0.00     0.046 A 
HETATM   16  C   UNL     1      43.421 -17.606   3.377  1.00  0.00     0.068 A 
HETATM   17  C   UNL     1      44.029 -18.798   3.778  1.00  0.00     0.037 A 
HETATM   18  C   UNL     1      44.055 -19.163   5.122  1.00  0.00     0.003 A 
HETATM   19  C   UNL     1      43.474 -18.332   6.077  1.00  0.00     0.009 A 
BRANCH  16  20
HETATM   20  O   UNL     1      43.459 -17.378   2.028  1.00  0.00    -0.356 OA
HETATM   21  C   UNL     1      43.302 -16.032   1.598  1.00  0.00     0.210 C 
ENDBRANCH  16  20
ENDBRANCH  12  14
ENDBRANCH   9  12
ENDBRANCH   1   8
BRANCH   4  22
HETATM   22  C   UNL     1      39.987 -11.660   1.822  1.00  0.00     0.257 C 
HETATM   23  N   UNL     1      39.719 -12.755   1.040  1.00  0.00    -0.352 N 
HETATM   24  H   UNL     1      39.398 -13.601   1.510  1.00  0.00     0.163 HD
HETATM   25  O   UNL     1      40.265 -10.555   1.368  1.00  0.00    -0.267 OA
BRANCH  23  26
HETATM   26  C   UNL     1      39.530 -12.702  -0.408  1.00  0.00     0.084 C 
HETATM   27  C   UNL     1      40.118 -13.982  -1.012  1.00  0.00     0.025 C 
HETATM   28  C   UNL     1      39.892 -14.188  -2.508  1.00  0.00     0.002 C 
HETATM   29  C   UNL     1      38.452 -14.570  -2.833  1.00  0.00     0.000 C 
HETATM   30  C   UNL     1      37.503 -13.392  -3.034  1.00  0.00     0.000 C 
HETATM   31  C   UNL     1      37.736 -12.165  -2.158  1.00  0.00     0.002 C 
HETATM   32  C   UNL     1      38.037 -12.473  -0.695  1.00  0.00     0.025 C 
ENDBRANCH  23  26
ENDBRANCH   4  22
BRANCH   6  33
HETATM   33  C   UNL     1      39.087  -9.856   6.282  1.00  0.00     0.089 A 
HETATM   34  C   UNL     1      39.401  -9.818   7.755  1.00  0.00     0.028 A 
HETATM   35  C   UNL     1      40.187  -8.968   6.804  1.00  0.00     0.028 A 
ENDBRANCH   6  33
TORSDOF 7
ENDMDL
MODEL 3
REMARK VINA RESULT:      -8.4      2.273      3.655
REMARK  7 active torsions:
REMARK  status: ('A' for Active; 'I' for Inactive)
REMARK    1  A    between atoms: C_2  and  N_3 
REMARK    2  A    between atoms: C_2  and  C_26 
REMARK       I    between atoms: N_3  and  C_4 
REMARK    3  A    between atoms: C_4  and  C_5 
REMARK    4  A    between atoms: C_8  and  C_9 
REMARK       I    between atoms: C_9  and  N_10 
REMARK    5  A    between atoms: N_10  and  C_11 
REMARK    6  A    between atoms: N_20  and  C_21 
REMARK    7  A    between atoms: C_28  and  O_29 
ROOT
HETATM    1  C   UNL     1      40.028 -11.149   5.747  1.00  0.00     0.098 A 
HETATM    2  C   UNL     1      41.178 -12.048   5.425  1.00  0.00     0.206 A 
HETATM    3  O   UNL     1      41.976 -12.383   6.302  1.00  0.00    -0.286 OA
HETATM    4  C   UNL     1      41.352 -12.520   4.017  1.00  0.00     0.098 A 
HETATM    5  C   UNL     1      40.454 -12.083   3.118  1.00  0.00     0.112 A 
HETATM    6  N   UNL     1      39.392 -11.258   3.430  1.00  0.00    -0.360 N 
HETATM    7  C   UNL     1      39.229 -10.802   4.724  1.00  0.00     0.112 A 
ENDROOT
BRANCH   1   8
HETATM    8  C   UNL     1      39.733 -10.617   7.108  1.00  0.00     0.257 C 
HETATM    9  N   UNL     1      40.742  -9.884   7.674  1.00  0.00    -0.348 N 
HETATM   10  H   UNL     1      41.621  -9.801   7.164  1.00  0.00     0.163 HD
HETATM   11  O   UNL     1      38.663 -10.831   7.669  1.00  0.00    -0.267 OA
BRANCH   9  12
HETATM   12  C   UNL     1      40.677  -9.295   9.000  1.00  0.00     0.114 C 
HETATM   13  C   UNL     1      40.135  -7.864   8.963  1.00  0.00     0.037 C 
BRANCH  12  14
HETATM   14  C   UNL     1      42.052  -9.332   9.650  1.00  0.00    -0.033 A 
HETATM   15  C   UNL     1      43.093 -10.076   9.061  1.00  0.00     0.046 A 
HETATM   16  C   UNL     1      44.361 -10.114   9.647  1.00  0.00     0.068 A 
HETATM   17  C   UNL     1      44.599  -9.394  10.820  1.00  0.00     0.037 A 
HETATM   18  C   UNL     1      43.581  -8.654  11.415  1.00  0.00     0.003 A 
HETATM   19  C   UNL     1      42.313  -8.628  10.837  1.00  0.00     0.009 A 
BRANCH  16  20
HETATM   20  O   UNL     1      45.446 -10.803   9.176  1.00  0.00    -0.356 OA
HETATM   21  C   UNL     1      45.824 -10.564   7.827  1.00  0.00     0.210 C 
ENDBRANCH  16  20
ENDBRANCH  12  14
ENDBRANCH   9  12
ENDBRANCH   1   8
BRANCH   4  22
HETATM   22  C   UNL     1      42.445 -13.430   3.568  1.00  0.00     0.257 C 
HETATM   23  N   UNL     1      42.421 -14.679   4.135  1.00  0.00    -0.352 N 
HETATM   24  H   UNL     1      41.623 -14.914   4.725  1.00  0.00     0.163 HD
HETATM   25  O   UNL     1      43.286 -13.072   2.751  1.00  0.00    -0.267 OA
BRANCH  23  26
HETATM   26  C   UNL     1      43.255 -15.795   3.694  1.00  0.00     0.084 C 
HETATM   27  C   UNL     1      43.796 -16.506   4.940  1.00  0.00     0.025 C 
HETATM   28  C   UNL     1      44.579 -17.794   4.696  1.00  0.00     0.002 C 
HETATM   29  C   UNL     1      43.678 -18.956   4.294  1.00  0.00     0.000 C 
HETATM   30  C   UNL     1      43.389 -19.060   2.800  1.00  0.00     0.000 C 
HETATM   31  C   UNL     1      43.246 -17.748   2.035  1.00  0.00     0.002 C 
HETATM   32  C   UNL     1      42.426 -16.679   2.750  1.00  0.00     0.025 C 
ENDBRANCH  23  26
ENDBRANCH   4  22
BRANCH   6  33
HETATM   33  C   UNL     1      38.583 -10.682   2.348  1.00  0.00     0.089 A 
HETATM   34  C   UNL     1      38.852 -11.010   0.902  1.00  0.00     0.028 A 
HETATM   35  C   UNL     1      37.599 -11.506   1.557  1.00  0.00     0.028 A 
ENDBRANCH   6  33
TORSDOF 7
ENDMDL
MODEL 4
REMARK VINA RESULT:      -8.4      2.196      3.059
REMARK  7 active torsions:
REMARK  status: ('A' for Active; 'I' for Inactive)
REMARK    1  A    between atoms: C_2  and  N_3 
REMARK    2  A    between atoms: C_2  and  C_26 
REMARK       I    between atoms: N_3  and  C_4 
REMARK    3  A    between atoms: C_4  and  C_5 
REMARK    4  A    between atoms: C_8  and  C_9 
REMARK       I    between atoms: C_9  and  N_10 
REMARK    5  A    between atoms: N_10  and  C_11 
REMARK    6  A    between atoms: N_20  and  C_21 
REMARK    7  A    between atoms: C_28  and  O_29 
ROOT
HETATM    1  C   UNL     1      42.349 -11.646   6.040  1.00  0.00     0.098 A 
HETATM    2  C   UNL     1      43.218 -12.857   6.147  1.00  0.00     0.206 A 
HETATM    3  O   UNL     1      44.317 -12.793   6.702  1.00  0.00    -0.286 OA
HETATM    4  C   UNL     1      42.739 -14.144   5.555  1.00  0.00     0.098 A 
HETATM    5  C   UNL     1      41.543 -14.119   4.942  1.00  0.00     0.112 A 
HETATM    6  N   UNL     1      40.748 -12.994   4.855  1.00  0.00    -0.360 N 
HETATM    7  C   UNL     1      41.185 -11.796   5.384  1.00  0.00     0.112 A 
ENDROOT
BRANCH   1   8
HETATM    8  C   UNL     1      42.700 -10.308   6.595  1.00  0.00     0.257 C 
HETATM    9  N   UNL     1      43.415 -10.335   7.762  1.00  0.00    -0.348 N 
HETATM   10  H   UNL     1      43.605 -11.241   8.189  1.00  0.00     0.163 HD
HETATM   11  O   UNL     1      42.364  -9.267   6.037  1.00  0.00    -0.267 OA
BRANCH   9  12
HETATM   12  C   UNL     1      43.839  -9.149   8.486  1.00  0.00     0.114 C 
HETATM   13  C   UNL     1      45.364  -9.037   8.554  1.00  0.00     0.037 C 
BRANCH  12  14
HETATM   14  C   UNL     1      43.239  -9.155   9.884  1.00  0.00    -0.033 A 
HETATM   15  C   UNL     1      41.901  -9.549  10.078  1.00  0.00     0.046 A 
HETATM   16  C   UNL     1      41.340  -9.563  11.357  1.00  0.00     0.068 A 
HETATM   17  C   UNL     1      42.122  -9.195  12.455  1.00  0.00     0.037 A 
HETATM   18  C   UNL     1      43.447  -8.802  12.281  1.00  0.00     0.003 A 
HETATM   19  C   UNL     1      44.000  -8.776  11.003  1.00  0.00     0.009 A 
BRANCH  16  20
HETATM   20  O   UNL     1      40.056  -9.917  11.671  1.00  0.00    -0.356 OA
HETATM   21  C   UNL     1      39.820 -10.374  12.997  1.00  0.00     0.210 C 
ENDBRANCH  16  20
ENDBRANCH  12  14
ENDBRANCH   9  12
ENDBRANCH   1   8
BRANCH   4  22
HETATM   22  C   UNL     1      43.502 -15.424   5.608  1.00  0.00     0.257 C 
HETATM   23  N   UNL     1      43.104 -16.367   4.694  1.00  0.00    -0.352 N 
HETATM   24  H   UNL     1      42.406 -16.089   4.004  1.00  0.00     0.163 HD
HETATM   25  O   UNL     1      44.414 -15.599   6.409  1.00  0.00    -0.267 OA
BRANCH  23  26
HETATM   26  C   UNL     1      43.835 -17.602   4.420  1.00  0.00     0.084 C 
HETATM   27  C   UNL     1      43.657 -18.537   5.622  1.00  0.00     0.025 C 
HETATM   28  C   UNL     1      44.228 -19.945   5.472  1.00  0.00     0.002 C 
HETATM   29  C   UNL     1      43.396 -20.816   4.537  1.00  0.00     0.000 C 
HETATM   30  C   UNL     1      43.760 -20.704   3.060  1.00  0.00     0.000 C 
HETATM   31  C   UNL     1      44.190 -19.329   2.560  1.00  0.00     0.002 C 
HETATM   32  C   UNL     1      43.346 -18.169   3.077  1.00  0.00     0.025 C 
ENDBRANCH  23  26
ENDBRANCH   4  22
BRANCH   6  33
HETATM   33  C   UNL     1      39.552 -13.020   4.001  1.00  0.00     0.089 A 
HETATM   34  C   UNL     1      39.144 -11.825   3.179  1.00  0.00     0.028 A 
HETATM   35  C   UNL     1      39.642 -13.062   2.497  1.00  0.00     0.028 A 
ENDBRANCH   6  33
TORSDOF 7
ENDMDL
MODEL 5
REMARK VINA RESULT:      -8.3      3.544      7.214
REMARK  7 active torsions:
REMARK  status: ('A' for Active; 'I' for Inactive)
REMARK    1  A    between atoms: C_2  and  N_3 
REMARK    2  A    between atoms: C_2  and  C_26 
REMARK       I    between atoms: N_3  and  C_4 
REMARK    3  A    between atoms: C_4  and  C_5 
REMARK    4  A    between atoms: C_8  and  C_9 
REMARK       I    between atoms: C_9  and  N_10 
REMARK    5  A    between atoms: N_10  and  C_11 
REMARK    6  A    between atoms: N_20  and  C_21 
REMARK    7  A    between atoms: C_28  and  O_29 
ROOT
HETATM    1  C   UNL     1      41.526 -14.500   4.278  1.00  0.00     0.098 A 
HETATM    2  C   UNL     1      40.818 -14.105   3.022  1.00  0.00     0.206 A 
HETATM    3  O   UNL     1      40.219 -13.030   2.952  1.00  0.00    -0.286 OA
HETATM    4  C   UNL     1      40.837 -15.042   1.858  1.00  0.00     0.098 A 
HETATM    5  C   UNL     1      41.488 -16.205   2.029  1.00  0.00     0.112 A 
HETATM    6  N   UNL     1      42.142 -16.556   3.193  1.00  0.00    -0.360 N 
HETATM    7  C   UNL     1      42.120 -15.705   4.281  1.00  0.00     0.112 A 
ENDROOT
BRANCH   1   8
HETATM    8  C   UNL     1      41.594 -13.656   5.505  1.00  0.00     0.257 C 
HETATM    9  N   UNL     1      41.821 -12.325   5.280  1.00  0.00    -0.348 N 
HETATM   10  H   UNL     1      41.977 -12.019   4.320  1.00  0.00     0.163 HD
HETATM   11  O   UNL     1      41.459 -14.134   6.628  1.00  0.00    -0.267 OA
BRANCH   9  12
HETATM   12  C   UNL     1      41.949 -11.331   6.331  1.00  0.00     0.114 C 
HETATM   13  C   UNL     1      41.374  -9.976   5.909  1.00  0.00     0.037 C 
BRANCH  12  14
HETATM   14  C   UNL     1      43.409 -11.192   6.735  1.00  0.00    -0.033 A 
HETATM   15  C   UNL     1      43.749 -10.872   8.063  1.00  0.00     0.046 A 
HETATM   16  C   UNL     1      45.087 -10.746   8.446  1.00  0.00     0.068 A 
HETATM   17  C   UNL     1      46.095 -10.954   7.502  1.00  0.00     0.037 A 
HETATM   18  C   UNL     1      45.777 -11.269   6.183  1.00  0.00     0.003 A 
HETATM   19  C   UNL     1      44.441 -11.382   5.800  1.00  0.00     0.009 A 
BRANCH  16  20
HETATM   20  O   UNL     1      45.542 -10.433   9.699  1.00  0.00    -0.356 OA
HETATM   21  C   UNL     1      44.625  -9.789  10.573  1.00  0.00     0.210 C 
ENDBRANCH  16  20
ENDBRANCH  12  14
ENDBRANCH   9  12
ENDBRANCH   1   8
BRANCH   4  22
HETATM   22  C   UNL     1      40.185 -14.760   0.546  1.00  0.00     0.257 C 
HETATM   23  N   UNL     1      40.336 -13.474   0.094  1.00  0.00    -0.352 N 
HETATM   24  H   UNL     1      40.949 -12.857   0.627  1.00  0.00     0.163 HD
HETATM   25  O   UNL     1      39.572 -15.627  -0.068  1.00  0.00    -0.267 OA
BRANCH  23  26
HETATM   26  C   UNL     1      39.971 -13.029  -1.249  1.00  0.00     0.084 C 
HETATM   27  C   UNL     1      38.516 -12.546  -1.210  1.00  0.00     0.025 C 
HETATM   28  C   UNL     1      37.985 -11.902  -2.489  1.00  0.00     0.002 C 
HETATM   29  C   UNL     1      38.554 -10.507  -2.720  1.00  0.00     0.000 C 
HETATM   30  C   UNL     1      39.884 -10.469  -3.466  1.00  0.00     0.000 C 
HETATM   31  C   UNL     1      40.864 -11.601  -3.180  1.00  0.00     0.002 C 
HETATM   32  C   UNL     1      40.993 -11.977  -1.708  1.00  0.00     0.025 C 
ENDBRANCH  23  26
ENDBRANCH   4  22
BRANCH   6  33
HETATM   33  C   UNL     1      42.657 -17.923   3.347  1.00  0.00     0.089 A 
HETATM   34  C   UNL     1      43.057 -18.754   2.156  1.00  0.00     0.028 A 
HETATM   35  C   UNL     1      44.105 -18.267   3.110  1.00  0.00     0.028 A 
ENDBRANCH   6  33
TORSDOF 7
ENDMDL
MODEL 6
REMARK VINA RESULT:      -8.2      5.251      8.902
REMARK  7 active torsions:
REMARK  status: ('A' for Active; 'I' for Inactive)
REMARK    1  A    between atoms: C_2  and  N_3 
REMARK    2  A    between atoms: C_2  and  C_26 
REMARK       I    between atoms: N_3  and  C_4 
REMARK    3  A    between atoms: C_4  and  C_5 
REMARK    4  A    between atoms: C_8  and  C_9 
REMARK       I    between atoms: C_9  and  N_10 
REMARK    5  A    between atoms: N_10  and  C_11 
REMARK    6  A    between atoms: N_20  and  C_21 
REMARK    7  A    between atoms: C_28  and  O_29 
ROOT
HETATM    1  C   UNL     1      39.828 -13.040   1.388  1.00  0.00     0.098 A 
HETATM    2  C   UNL     1      40.496 -14.363   1.575  1.00  0.00     0.206 A 
HETATM    3  O   UNL     1      40.766 -15.072   0.603  1.00  0.00    -0.286 OA
HETATM    4  C   UNL     1      40.818 -14.820   2.961  1.00  0.00     0.098 A 
HETATM    5  C   UNL     1      40.462 -14.000   3.965  1.00  0.00     0.112 A 
HETATM    6  N   UNL     1      39.850 -12.777   3.778  1.00  0.00    -0.360 N 
HETATM    7  C   UNL     1      39.534 -12.350   2.503  1.00  0.00     0.112 A 
ENDROOT
BRANCH   1   8
HETATM    8  C   UNL     1      39.464 -12.462   0.062  1.00  0.00     0.257 C 
HETATM    9  N   UNL     1      40.520 -12.229  -0.777  1.00  0.00    -0.348 N 
HETATM   10  H   UNL     1      41.461 -12.409  -0.428  1.00  0.00     0.163 HD
HETATM   11  O   UNL     1      38.299 -12.216  -0.239  1.00  0.00    -0.267 OA
BRANCH   9  12
HETATM   12  C   UNL     1      40.395 -11.649  -2.103  1.00  0.00     0.114 C 
HETATM   13  C   UNL     1      40.948 -12.577  -3.187  1.00  0.00     0.037 C 
BRANCH  12  14
HETATM   14  C   UNL     1      41.095 -10.298  -2.144  1.00  0.00    -0.033 A 
HETATM   15  C   UNL     1      41.051  -9.513  -3.311  1.00  0.00     0.046 A 
HETATM   16  C   UNL     1      41.688  -8.270  -3.358  1.00  0.00     0.068 A 
HETATM   17  C   UNL     1      42.361  -7.799  -2.229  1.00  0.00     0.037 A 
HETATM   18  C   UNL     1      42.415  -8.563  -1.066  1.00  0.00     0.003 A 
HETATM   19  C   UNL     1      41.791  -9.808  -1.025  1.00  0.00     0.009 A 
BRANCH  16  20
HETATM   20  O   UNL     1      41.723  -7.422  -4.432  1.00  0.00    -0.356 OA
HETATM   21  C   UNL     1      42.943  -6.731  -4.667  1.00  0.00     0.210 C 
ENDBRANCH  16  20
ENDBRANCH  12  14
ENDBRANCH   9  12
ENDBRANCH   1   8
BRANCH   4  22
HETATM   22  C   UNL     1      41.496 -16.109   3.282  1.00  0.00     0.257 C 
HETATM   23  N   UNL     1      42.466 -16.485   2.389  1.00  0.00    -0.352 N 
HETATM   24  H   UNL     1      42.709 -15.824   1.652  1.00  0.00     0.163 HD
HETATM   25  O   UNL     1      41.199 -16.763   4.277  1.00  0.00    -0.267 OA
BRANCH  23  26
HETATM   26  C   UNL     1      43.398 -17.588   2.608  1.00  0.00     0.084 C 
HETATM   27  C   UNL     1      43.891 -17.514   4.058  1.00  0.00     0.025 C 
HETATM   28  C   UNL     1      44.770 -18.669   4.532  1.00  0.00     0.002 C 
HETATM   29  C   UNL     1      43.976 -19.951   4.756  1.00  0.00     0.000 C 
HETATM   30  C   UNL     1      43.804 -20.826   3.518  1.00  0.00     0.000 C 
HETATM   31  C   UNL     1      43.633 -20.105   2.185  1.00  0.00     0.002 C 
HETATM   32  C   UNL     1      42.697 -18.902   2.226  1.00  0.00     0.025 C 
ENDBRANCH  23  26
ENDBRANCH   4  22
BRANCH   6  33
HETATM   33  C   UNL     1      39.329 -12.045   4.941  1.00  0.00     0.089 A 
HETATM   34  C   UNL     1      40.058 -12.038   6.259  1.00  0.00     0.028 A 
HETATM   35  C   UNL     1      39.975 -10.781   5.449  1.00  0.00     0.028 A 
ENDBRANCH   6  33
TORSDOF 7
ENDMDL
MODEL 7
REMARK VINA RESULT:      -8.2      2.946      5.379
REMARK  7 active torsions:
REMARK  status: ('A' for Active; 'I' for Inactive)
REMARK    1  A    between atoms: C_2  and  N_3 
REMARK    2  A    between atoms: C_2  and  C_26 
REMARK       I    between atoms: N_3  and  C_4 
REMARK    3  A    between atoms: C_4  and  C_5 
REMARK    4  A    between atoms: C_8  and  C_9 
REMARK       I    between atoms: C_9  and  N_10 
REMARK    5  A    between atoms: N_10  and  C_11 
REMARK    6  A    between atoms: N_20  and  C_21 
REMARK    7  A    between atoms: C_28  and  O_29 
ROOT
HETATM    1  C   UNL     1      40.338 -12.379   2.636  1.00  0.00     0.098 A 
HETATM    2  C   UNL     1      41.492 -13.294   2.889  1.00  0.00     0.206 A 
HETATM    3  O   UNL     1      42.143 -13.207   3.933  1.00  0.00    -0.286 OA
HETATM    4  C   UNL     1      41.854 -14.304   1.849  1.00  0.00     0.098 A 
HETATM    5  C   UNL     1      41.112 -14.310   0.728  1.00  0.00     0.112 A 
HETATM    6  N   UNL     1      40.044 -13.463   0.509  1.00  0.00    -0.360 N 
HETATM    7  C   UNL     1      39.709 -12.515   1.456  1.00  0.00     0.112 A 
ENDROOT
BRANCH   1   8
HETATM    8  C   UNL     1      39.866 -11.337   3.592  1.00  0.00     0.257 C 
HETATM    9  N   UNL     1      40.857 -10.705   4.295  1.00  0.00    -0.348 N 
HETATM   10  H   UNL     1      41.818 -11.019   4.161  1.00  0.00     0.163 HD
HETATM   11  O   UNL     1      38.674 -11.078   3.731  1.00  0.00    -0.267 OA
BRANCH   9  12
HETATM   12  C   UNL     1      40.619  -9.678   5.295  1.00  0.00     0.114 C 
HETATM   13  C   UNL     1      40.713  -8.270   4.700  1.00  0.00     0.037 C 
BRANCH  12  14
HETATM   14  C   UNL     1      41.600  -9.841   6.446  1.00  0.00    -0.033 A 
HETATM   15  C   UNL     1      42.749 -10.639   6.288  1.00  0.00     0.046 A 
HETATM   16  C   UNL     1      43.660 -10.793   7.337  1.00  0.00     0.068 A 
HETATM   17  C   UNL     1      43.431 -10.135   8.548  1.00  0.00     0.037 A 
HETATM   18  C   UNL     1      42.299  -9.343   8.722  1.00  0.00     0.003 A 
HETATM   19  C   UNL     1      41.385  -9.201   7.679  1.00  0.00     0.009 A 
BRANCH  16  20
HETATM   20  O   UNL     1      44.804 -11.544   7.309  1.00  0.00    -0.356 OA
HETATM   21  C   UNL     1      45.645 -11.391   6.173  1.00  0.00     0.210 C 
ENDBRANCH  16  20
ENDBRANCH  12  14
ENDBRANCH   9  12
ENDBRANCH   1   8
BRANCH   4  22
HETATM   22  C   UNL     1      42.970 -15.283   1.985  1.00  0.00     0.257 C 
HETATM   23  N   UNL     1      42.687 -16.371   2.771  1.00  0.00    -0.352 N 
HETATM   24  H   UNL     1      41.730 -16.472   3.107  1.00  0.00     0.163 HD
HETATM   25  O   UNL     1      44.048 -15.114   1.425  1.00  0.00    -0.267 OA
BRANCH  23  26
HETATM   26  C   UNL     1      43.542 -17.552   2.875  1.00  0.00     0.084 C 
HETATM   27  C   UNL     1      43.972 -17.699   4.340  1.00  0.00     0.025 C 
HETATM   28  C   UNL     1      44.758 -18.961   4.688  1.00  0.00     0.002 C 
HETATM   29  C   UNL     1      43.880 -20.208   4.710  1.00  0.00     0.000 C 
HETATM   30  C   UNL     1      43.713 -20.900   3.361  1.00  0.00     0.000 C 
HETATM   31  C   UNL     1      43.646 -20.001   2.130  1.00  0.00     0.002 C 
HETATM   32  C   UNL     1      42.782 -18.756   2.296  1.00  0.00     0.025 C 
ENDBRANCH  23  26
ENDBRANCH   4  22
BRANCH   6  33
HETATM   33  C   UNL     1      39.420 -13.416  -0.820  1.00  0.00     0.089 A 
HETATM   34  C   UNL     1      40.205 -13.719  -2.070  1.00  0.00     0.028 A 
HETATM   35  C   UNL     1      39.135 -14.664  -1.616  1.00  0.00     0.028 A 
ENDBRANCH   6  33
TORSDOF 7
ENDMDL
MODEL 8
REMARK VINA RESULT:      -8.2      3.270     10.077
REMARK  7 active torsions:
REMARK  status: ('A' for Active; 'I' for Inactive)
REMARK    1  A    between atoms: C_2  and  N_3 
REMARK    2  A    between atoms: C_2  and  C_26 
REMARK       I    between atoms: N_3  and  C_4 
REMARK    3  A    between atoms: C_4  and  C_5 
REMARK    4  A    between atoms: C_8  and  C_9 
REMARK       I    between atoms: C_9  and  N_10 
REMARK    5  A    between atoms: N_10  and  C_11 
REMARK    6  A    between atoms: N_20  and  C_21 
REMARK    7  A    between atoms: C_28  and  O_29 
ROOT
HETATM    1  C   UNL     1      41.751 -13.847   4.961  1.00  0.00     0.098 A 
HETATM    2  C   UNL     1      42.350 -12.610   5.549  1.00  0.00     0.206 A 
HETATM    3  O   UNL     1      41.924 -11.497   5.235  1.00  0.00    -0.286 OA
HETATM    4  C   UNL     1      43.484 -12.746   6.513  1.00  0.00     0.098 A 
HETATM    5  C   UNL     1      43.906 -13.994   6.778  1.00  0.00     0.112 A 
HETATM    6  N   UNL     1      43.340 -15.129   6.232  1.00  0.00    -0.360 N 
HETATM    7  C   UNL     1      42.302 -15.016   5.329  1.00  0.00     0.112 A 
ENDROOT
BRANCH   1   8
HETATM    8  C   UNL     1      40.611 -13.854   3.999  1.00  0.00     0.257 C 
HETATM    9  N   UNL     1      40.827 -14.570   2.853  1.00  0.00    -0.348 N 
HETATM   10  H   UNL     1      41.745 -14.992   2.713  1.00  0.00     0.163 HD
HETATM   11  O   UNL     1      39.566 -13.254   4.231  1.00  0.00    -0.267 OA
BRANCH   9  12
HETATM   12  C   UNL     1      39.862 -14.688   1.773  1.00  0.00     0.114 C 
HETATM   13  C   UNL     1      39.743 -16.129   1.270  1.00  0.00     0.037 C 
BRANCH  12  14
HETATM   14  C   UNL     1      40.243 -13.752   0.636  1.00  0.00    -0.033 A 
HETATM   15  C   UNL     1      39.841 -14.040  -0.683  1.00  0.00     0.046 A 
HETATM   16  C   UNL     1      40.182 -13.185  -1.734  1.00  0.00     0.068 A 
HETATM   17  C   UNL     1      40.917 -12.027  -1.469  1.00  0.00     0.037 A 
HETATM   18  C   UNL     1      41.323 -11.727  -0.171  1.00  0.00     0.003 A 
HETATM   19  C   UNL     1      40.993 -12.588   0.875  1.00  0.00     0.009 A 
BRANCH  16  20
HETATM   20  O   UNL     1      39.858 -13.359  -3.053  1.00  0.00    -0.356 OA
HETATM   21  C   UNL     1      38.776 -14.235  -3.339  1.00  0.00     0.210 C 
ENDBRANCH  16  20
ENDBRANCH  12  14
ENDBRANCH   9  12
ENDBRANCH   1   8
BRANCH   4  22
HETATM   22  C   UNL     1      44.157 -11.595   7.181  1.00  0.00     0.257 C 
HETATM   23  N   UNL     1      43.325 -10.794   7.921  1.00  0.00    -0.352 N 
HETATM   24  H   UNL     1      42.358 -11.097   8.035  1.00  0.00     0.163 HD
HETATM   25  O   UNL     1      45.363 -11.401   7.070  1.00  0.00    -0.267 OA
BRANCH  23  26
HETATM   26  C   UNL     1      43.789  -9.744   8.825  1.00  0.00     0.084 C 
HETATM   27  C   UNL     1      43.325  -8.394   8.264  1.00  0.00     0.025 C 
HETATM   28  C   UNL     1      43.587  -7.172   9.142  1.00  0.00     0.002 C 
HETATM   29  C   UNL     1      42.656  -7.111  10.348  1.00  0.00     0.000 C 
HETATM   30  C   UNL     1      43.142  -7.875  11.576  1.00  0.00     0.000 C 
HETATM   31  C   UNL     1      43.896  -9.176  11.322  1.00  0.00     0.002 C 
HETATM   32  C   UNL     1      43.288 -10.065  10.242  1.00  0.00     0.025 C 
ENDBRANCH  23  26
ENDBRANCH   4  22
BRANCH   6  33
HETATM   33  C   UNL     1      43.994 -16.429   6.432  1.00  0.00     0.089 A 
HETATM   34  C   UNL     1      43.322 -17.719   6.036  1.00  0.00     0.028 A 
HETATM   35  C   UNL     1      44.527 -17.245   5.282  1.00  0.00     0.028 A 
ENDBRANCH   6  33
TORSDOF 7
ENDMDL
MODEL 9
REMARK VINA RESULT:      -8.2      3.864      9.843
REMARK  7 active torsions:
REMARK  status: ('A' for Active; 'I' for Inactive)
REMARK    1  A    between atoms: C_2  and  N_3 
REMARK    2  A    between atoms: C_2  and  C_26 
REMARK       I    between atoms: N_3  and  C_4 
REMARK    3  A    between atoms: C_4  and  C_5 
REMARK    4  A    between atoms: C_8  and  C_9 
REMARK       I    between atoms: C_9  and  N_10 
REMARK    5  A    between atoms: N_10  and  C_11 
REMARK    6  A    between atoms: N_20  and  C_21 
REMARK    7  A    between atoms: C_28  and  O_29 
ROOT
HETATM    1  C   UNL     1      41.333 -14.806   1.902  1.00  0.00     0.098 A 
HETATM    2  C   UNL     1      41.871 -13.488   2.356  1.00  0.00     0.206 A 
HETATM    3  O   UNL     1      41.557 -12.448   1.773  1.00  0.00    -0.286 OA
HETATM    4  C   UNL     1      42.810 -13.454   3.519  1.00  0.00     0.098 A 
HETATM    5  C   UNL     1      43.124 -14.636   4.077  1.00  0.00     0.112 A 
HETATM    6  N   UNL     1      42.614 -15.846   3.651  1.00  0.00    -0.360 N 
HETATM    7  C   UNL     1      41.758 -15.893   2.569  1.00  0.00     0.112 A 
ENDROOT
BRANCH   1   8
HETATM    8  C   UNL     1      40.382 -14.980   0.766  1.00  0.00     0.257 C 
HETATM    9  N   UNL     1      40.432 -13.996  -0.185  1.00  0.00    -0.348 N 
HETATM   10  H   UNL     1      41.058 -13.206  -0.029  1.00  0.00     0.163 HD
HETATM   11  O   UNL     1      39.616 -15.936   0.704  1.00  0.00    -0.267 OA
BRANCH   9  12
HETATM   12  C   UNL     1      39.578 -13.955  -1.360  1.00  0.00     0.114 C 
HETATM   13  C   UNL     1      40.392 -13.919  -2.656  1.00  0.00     0.037 C 
BRANCH  12  14
HETATM   14  C   UNL     1      38.647 -12.754  -1.278  1.00  0.00    -0.033 A 
HETATM   15  C   UNL     1      38.475 -12.074  -0.058  1.00  0.00     0.046 A 
HETATM   16  C   UNL     1      37.624 -10.968   0.028  1.00  0.00     0.068 A 
HETATM   17  C   UNL     1      36.951 -10.528  -1.114  1.00  0.00     0.037 A 
HETATM   18  C   UNL     1      37.109 -11.190  -2.329  1.00  0.00     0.003 A 
HETATM   19  C   UNL     1      37.948 -12.300  -2.410  1.00  0.00     0.009 A 
BRANCH  16  20
HETATM   20  O   UNL     1      37.370 -10.232   1.154  1.00  0.00    -0.356 OA
HETATM   21  C   UNL     1      38.251 -10.414   2.255  1.00  0.00     0.210 C 
ENDBRANCH  16  20
ENDBRANCH  12  14
ENDBRANCH   9  12
ENDBRANCH   1   8
BRANCH   4  22
HETATM   22  C   UNL     1      43.404 -12.207   4.079  1.00  0.00     0.257 C 
HETATM   23  N   UNL     1      43.181 -12.015   5.419  1.00  0.00    -0.352 N 
HETATM   24  H   UNL     1      42.725 -12.770   5.932  1.00  0.00     0.163 HD
HETATM   25  O   UNL     1      44.045 -11.428   3.381  1.00  0.00    -0.267 OA
BRANCH  23  26
HETATM   26  C   UNL     1      43.838 -10.986   6.221  1.00  0.00     0.084 C 
HETATM   27  C   UNL     1      42.800 -10.402   7.187  1.00  0.00     0.025 C 
HETATM   28  C   UNL     1      43.325  -9.404   8.218  1.00  0.00     0.002 C 
HETATM   29  C   UNL     1      44.132 -10.077   9.322  1.00  0.00     0.000 C 
HETATM   30  C   UNL     1      45.614 -10.264   9.014  1.00  0.00     0.000 C 
HETATM   31  C   UNL     1      45.980 -10.582   7.568  1.00  0.00     0.002 C 
HETATM   32  C   UNL     1      45.074 -11.605   6.890  1.00  0.00     0.025 C 
ENDBRANCH  23  26
ENDBRANCH   4  22
BRANCH   6  33
HETATM   33  C   UNL     1      43.164 -17.094   4.199  1.00  0.00     0.089 A 
HETATM   34  C   UNL     1      44.306 -17.087   5.182  1.00  0.00     0.028 A 
HETATM   35  C   UNL     1      42.940 -17.509   5.630  1.00  0.00     0.028 A 
ENDBRANCH   6  33
TORSDOF 7
ENDMDL
MODEL 10
REMARK VINA RESULT:      -8.1      3.158      5.248
REMARK  7 active torsions:
REMARK  status: ('A' for Active; 'I' for Inactive)
REMARK    1  A    between atoms: C_2  and  N_3 
REMARK    2  A    between atoms: C_2  and  C_26 
REMARK       I    between atoms: N_3  and  C_4 
REMARK    3  A    between atoms: C_4  and  C_5 
REMARK    4  A    between atoms: C_8  and  C_9 
REMARK       I    between atoms: C_9  and  N_10 
REMARK    5  A    between atoms: N_10  and  C_11 
REMARK    6  A    between atoms: N_20  and  C_21 
REMARK    7  A    between atoms: C_28  and  O_29 
ROOT
HETATM    1  C   UNL     1      43.072 -12.192   5.836  1.00  0.00     0.098 A 
HETATM    2  C   UNL     1      42.870 -12.359   4.365  1.00  0.00     0.206 A 
HETATM    3  O   UNL     1      42.743 -11.374   3.634  1.00  0.00    -0.286 OA
HETATM    4  C   UNL     1      42.809 -13.740   3.797  1.00  0.00     0.098 A 
HETATM    5  C   UNL     1      42.926 -14.757   4.667  1.00  0.00     0.112 A 
HETATM    6  N   UNL     1      43.119 -14.589   6.024  1.00  0.00    -0.360 N 
HETATM    7  C   UNL     1      43.162 -13.319   6.563  1.00  0.00     0.112 A 
ENDROOT
BRANCH   1   8
HETATM    8  C   UNL     1      43.163 -10.875   6.528  1.00  0.00     0.257 C 
HETATM    9  N   UNL     1      44.252 -10.724   7.344  1.00  0.00    -0.348 N 
HETATM   10  H   UNL     1      44.879 -11.519   7.463  1.00  0.00     0.163 HD
HETATM   11  O   UNL     1      42.316 -10.001   6.370  1.00  0.00    -0.267 OA
BRANCH   9  12
HETATM   12  C   UNL     1      44.522  -9.532   8.131  1.00  0.00     0.114 C 
HETATM   13  C   UNL     1      46.024  -9.306   8.325  1.00  0.00     0.037 C 
BRANCH  12  14
HETATM   14  C   UNL     1      43.816  -9.631   9.475  1.00  0.00    -0.033 A 
HETATM   15  C   UNL     1      42.677  -8.844   9.735  1.00  0.00     0.046 A 
HETATM   16  C   UNL     1      42.018  -8.928  10.964  1.00  0.00     0.068 A 
HETATM   17  C   UNL     1      42.487  -9.814  11.936  1.00  0.00     0.037 A 
HETATM   18  C   UNL     1      43.612 -10.600  11.696  1.00  0.00     0.003 A 
HETATM   19  C   UNL     1      44.276 -10.504  10.475  1.00  0.00     0.009 A 
BRANCH  16  20
HETATM   20  O   UNL     1      40.912  -8.213  11.337  1.00  0.00    -0.356 OA
HETATM   21  C   UNL     1      40.604  -8.182  12.725  1.00  0.00     0.210 C 
ENDBRANCH  16  20
ENDBRANCH  12  14
ENDBRANCH   9  12
ENDBRANCH   1   8
BRANCH   4  22
HETATM   22  C   UNL     1      42.628 -14.042   2.348  1.00  0.00     0.257 C 
HETATM   23  N   UNL     1      41.460 -13.570   1.804  1.00  0.00    -0.352 N 
HETATM   24  H   UNL     1      40.872 -12.981   2.393  1.00  0.00     0.163 HD
HETATM   25  O   UNL     1      43.472 -14.660   1.707  1.00  0.00    -0.267 OA
BRANCH  23  26
HETATM   26  C   UNL     1      41.166 -13.561   0.373  1.00  0.00     0.084 C 
HETATM   27  C   UNL     1      40.015 -14.541   0.117  1.00  0.00     0.025 C 
HETATM   28  C   UNL     1      39.459 -14.572  -1.304  1.00  0.00     0.002 C 
HETATM   29  C   UNL     1      38.622 -13.340  -1.630  1.00  0.00     0.000 C 
HETATM   30  C   UNL     1      39.412 -12.146  -2.156  1.00  0.00     0.000 C 
HETATM   31  C   UNL     1      40.803 -11.929  -1.569  1.00  0.00     0.002 C 
HETATM   32  C   UNL     1      40.893 -12.111  -0.058  1.00  0.00     0.025 C 
ENDBRANCH  23  26
ENDBRANCH   4  22
BRANCH   6  33
HETATM   33  C   UNL     1      43.042 -15.756   6.914  1.00  0.00     0.089 A 
HETATM   34  C   UNL     1      42.950 -17.158   6.369  1.00  0.00     0.028 A 
HETATM   35  C   UNL     1      44.192 -16.716   7.080  1.00  0.00     0.028 A 
ENDBRANCH   6  33
TORSDOF 7
ENDMDL
