MODEL 1
REMARK VINA RESULT:      -9.0      0.000      0.000
REMARK  3 active torsions:
REMARK  status: ('A' for Active; 'I' for Inactive)
REMARK    1  A    between atoms: C_6  and  N_7 
REMARK       I    between atoms: N_7  and  C_8 
REMARK    2  A    between atoms: C_8  and  C_9 
REMARK    3  A    between atoms: C_9  and  C_10 
ROOT
HETATM    1  C   UNL     1      42.928 -15.980   1.748  1.00  0.00     0.165 C 
ENDROOT
BRANCH   1   2
HETATM    2  C   UNL     1      41.562 -15.489   1.302  1.00  0.00     0.227 C 
HETATM    3  N   UNL     1      41.549 -14.449   0.402  1.00  0.00    -0.327 N 
HETATM    4  H   UNL     1      42.450 -13.998   0.241  1.00  0.00     0.169 HD
HETATM    5  O   UNL     1      40.567 -16.076   1.723  1.00  0.00    -0.273 OA
BRANCH   3   6
HETATM    6  C   UNL     1      40.442 -13.873  -0.252  1.00  0.00     0.036 A 
HETATM    7  C   UNL     1      39.844 -14.401  -1.396  1.00  0.00     0.053 A 
HETATM    8  C   UNL     1      38.756 -13.751  -1.992  1.00  0.00     0.042 A 
HETATM    9  C   UNL     1      38.243 -12.561  -1.453  1.00  0.00    -0.040 A 
HETATM   10 CL   UNL     1      38.073 -14.458  -3.415  1.00  0.00    -0.084 Cl
HETATM   11  C   UNL     1      37.084 -11.837  -2.079  1.00  0.00     0.050 C 
HETATM   12  C   UNL     1      38.850 -12.034  -0.307  1.00  0.00     0.011 A 
HETATM   13  C   UNL     1      39.937 -12.683   0.285  1.00  0.00     0.030 A 
ENDBRANCH   3   6
ENDBRANCH   1   2
BRANCH   1  14
HETATM   14  C   UNL     1      43.198 -16.380   3.186  1.00  0.00     0.074 A 
HETATM   15  N   UNL     1      43.189 -15.471   4.117  1.00  0.00    -0.175 NA
HETATM   16  N   UNL     1      43.434 -15.849   5.400  1.00  0.00    -0.243 N 
HETATM   17  C   UNL     1      43.701 -17.125   5.833  1.00  0.00     0.272 A 
HETATM   18  H   UNL     1      43.405 -15.125   6.111  1.00  0.00     0.192 HD
HETATM   19  O   UNL     1      43.914 -17.385   7.012  1.00  0.00    -0.266 OA
HETATM   20  C   UNL     1      43.718 -18.169   4.798  1.00  0.00     0.046 A 
HETATM   21  C   UNL     1      43.464 -17.816   3.474  1.00  0.00     0.006 A 
HETATM   22  C   UNL     1      43.984 -19.500   5.145  1.00  0.00     0.018 A 
HETATM   23  C   UNL     1      43.470 -18.810   2.487  1.00  0.00     0.014 A 
HETATM   24  C   UNL     1      43.736 -20.138   2.831  1.00  0.00     0.001 A 
HETATM   25  C   UNL     1      43.993 -20.483   4.158  1.00  0.00     0.001 A 
ENDBRANCH   1  14
TORSDOF 3
ENDMDL
MODEL 2
REMARK VINA RESULT:      -8.4      5.354      7.529
REMARK  3 active torsions:
REMARK  status: ('A' for Active; 'I' for Inactive)
REMARK    1  A    between atoms: C_6  and  N_7 
REMARK       I    between atoms: N_7  and  C_8 
REMARK    2  A    between atoms: C_8  and  C_9 
REMARK    3  A    between atoms: C_9  and  C_10 
ROOT
HETATM    1  C   UNL     1      41.182 -14.575   5.747  1.00  0.00     0.165 C 
ENDROOT
BRANCH   1   2
HETATM    2  C   UNL     1      41.848 -13.253   6.087  1.00  0.00     0.227 C 
HETATM    3  N   UNL     1      42.982 -13.320   6.862  1.00  0.00    -0.327 N 
HETATM    4  H   UNL     1      43.180 -14.234   7.270  1.00  0.00     0.169 HD
HETATM    5  O   UNL     1      41.372 -12.223   5.612  1.00  0.00    -0.273 OA
BRANCH   3   6
HETATM    6  C   UNL     1      43.850 -12.274   7.234  1.00  0.00     0.036 A 
HETATM    7  C   UNL     1      43.597 -11.376   8.271  1.00  0.00     0.053 A 
HETATM    8  C   UNL     1      44.508 -10.354   8.562  1.00  0.00     0.042 A 
HETATM    9  C   UNL     1      45.691 -10.209   7.821  1.00  0.00    -0.040 A 
HETATM   10 CL   UNL     1      44.122  -9.271   9.855  1.00  0.00    -0.084 Cl
HETATM   11  C   UNL     1      46.680  -9.113   8.104  1.00  0.00     0.050 C 
HETATM   12  C   UNL     1      45.937 -11.110   6.778  1.00  0.00     0.011 A 
HETATM   13  C   UNL     1      45.026 -12.130   6.489  1.00  0.00     0.030 A 
ENDBRANCH   3   6
ENDBRANCH   1   2
BRANCH   1  14
HETATM   14  C   UNL     1      41.952 -15.881   5.767  1.00  0.00     0.074 A 
HETATM   15  N   UNL     1      42.190 -16.470   6.903  1.00  0.00    -0.175 NA
HETATM   16  N   UNL     1      42.882 -17.640   6.899  1.00  0.00    -0.243 N 
HETATM   17  C   UNL     1      43.376 -18.287   5.792  1.00  0.00     0.272 A 
HETATM   18  H   UNL     1      43.040 -18.089   7.796  1.00  0.00     0.192 HD
HETATM   19  O   UNL     1      43.994 -19.342   5.873  1.00  0.00    -0.266 OA
HETATM   20  C   UNL     1      43.121 -17.639   4.497  1.00  0.00     0.046 A 
HETATM   21  C   UNL     1      42.408 -16.443   4.465  1.00  0.00     0.006 A 
HETATM   22  C   UNL     1      43.589 -18.225   3.314  1.00  0.00     0.018 A 
HETATM   23  C   UNL     1      42.155 -15.828   3.232  1.00  0.00     0.014 A 
HETATM   24  C   UNL     1      42.622 -16.410   2.050  1.00  0.00     0.001 A 
HETATM   25  C   UNL     1      43.338 -17.606   2.090  1.00  0.00     0.001 A 
ENDBRANCH   1  14
TORSDOF 3
ENDMDL
MODEL 3
REMARK VINA RESULT:      -8.2      3.028      8.437
REMARK  3 active torsions:
REMARK  status: ('A' for Active; 'I' for Inactive)
REMARK    1  A    between atoms: C_6  and  N_7 
REMARK       I    between atoms: N_7  and  C_8 
REMARK    2  A    between atoms: C_8  and  C_9 
REMARK    3  A    between atoms: C_9  and  C_10 
ROOT
HETATM    1  C   UNL     1      41.199 -13.435   2.089  1.00  0.00     0.165 C 
ENDROOT
BRANCH   1   2
HETATM    2  C   UNL     1      41.379 -14.810   2.708  1.00  0.00     0.227 C 
HETATM    3  N   UNL     1      42.571 -15.446   2.453  1.00  0.00    -0.327 N 
HETATM    4  H   UNL     1      43.156 -15.007   1.741  1.00  0.00     0.169 HD
HETATM    5  O   UNL     1      40.485 -15.242   3.435  1.00  0.00    -0.273 OA
BRANCH   3   6
HETATM    6  C   UNL     1      43.042 -16.665   2.979  1.00  0.00     0.036 A 
HETATM    7  C   UNL     1      43.078 -17.865   2.269  1.00  0.00     0.053 A 
HETATM    8  C   UNL     1      43.547 -19.035   2.878  1.00  0.00     0.042 A 
HETATM    9  C   UNL     1      43.990 -19.029   4.210  1.00  0.00    -0.040 A 
HETATM   10 CL   UNL     1      43.551 -20.488   1.939  1.00  0.00    -0.084 Cl
HETATM   11  C   UNL     1      44.486 -20.273   4.891  1.00  0.00     0.050 C 
HETATM   12  C   UNL     1      43.947 -17.822   4.918  1.00  0.00     0.011 A 
HETATM   13  C   UNL     1      43.478 -16.655   4.309  1.00  0.00     0.030 A 
ENDBRANCH   3   6
ENDBRANCH   1   2
BRANCH   1  14
HETATM   14  C   UNL     1      40.965 -13.259   0.600  1.00  0.00     0.074 A 
HETATM   15  N   UNL     1      40.635 -14.289  -0.124  1.00  0.00    -0.175 NA
HETATM   16  N   UNL     1      40.431 -14.110  -1.456  1.00  0.00    -0.243 N 
HETATM   17  C   UNL     1      40.541 -12.925  -2.143  1.00  0.00     0.272 A 
HETATM   18  H   UNL     1      40.157 -14.925  -1.998  1.00  0.00     0.192 HD
HETATM   19  O   UNL     1      40.342 -12.847  -3.349  1.00  0.00    -0.266 OA
HETATM   20  C   UNL     1      40.915 -11.748  -1.345  1.00  0.00     0.046 A 
HETATM   21  C   UNL     1      41.124 -11.895   0.024  1.00  0.00     0.006 A 
HETATM   22  C   UNL     1      41.054 -10.497  -1.959  1.00  0.00     0.018 A 
HETATM   23  C   UNL     1      41.472 -10.774   0.789  1.00  0.00     0.014 A 
HETATM   24  C   UNL     1      41.612  -9.524   0.178  1.00  0.00     0.001 A 
HETATM   25  C   UNL     1      41.404  -9.386  -1.194  1.00  0.00     0.001 A 
ENDBRANCH   1  14
TORSDOF 3
ENDMDL
MODEL 4
REMARK VINA RESULT:      -8.2      1.454      2.437
REMARK  3 active torsions:
REMARK  status: ('A' for Active; 'I' for Inactive)
REMARK    1  A    between atoms: C_6  and  N_7 
REMARK       I    between atoms: N_7  and  C_8 
REMARK    2  A    between atoms: C_8  and  C_9 
REMARK    3  A    between atoms: C_9  and  C_10 
ROOT
HETATM    1  C   UNL     1      42.986 -15.222   1.982  1.00  0.00     0.165 C 
ENDROOT
BRANCH   1   2
HETATM    2  C   UNL     1      41.612 -15.047   1.361  1.00  0.00     0.227 C 
HETATM    3  N   UNL     1      41.457 -13.981   0.506  1.00  0.00    -0.327 N 
HETATM    4  H   UNL     1      42.230 -13.315   0.493  1.00  0.00     0.169 HD
HETATM    5  O   UNL     1      40.749 -15.887   1.612  1.00  0.00    -0.273 OA
BRANCH   3   6
HETATM    6  C   UNL     1      40.337 -13.647  -0.281  1.00  0.00     0.036 A 
HETATM    7  C   UNL     1      39.948 -14.340  -1.427  1.00  0.00     0.053 A 
HETATM    8  C   UNL     1      38.828 -13.927  -2.160  1.00  0.00     0.042 A 
HETATM    9  C   UNL     1      38.074 -12.813  -1.760  1.00  0.00    -0.040 A 
HETATM   10 CL   UNL     1      38.413 -14.828  -3.577  1.00  0.00    -0.084 Cl
HETATM   11  C   UNL     1      36.876 -12.341  -2.534  1.00  0.00     0.050 C 
HETATM   12  C   UNL     1      38.472 -12.119  -0.610  1.00  0.00     0.011 A 
HETATM   13  C   UNL     1      39.591 -12.533   0.119  1.00  0.00     0.030 A 
ENDBRANCH   3   6
ENDBRANCH   1   2
BRANCH   1  14
HETATM   14  C   UNL     1      43.319 -16.420   2.851  1.00  0.00     0.074 A 
HETATM   15  N   UNL     1      43.694 -17.534   2.293  1.00  0.00    -0.175 NA
HETATM   16  N   UNL     1      43.987 -18.596   3.089  1.00  0.00    -0.243 N 
HETATM   17  C   UNL     1      43.926 -18.623   4.461  1.00  0.00     0.272 A 
HETATM   18  H   UNL     1      44.294 -19.449   2.631  1.00  0.00     0.192 HD
HETATM   19  O   UNL     1      44.205 -19.625   5.109  1.00  0.00    -0.266 OA
HETATM   20  C   UNL     1      43.502 -17.375   5.115  1.00  0.00     0.046 A 
HETATM   21  C   UNL     1      43.202 -16.266   4.328  1.00  0.00     0.006 A 
HETATM   22  C   UNL     1      43.407 -17.309   6.510  1.00  0.00     0.018 A 
HETATM   23  C   UNL     1      42.807 -15.073   4.947  1.00  0.00     0.014 A 
HETATM   24  C   UNL     1      42.711 -15.005   6.340  1.00  0.00     0.001 A 
HETATM   25  C   UNL     1      43.010 -16.121   7.121  1.00  0.00     0.001 A 
ENDBRANCH   1  14
TORSDOF 3
ENDMDL
MODEL 5
REMARK VINA RESULT:      -8.2      1.985      2.321
REMARK  3 active torsions:
REMARK  status: ('A' for Active; 'I' for Inactive)
REMARK    1  A    between atoms: C_6  and  N_7 
REMARK       I    between atoms: N_7  and  C_8 
REMARK    2  A    between atoms: C_8  and  C_9 
REMARK    3  A    between atoms: C_9  and  C_10 
ROOT
HETATM    1  C   UNL     1      40.511 -16.056   1.916  1.00  0.00     0.165 C 
ENDROOT
BRANCH   1   2
HETATM    2  C   UNL     1      40.662 -14.814   1.056  1.00  0.00     0.227 C 
HETATM    3  N   UNL     1      39.677 -14.590   0.124  1.00  0.00    -0.327 N 
HETATM    4  H   UNL     1      39.022 -15.360  -0.014  1.00  0.00     0.169 HD
HETATM    5  O   UNL     1      41.614 -14.065   1.277  1.00  0.00    -0.273 OA
BRANCH   3   6
HETATM    6  C   UNL     1      39.511 -13.476  -0.723  1.00  0.00     0.036 A 
HETATM    7  C   UNL     1      38.857 -12.300  -0.355  1.00  0.00     0.053 A 
HETATM    8  C   UNL     1      38.723 -11.248  -1.269  1.00  0.00     0.042 A 
HETATM    9  C   UNL     1      39.241 -11.350  -2.569  1.00  0.00    -0.040 A 
HETATM   10 CL   UNL     1      37.890  -9.825  -0.745  1.00  0.00    -0.084 Cl
HETATM   11  C   UNL     1      39.100 -10.240  -3.573  1.00  0.00     0.050 C 
HETATM   12  C   UNL     1      39.892 -12.534  -2.934  1.00  0.00     0.011 A 
HETATM   13  C   UNL     1      40.024 -13.584  -2.020  1.00  0.00     0.030 A 
ENDBRANCH   3   6
ENDBRANCH   1   2
BRANCH   1  14
HETATM   14  C   UNL     1      41.087 -16.126   3.318  1.00  0.00     0.074 A 
HETATM   15  N   UNL     1      40.549 -15.421   4.270  1.00  0.00    -0.175 NA
HETATM   16  N   UNL     1      41.080 -15.498   5.519  1.00  0.00    -0.243 N 
HETATM   17  C   UNL     1      42.159 -16.260   5.896  1.00  0.00     0.272 A 
HETATM   18  H   UNL     1      40.633 -14.951   6.249  1.00  0.00     0.192 HD
HETATM   19  O   UNL     1      42.580 -16.273   7.047  1.00  0.00    -0.266 OA
HETATM   20  C   UNL     1      42.785 -17.065   4.837  1.00  0.00     0.046 A 
HETATM   21  C   UNL     1      42.260 -17.015   3.547  1.00  0.00     0.006 A 
HETATM   22  C   UNL     1      43.892 -17.872   5.128  1.00  0.00     0.018 A 
HETATM   23  C   UNL     1      42.848 -17.787   2.538  1.00  0.00     0.014 A 
HETATM   24  C   UNL     1      43.954 -18.593   2.825  1.00  0.00     0.001 A 
HETATM   25  C   UNL     1      44.475 -18.635   4.118  1.00  0.00     0.001 A 
ENDBRANCH   1  14
TORSDOF 3
ENDMDL
MODEL 6
REMARK VINA RESULT:      -8.1      7.712     10.014
REMARK  3 active torsions:
REMARK  status: ('A' for Active; 'I' for Inactive)
REMARK    1  A    between atoms: C_6  and  N_7 
REMARK       I    between atoms: N_7  and  C_8 
REMARK    2  A    between atoms: C_8  and  C_9 
REMARK    3  A    between atoms: C_9  and  C_10 
ROOT
HETATM    1  C   UNL     1      45.040 -10.186   8.175  1.00  0.00     0.165 C 
ENDROOT
BRANCH   1   2
HETATM    2  C   UNL     1      44.915 -11.374   7.237  1.00  0.00     0.227 C 
HETATM    3  N   UNL     1      43.791 -12.152   7.380  1.00  0.00    -0.327 N 
HETATM    4  H   UNL     1      43.226 -11.957   8.208  1.00  0.00     0.169 HD
HETATM    5  O   UNL     1      45.785 -11.534   6.382  1.00  0.00    -0.273 OA
BRANCH   3   6
HETATM    6  C   UNL     1      43.372 -13.238   6.586  1.00  0.00     0.036 A 
HETATM    7  C   UNL     1      43.831 -14.546   6.740  1.00  0.00     0.053 A 
HETATM    8  C   UNL     1      43.373 -15.563   5.893  1.00  0.00     0.042 A 
HETATM    9  C   UNL     1      42.446 -15.291   4.875  1.00  0.00    -0.040 A 
HETATM   10 CL   UNL     1      43.994 -17.159   6.137  1.00  0.00    -0.084 Cl
HETATM   11  C   UNL     1      41.947 -16.360   3.944  1.00  0.00     0.050 C 
HETATM   12  C   UNL     1      41.993 -13.975   4.722  1.00  0.00     0.011 A 
HETATM   13  C   UNL     1      42.452 -12.962   5.569  1.00  0.00     0.030 A 
ENDBRANCH   3   6
ENDBRANCH   1   2
BRANCH   1  14
HETATM   14  C   UNL     1      44.254 -10.110   9.470  1.00  0.00     0.074 A 
HETATM   15  N   UNL     1      44.104 -11.180  10.194  1.00  0.00    -0.175 NA
HETATM   16  N   UNL     1      43.395 -11.091  11.351  1.00  0.00    -0.243 N 
HETATM   17  C   UNL     1      42.799  -9.959  11.852  1.00  0.00     0.272 A 
HETATM   18  H   UNL     1      43.307 -11.936  11.908  1.00  0.00     0.192 HD
HETATM   19  O   UNL     1      42.173  -9.962  12.906  1.00  0.00    -0.266 OA
HETATM   20  C   UNL     1      42.953  -8.737  11.049  1.00  0.00     0.046 A 
HETATM   21  C   UNL     1      43.680  -8.793   9.862  1.00  0.00     0.006 A 
HETATM   22  C   UNL     1      42.377  -7.536  11.479  1.00  0.00     0.018 A 
HETATM   23  C   UNL     1      43.836  -7.629   9.099  1.00  0.00     0.014 A 
HETATM   24  C   UNL     1      43.262  -6.428   9.526  1.00  0.00     0.001 A 
HETATM   25  C   UNL     1      42.532  -6.381  10.714  1.00  0.00     0.001 A 
ENDBRANCH   1  14
TORSDOF 3
ENDMDL
MODEL 7
REMARK VINA RESULT:      -8.0      6.162      7.409
REMARK  3 active torsions:
REMARK  status: ('A' for Active; 'I' for Inactive)
REMARK    1  A    between atoms: C_6  and  N_7 
REMARK       I    between atoms: N_7  and  C_8 
REMARK    2  A    between atoms: C_8  and  C_9 
REMARK    3  A    between atoms: C_9  and  C_10 
ROOT
HETATM    1  C   UNL     1      42.777 -13.142   4.150  1.00  0.00     0.165 C 
ENDROOT
BRANCH   1   2
HETATM    2  C   UNL     1      43.266 -11.849   4.778  1.00  0.00     0.227 C 
HETATM    3  N   UNL     1      42.626 -11.444   5.925  1.00  0.00    -0.327 N 
HETATM    4  H   UNL     1      41.777 -11.961   6.158  1.00  0.00     0.169 HD
HETATM    5  O   UNL     1      44.227 -11.279   4.262  1.00  0.00    -0.273 OA
BRANCH   3   6
HETATM    6  C   UNL     1      42.939 -10.356   6.763  1.00  0.00     0.036 A 
HETATM    7  C   UNL     1      43.996 -10.345   7.674  1.00  0.00     0.053 A 
HETATM    8  C   UNL     1      44.224  -9.224   8.482  1.00  0.00     0.042 A 
HETATM    9  C   UNL     1      43.400  -8.092   8.395  1.00  0.00    -0.040 A 
HETATM   10 CL   UNL     1      45.547  -9.287   9.595  1.00  0.00    -0.084 Cl
HETATM   11  C   UNL     1      43.615  -6.881   9.259  1.00  0.00     0.050 C 
HETATM   12  C   UNL     1      42.338  -8.111   7.483  1.00  0.00     0.011 A 
HETATM   13  C   UNL     1      42.112  -9.231   6.677  1.00  0.00     0.030 A 
ENDBRANCH   3   6
ENDBRANCH   1   2
BRANCH   1  14
HETATM   14  C   UNL     1      42.966 -14.481   4.837  1.00  0.00     0.074 A 
HETATM   15  N   UNL     1      42.985 -14.538   6.137  1.00  0.00    -0.175 NA
HETATM   16  N   UNL     1      43.156 -15.748   6.733  1.00  0.00    -0.243 N 
HETATM   17  C   UNL     1      43.319 -16.953   6.093  1.00  0.00     0.272 A 
HETATM   18  H   UNL     1      43.150 -15.770   7.749  1.00  0.00     0.192 HD
HETATM   19  O   UNL     1      43.470 -18.003   6.706  1.00  0.00    -0.266 OA
HETATM   20  C   UNL     1      43.303 -16.912   4.624  1.00  0.00     0.046 A 
HETATM   21  C   UNL     1      43.122 -15.689   3.981  1.00  0.00     0.006 A 
HETATM   22  C   UNL     1      43.465 -18.091   3.886  1.00  0.00     0.018 A 
HETATM   23  C   UNL     1      43.097 -15.648   2.581  1.00  0.00     0.014 A 
HETATM   24  C   UNL     1      43.258 -16.824   1.842  1.00  0.00     0.001 A 
HETATM   25  C   UNL     1      43.443 -18.044   2.493  1.00  0.00     0.001 A 
ENDBRANCH   1  14
TORSDOF 3
ENDMDL
MODEL 8
REMARK VINA RESULT:      -7.8      2.277      3.172
REMARK  3 active torsions:
REMARK  status: ('A' for Active; 'I' for Inactive)
REMARK    1  A    between atoms: C_6  and  N_7 
REMARK       I    between atoms: N_7  and  C_8 
REMARK    2  A    between atoms: C_8  and  C_9 
REMARK    3  A    between atoms: C_9  and  C_10 
ROOT
HETATM    1  C   UNL     1      40.493 -16.085   1.899  1.00  0.00     0.165 C 
ENDROOT
BRANCH   1   2
HETATM    2  C   UNL     1      40.663 -14.842   1.044  1.00  0.00     0.227 C 
HETATM    3  N   UNL     1      39.689 -14.608   0.102  1.00  0.00    -0.327 N 
HETATM    4  H   UNL     1      39.031 -15.374  -0.046  1.00  0.00     0.169 HD
HETATM    5  O   UNL     1      41.616 -14.100   1.279  1.00  0.00    -0.273 OA
BRANCH   3   6
HETATM    6  C   UNL     1      39.541 -13.491  -0.743  1.00  0.00     0.036 A 
HETATM    7  C   UNL     1      38.840 -12.334  -0.399  1.00  0.00     0.053 A 
HETATM    8  C   UNL     1      38.728 -11.276  -1.310  1.00  0.00     0.042 A 
HETATM    9  C   UNL     1      39.315 -11.353  -2.582  1.00  0.00    -0.040 A 
HETATM   10 CL   UNL     1      37.835  -9.878  -0.818  1.00  0.00    -0.084 Cl
HETATM   11  C   UNL     1      39.199 -10.238  -3.583  1.00  0.00     0.050 C 
HETATM   12  C   UNL     1      40.013 -12.519  -2.923  1.00  0.00     0.011 A 
HETATM   13  C   UNL     1      40.123 -13.574  -2.012  1.00  0.00     0.030 A 
ENDBRANCH   3   6
ENDBRANCH   1   2
BRANCH   1  14
HETATM   14  C   UNL     1      41.644 -16.660   2.703  1.00  0.00     0.074 A 
HETATM   15  N   UNL     1      42.578 -17.333   2.097  1.00  0.00    -0.175 NA
HETATM   16  N   UNL     1      43.600 -17.840   2.836  1.00  0.00    -0.243 N 
HETATM   17  C   UNL     1      43.759 -17.717   4.195  1.00  0.00     0.272 A 
HETATM   18  H   UNL     1      44.326 -18.347   2.338  1.00  0.00     0.192 HD
HETATM   19  O   UNL     1      44.712 -18.208   4.789  1.00  0.00    -0.266 OA
HETATM   20  C   UNL     1      42.714 -16.962   4.902  1.00  0.00     0.046 A 
HETATM   21  C   UNL     1      41.656 -16.423   4.173  1.00  0.00     0.006 A 
HETATM   22  C   UNL     1      42.789 -16.788   6.290  1.00  0.00     0.018 A 
HETATM   23  C   UNL     1      40.664 -15.695   4.843  1.00  0.00     0.014 A 
HETATM   24  C   UNL     1      40.737 -15.519   6.228  1.00  0.00     0.001 A 
HETATM   25  C   UNL     1      41.797 -16.066   6.950  1.00  0.00     0.001 A 
ENDBRANCH   1  14
TORSDOF 3
ENDMDL
MODEL 9
REMARK VINA RESULT:      -7.8     14.527     17.292
REMARK  3 active torsions:
REMARK  status: ('A' for Active; 'I' for Inactive)
REMARK    1  A    between atoms: C_6  and  N_7 
REMARK       I    between atoms: N_7  and  C_8 
REMARK    2  A    between atoms: C_8  and  C_9 
REMARK    3  A    between atoms: C_9  and  C_10 
ROOT
HETATM    1  C   UNL     1      46.638 -28.365   0.249  1.00  0.00     0.165 C 
ENDROOT
BRANCH   1   2
HETATM    2  C   UNL     1      47.444 -28.582   1.518  1.00  0.00     0.227 C 
HETATM    3  N   UNL     1      48.011 -29.824   1.678  1.00  0.00    -0.327 N 
HETATM    4  H   UNL     1      47.705 -30.534   1.012  1.00  0.00     0.169 HD
HETATM    5  O   UNL     1      47.585 -27.632   2.287  1.00  0.00    -0.273 OA
BRANCH   3   6
HETATM    6  C   UNL     1      48.884 -30.262   2.694  1.00  0.00     0.036 A 
HETATM    7  C   UNL     1      48.487 -31.011   3.802  1.00  0.00     0.053 A 
HETATM    8  C   UNL     1      49.422 -31.389   4.774  1.00  0.00     0.042 A 
HETATM    9  C   UNL     1      50.772 -31.027   4.656  1.00  0.00    -0.040 A 
HETATM   10 CL   UNL     1      48.854 -32.306   6.126  1.00  0.00    -0.084 Cl
HETATM   11  C   UNL     1      51.793 -31.409   5.691  1.00  0.00     0.050 C 
HETATM   12  C   UNL     1      51.164 -30.272   3.544  1.00  0.00     0.011 A 
HETATM   13  C   UNL     1      50.229 -29.895   2.575  1.00  0.00     0.030 A 
ENDBRANCH   3   6
ENDBRANCH   1   2
BRANCH   1  14
HETATM   14  C   UNL     1      45.801 -29.474  -0.360  1.00  0.00     0.074 A 
HETATM   15  N   UNL     1      45.512 -30.525   0.350  1.00  0.00    -0.175 NA
HETATM   16  N   UNL     1      44.762 -31.508  -0.215  1.00  0.00    -0.243 N 
HETATM   17  C   UNL     1      44.262 -31.513  -1.494  1.00  0.00     0.272 A 
HETATM   18  H   UNL     1      44.535 -32.310   0.365  1.00  0.00     0.192 HD
HETATM   19  O   UNL     1      43.592 -32.442  -1.931  1.00  0.00    -0.266 OA
HETATM   20  C   UNL     1      44.577 -30.336  -2.317  1.00  0.00     0.046 A 
HETATM   21  C   UNL     1      45.338 -29.308  -1.766  1.00  0.00     0.006 A 
HETATM   22  C   UNL     1      44.112 -30.255  -3.636  1.00  0.00     0.018 A 
HETATM   23  C   UNL     1      45.632 -28.180  -2.544  1.00  0.00     0.014 A 
HETATM   24  C   UNL     1      45.170 -28.097  -3.860  1.00  0.00     0.001 A 
HETATM   25  C   UNL     1      44.412 -29.133  -4.406  1.00  0.00     0.001 A 
ENDBRANCH   1  14
TORSDOF 3
ENDMDL
MODEL 10
REMARK VINA RESULT:      -7.8      5.259      7.204
REMARK  3 active torsions:
REMARK  status: ('A' for Active; 'I' for Inactive)
REMARK    1  A    between atoms: C_6  and  N_7 
REMARK       I    between atoms: N_7  and  C_8 
REMARK    2  A    between atoms: C_8  and  C_9 
REMARK    3  A    between atoms: C_9  and  C_10 
ROOT
HETATM    1  C   UNL     1      41.962 -14.093   3.774  1.00  0.00     0.165 C 
ENDROOT
BRANCH   1   2
HETATM    2  C   UNL     1      42.796 -12.938   4.299  1.00  0.00     0.227 C 
HETATM    3  N   UNL     1      42.696 -12.670   5.644  1.00  0.00    -0.327 N 
HETATM    4  H   UNL     1      41.950 -13.166   6.134  1.00  0.00     0.169 HD
HETATM    5  O   UNL     1      43.542 -12.355   3.513  1.00  0.00    -0.273 OA
BRANCH   3   6
HETATM    6  C   UNL     1      43.427 -11.738   6.407  1.00  0.00     0.036 A 
HETATM    7  C   UNL     1      42.913 -10.525   6.866  1.00  0.00     0.053 A 
HETATM    8  C   UNL     1      43.718  -9.649   7.605  1.00  0.00     0.042 A 
HETATM    9  C   UNL     1      45.052  -9.969   7.900  1.00  0.00    -0.040 A 
HETATM   10 CL   UNL     1      43.016  -8.158   8.132  1.00  0.00    -0.084 Cl
HETATM   11  C   UNL     1      45.941  -9.042   8.680  1.00  0.00     0.050 C 
HETATM   12  C   UNL     1      45.563 -11.186   7.432  1.00  0.00     0.011 A 
HETATM   13  C   UNL     1      44.758 -12.059   6.694  1.00  0.00     0.030 A 
ENDBRANCH   3   6
ENDBRANCH   1   2
BRANCH   1  14
HETATM   14  C   UNL     1      42.576 -15.449   3.483  1.00  0.00     0.074 A 
HETATM   15  N   UNL     1      42.837 -15.785   2.253  1.00  0.00    -0.175 NA
HETATM   16  N   UNL     1      43.387 -17.005   2.013  1.00  0.00    -0.243 N 
HETATM   17  C   UNL     1      43.704 -17.952   2.956  1.00  0.00     0.272 A 
HETATM   18  H   UNL     1      43.598 -17.238   1.047  1.00  0.00     0.192 HD
HETATM   19  O   UNL     1      44.197 -19.033   2.657  1.00  0.00    -0.266 OA
HETATM   20  C   UNL     1      43.415 -17.596   4.354  1.00  0.00     0.046 A 
HETATM   21  C   UNL     1      42.859 -16.350   4.635  1.00  0.00     0.006 A 
HETATM   22  C   UNL     1      43.702 -18.500   5.384  1.00  0.00     0.018 A 
HETATM   23  C   UNL     1      42.591 -16.003   5.965  1.00  0.00     0.014 A 
HETATM   24  C   UNL     1      42.876 -16.904   6.995  1.00  0.00     0.001 A 
HETATM   25  C   UNL     1      43.430 -18.151   6.705  1.00  0.00     0.001 A 
ENDBRANCH   1  14
TORSDOF 3
ENDMDL
