MODEL 1
REMARK VINA RESULT:      -9.3      0.000      0.000
REMARK  9 active torsions:
REMARK  status: ('A' for Active; 'I' for Inactive)
REMARK    1  A    between atoms: C_3  and  C_4 
REMARK    2  A    between atoms: C_4  and  C_5 
REMARK       I    between atoms: C_5  and  N_6 
REMARK    3  A    between atoms: N_6  and  C_7 
REMARK    4  A    between atoms: C_7  and  C_8 
REMARK    5  A    between atoms: C_18  and  N_19 
REMARK       I    between atoms: N_19  and  C_20 
REMARK    6  A    between atoms: C_20  and  C_21 
REMARK    7  A    between atoms: C_29  and  C_30 
REMARK    8  A    between atoms: C_30  and  O_31 
REMARK    9  A    between atoms: C_33  and  O_34 
ROOT
HETATM    1  C   UNL     1      43.664 -13.969   2.274  1.00  0.00     0.016 C 
HETATM    2  C   UNL     1      42.317 -13.998   3.080  1.00  0.00    -0.030 C 
HETATM    3  C   UNL     1      42.770 -14.076   4.630  1.00  0.00     0.056 C 
HETATM    4  C   UNL     1      42.827 -12.702   5.253  1.00  0.00     0.056 A 
HETATM    5  C   UNL     1      42.572 -11.532   4.573  1.00  0.00     0.012 A 
HETATM    6  S   UNL     1      42.786 -10.194   5.590  1.00  0.00    -0.055 SA
HETATM    7  C   UNL     1      43.196 -11.239   6.874  1.00  0.00     0.173 A 
HETATM    8  N   UNL     1      43.193 -12.523   6.578  1.00  0.00    -0.227 NA
HETATM    9  C   UNL     1      42.180 -11.398   3.152  1.00  0.00     0.055 C 
HETATM   10  C   UNL     1      41.499 -12.693   2.650  1.00  0.00     0.012 C 
HETATM   11  C   UNL     1      39.929 -12.727   2.868  1.00  0.00     0.008 C 
HETATM   12  C   UNL     1      39.269 -11.567   2.063  1.00  0.00     0.020 C 
HETATM   13  C   UNL     1      39.359 -14.066   2.314  1.00  0.00     0.128 C 
HETATM   14  C   UNL     1      40.078 -15.289   2.875  1.00  0.00     0.033 C 
HETATM   15  C   UNL     1      41.574 -15.257   2.563  1.00  0.00     0.013 C 
ENDROOT
BRANCH   3  16
HETATM   16  C   UNL     1      42.024 -15.092   5.516  1.00  0.00     0.114 C 
BRANCH  16  17
HETATM   17  C   UNL     1      42.771 -16.340   5.963  1.00  0.00     0.218 C 
HETATM   18  N   UNL     1      43.922 -16.638   5.265  1.00  0.00    -0.357 N 
HETATM   19  H   UNL     1      44.131 -16.092   4.442  1.00  0.00     0.162 HD
HETATM   20  O   UNL     1      42.270 -17.109   6.780  1.00  0.00    -0.274 OA
BRANCH  18  21
HETATM   21  C   UNL     1      44.490 -17.970   5.299  1.00  0.00     0.162 C 
BRANCH  21  22
HETATM   22  C   UNL     1      44.081 -18.892   4.186  1.00  0.00    -0.023 A 
HETATM   23  C   UNL     1      44.189 -20.275   4.280  1.00  0.00     0.125 A 
HETATM   24  N   UNL     1      43.865 -21.136   3.283  1.00  0.00    -0.273 NA
HETATM   25  C   UNL     1      43.410 -20.586   2.137  1.00  0.00     0.116 A 
HETATM   26  C   UNL     1      43.271 -19.223   1.935  1.00  0.00     0.020 A 
HETATM   27  C   UNL     1      43.619 -18.367   2.975  1.00  0.00     0.012 A 
ENDBRANCH  21  22
ENDBRANCH  18  21
ENDBRANCH  16  17
ENDBRANCH   3  16
BRANCH  11  28
HETATM   28  C   UNL     1      39.504 -12.529   4.343  1.00  0.00     0.176 C 
BRANCH  28  29
HETATM   29  O   UNL     1      38.953 -11.230   4.542  1.00  0.00    -0.400 OA
HETATM   30  H   UNL     1      39.577 -10.595   4.146  1.00  0.00     0.209 HD
ENDBRANCH  28  29
ENDBRANCH  11  28
BRANCH   7  31
HETATM   31  N   UNL     1      43.483 -10.778   8.137  1.00  0.00    -0.305 N 
HETATM   32  C   UNL     1      44.735 -10.691   8.713  1.00  0.00     0.227 C 
HETATM   33  O   UNL     1      45.787 -11.087   8.203  1.00  0.00    -0.273 OA
HETATM   34  H   UNL     1      42.665 -10.480   8.653  1.00  0.00     0.171 HD
BRANCH  32  35
HETATM   35  C   UNL     1      44.730 -10.026  10.120  1.00  0.00     0.078 C 
HETATM   36  C   UNL     1      43.936  -8.697  10.264  1.00  0.00     0.014 C 
HETATM   37  C   UNL     1      43.461  -9.190  11.642  1.00  0.00     0.002 C 
HETATM   38  C   UNL     1      43.738 -10.624  11.159  1.00  0.00     0.014 C 
ENDBRANCH  32  35
ENDBRANCH   7  31
BRANCH  13  39
HETATM   39  O   UNL     1      39.495 -14.120   0.889  1.00  0.00    -0.395 OA
HETATM   40  H   UNL     1      39.093 -14.957   0.596  1.00  0.00     0.210 HD
ENDBRANCH  13  39
TORSDOF 9
ENDMDL
MODEL 2
REMARK VINA RESULT:      -9.2      3.037      6.982
REMARK  9 active torsions:
REMARK  status: ('A' for Active; 'I' for Inactive)
REMARK    1  A    between atoms: C_3  and  C_4 
REMARK    2  A    between atoms: C_4  and  C_5 
REMARK       I    between atoms: C_5  and  N_6 
REMARK    3  A    between atoms: N_6  and  C_7 
REMARK    4  A    between atoms: C_7  and  C_8 
REMARK    5  A    between atoms: C_18  and  N_19 
REMARK       I    between atoms: N_19  and  C_20 
REMARK    6  A    between atoms: C_20  and  C_21 
REMARK    7  A    between atoms: C_29  and  C_30 
REMARK    8  A    between atoms: C_30  and  O_31 
REMARK    9  A    between atoms: C_33  and  O_34 
ROOT
HETATM    1  C   UNL     1      40.602 -14.553   6.442  1.00  0.00     0.016 C 
HETATM    2  C   UNL     1      41.573 -13.585   5.678  1.00  0.00    -0.030 C 
HETATM    3  C   UNL     1      41.606 -14.150   4.164  1.00  0.00     0.056 C 
HETATM    4  C   UNL     1      40.602 -13.434   3.291  1.00  0.00     0.056 A 
HETATM    5  C   UNL     1      39.740 -12.460   3.741  1.00  0.00     0.012 A 
HETATM    6  S   UNL     1      38.733 -11.930   2.487  1.00  0.00    -0.055 SA
HETATM    7  C   UNL     1      39.500 -13.014   1.418  1.00  0.00     0.173 A 
HETATM    8  N   UNL     1      40.452 -13.752   1.950  1.00  0.00    -0.227 NA
HETATM    9  C   UNL     1      39.648 -11.922   5.118  1.00  0.00     0.055 C 
HETATM   10  C   UNL     1      40.989 -12.109   5.867  1.00  0.00     0.012 C 
HETATM   11  C   UNL     1      42.007 -10.907   5.685  1.00  0.00     0.008 C 
HETATM   12  C   UNL     1      41.379  -9.605   6.266  1.00  0.00     0.020 C 
HETATM   13  C   UNL     1      43.306 -11.202   6.490  1.00  0.00     0.128 C 
HETATM   14  C   UNL     1      43.907 -12.564   6.159  1.00  0.00     0.033 C 
HETATM   15  C   UNL     1      42.922 -13.699   6.436  1.00  0.00     0.013 C 
ENDROOT
BRANCH   3  16
HETATM   16  C   UNL     1      42.991 -14.260   3.497  1.00  0.00     0.114 C 
BRANCH  16  17
HETATM   17  C   UNL     1      43.199 -15.343   2.449  1.00  0.00     0.218 C 
HETATM   18  N   UNL     1      42.654 -16.576   2.736  1.00  0.00    -0.357 N 
HETATM   19  H   UNL     1      42.262 -16.717   3.656  1.00  0.00     0.162 HD
HETATM   20  O   UNL     1      43.954 -15.154   1.498  1.00  0.00    -0.274 OA
BRANCH  18  21
HETATM   21  C   UNL     1      43.112 -17.770   2.055  1.00  0.00     0.162 C 
BRANCH  21  22
HETATM   22  C   UNL     1      43.529 -18.913   2.935  1.00  0.00    -0.023 A 
HETATM   23  C   UNL     1      43.544 -20.233   2.493  1.00  0.00     0.125 A 
HETATM   24  N   UNL     1      43.878 -21.294   3.268  1.00  0.00    -0.273 NA
HETATM   25  C   UNL     1      44.215 -21.022   4.548  1.00  0.00     0.116 A 
HETATM   26  C   UNL     1      44.226 -19.749   5.091  1.00  0.00     0.020 A 
HETATM   27  C   UNL     1      43.871 -18.683   4.271  1.00  0.00     0.012 A 
ENDBRANCH  21  22
ENDBRANCH  18  21
ENDBRANCH  16  17
ENDBRANCH   3  16
BRANCH  11  28
HETATM   28  C   UNL     1      42.347 -10.602   4.206  1.00  0.00     0.176 C 
BRANCH  28  29
HETATM   29  O   UNL     1      41.851  -9.322   3.824  1.00  0.00    -0.400 OA
HETATM   30  H   UNL     1      41.723  -8.813   4.645  1.00  0.00     0.209 HD
ENDBRANCH  28  29
ENDBRANCH  11  28
BRANCH   7  31
HETATM   31  N   UNL     1      39.169 -13.094   0.086  1.00  0.00    -0.305 N 
HETATM   32  C   UNL     1      39.907 -12.602  -0.974  1.00  0.00     0.227 C 
HETATM   33  O   UNL     1      40.947 -11.944  -0.878  1.00  0.00    -0.273 OA
HETATM   34  H   UNL     1      38.295 -13.576  -0.085  1.00  0.00     0.171 HD
BRANCH  32  35
HETATM   35  C   UNL     1      39.309 -12.952  -2.367  1.00  0.00     0.078 C 
HETATM   36  C   UNL     1      39.381 -14.441  -2.808  1.00  0.00     0.014 C 
HETATM   37  C   UNL     1      37.970 -14.282  -3.399  1.00  0.00     0.002 C 
HETATM   38  C   UNL     1      37.762 -13.104  -2.431  1.00  0.00     0.014 C 
ENDBRANCH  32  35
ENDBRANCH   7  31
BRANCH  13  39
HETATM   39  O   UNL     1      43.037 -11.196   7.898  1.00  0.00    -0.395 OA
HETATM   40  H   UNL     1      43.515 -11.953   8.282  1.00  0.00     0.210 HD
ENDBRANCH  13  39
TORSDOF 9
ENDMDL
MODEL 3
REMARK VINA RESULT:      -8.4      1.210      1.361
REMARK  9 active torsions:
REMARK  status: ('A' for Active; 'I' for Inactive)
REMARK    1  A    between atoms: C_3  and  C_4 
REMARK    2  A    between atoms: C_4  and  C_5 
REMARK       I    between atoms: C_5  and  N_6 
REMARK    3  A    between atoms: N_6  and  C_7 
REMARK    4  A    between atoms: C_7  and  C_8 
REMARK    5  A    between atoms: C_18  and  N_19 
REMARK       I    between atoms: N_19  and  C_20 
REMARK    6  A    between atoms: C_20  and  C_21 
REMARK    7  A    between atoms: C_29  and  C_30 
REMARK    8  A    between atoms: C_30  and  O_31 
REMARK    9  A    between atoms: C_33  and  O_34 
ROOT
HETATM    1  C   UNL     1      43.737 -12.513   3.068  1.00  0.00     0.016 C 
HETATM    2  C   UNL     1      42.423 -12.844   3.860  1.00  0.00    -0.030 C 
HETATM    3  C   UNL     1      42.906 -13.034   5.391  1.00  0.00     0.056 C 
HETATM    4  C   UNL     1      42.761 -11.750   6.174  1.00  0.00     0.056 A 
HETATM    5  C   UNL     1      42.320 -10.561   5.636  1.00  0.00     0.012 A 
HETATM    6  S   UNL     1      42.341  -9.335   6.805  1.00  0.00    -0.055 SA
HETATM    7  C   UNL     1      42.926 -10.449   7.957  1.00  0.00     0.173 A 
HETATM    8  N   UNL     1      43.115 -11.674   7.511  1.00  0.00    -0.227 NA
HETATM    9  C   UNL     1      41.890 -10.323   4.240  1.00  0.00     0.055 C 
HETATM   10  C   UNL     1      41.409 -11.639   3.585  1.00  0.00     0.012 C 
HETATM   11  C   UNL     1      39.865 -11.941   3.792  1.00  0.00     0.008 C 
HETATM   12  C   UNL     1      39.024 -10.810   3.129  1.00  0.00     0.020 C 
HETATM   13  C   UNL     1      39.499 -13.277   3.082  1.00  0.00     0.128 C 
HETATM   14  C   UNL     1      40.406 -14.432   3.496  1.00  0.00     0.033 C 
HETATM   15  C   UNL     1      41.874 -14.133   3.195  1.00  0.00     0.013 C 
ENDROOT
BRANCH   3  16
HETATM   16  C   UNL     1      42.338 -14.250   6.148  1.00  0.00     0.114 C 
BRANCH  16  17
HETATM   17  C   UNL     1      43.275 -15.411   6.447  1.00  0.00     0.218 C 
HETATM   18  N   UNL     1      43.846 -16.025   5.352  1.00  0.00    -0.357 N 
HETATM   19  H   UNL     1      43.523 -15.752   4.436  1.00  0.00     0.162 HD
HETATM   20  O   UNL     1      43.367 -15.862   7.586  1.00  0.00    -0.274 OA
BRANCH  18  21
HETATM   21  C   UNL     1      44.407 -17.356   5.454  1.00  0.00     0.162 C 
BRANCH  21  22
HETATM   22  C   UNL     1      43.999 -18.329   4.385  1.00  0.00    -0.023 A 
HETATM   23  C   UNL     1      44.211 -19.699   4.497  1.00  0.00     0.125 A 
HETATM   24  N   UNL     1      43.889 -20.602   3.538  1.00  0.00    -0.273 NA
HETATM   25  C   UNL     1      43.328 -20.112   2.412  1.00  0.00     0.116 A 
HETATM   26  C   UNL     1      43.081 -18.766   2.194  1.00  0.00     0.020 A 
HETATM   27  C   UNL     1      43.428 -17.865   3.195  1.00  0.00     0.012 A 
ENDBRANCH  21  22
ENDBRANCH  18  21
ENDBRANCH  16  17
ENDBRANCH   3  16
BRANCH  11  28
HETATM   28  C   UNL     1      39.438 -11.986   5.279  1.00  0.00     0.176 C 
BRANCH  28  29
HETATM   29  O   UNL     1      39.061 -13.306   5.659  1.00  0.00    -0.400 OA
HETATM   30  H   UNL     1      38.087 -13.337   5.647  1.00  0.00     0.209 HD
ENDBRANCH  28  29
ENDBRANCH  11  28
BRANCH   7  31
HETATM   31  N   UNL     1      43.157 -10.102   9.267  1.00  0.00    -0.305 N 
HETATM   32  C   UNL     1      44.177  -9.295   9.734  1.00  0.00     0.227 C 
HETATM   33  O   UNL     1      45.087  -8.822   9.047  1.00  0.00    -0.273 OA
HETATM   34  H   UNL     1      42.485 -10.494   9.914  1.00  0.00     0.171 HD
BRANCH  32  35
HETATM   35  C   UNL     1      44.098  -9.010  11.261  1.00  0.00     0.078 C 
HETATM   36  C   UNL     1      43.132  -7.879  11.714  1.00  0.00     0.014 C 
HETATM   37  C   UNL     1      42.745  -8.760  12.914  1.00  0.00     0.002 C 
HETATM   38  C   UNL     1      43.210  -9.977  12.096  1.00  0.00     0.014 C 
ENDBRANCH  32  35
ENDBRANCH   7  31
BRANCH  13  39
HETATM   39  O   UNL     1      39.621 -13.141   1.661  1.00  0.00    -0.395 OA
HETATM   40  H   UNL     1      38.738 -12.912   1.320  1.00  0.00     0.210 HD
ENDBRANCH  13  39
TORSDOF 9
ENDMDL
MODEL 4
REMARK VINA RESULT:      -8.4      2.173      8.310
REMARK  9 active torsions:
REMARK  status: ('A' for Active; 'I' for Inactive)
REMARK    1  A    between atoms: C_3  and  C_4 
REMARK    2  A    between atoms: C_4  and  C_5 
REMARK       I    between atoms: C_5  and  N_6 
REMARK    3  A    between atoms: N_6  and  C_7 
REMARK    4  A    between atoms: C_7  and  C_8 
REMARK    5  A    between atoms: C_18  and  N_19 
REMARK       I    between atoms: N_19  and  C_20 
REMARK    6  A    between atoms: C_20  and  C_21 
REMARK    7  A    between atoms: C_29  and  C_30 
REMARK    8  A    between atoms: C_30  and  O_31 
REMARK    9  A    between atoms: C_33  and  O_34 
ROOT
HETATM    1  C   UNL     1      39.679 -11.482   6.581  1.00  0.00     0.016 C 
HETATM    2  C   UNL     1      40.658 -11.040   5.437  1.00  0.00    -0.030 C 
HETATM    3  C   UNL     1      41.880 -12.096   5.513  1.00  0.00     0.056 C 
HETATM    4  C   UNL     1      41.672 -13.245   4.555  1.00  0.00     0.056 A 
HETATM    5  C   UNL     1      40.561 -13.394   3.755  1.00  0.00     0.012 A 
HETATM    6  S   UNL     1      40.662 -14.827   2.858  1.00  0.00    -0.055 SA
HETATM    7  C   UNL     1      42.173 -15.164   3.572  1.00  0.00     0.173 A 
HETATM    8  N   UNL     1      42.594 -14.274   4.448  1.00  0.00    -0.227 NA
HETATM    9  C   UNL     1      39.403 -12.476   3.662  1.00  0.00     0.055 C 
HETATM   10  C   UNL     1      39.808 -11.044   4.082  1.00  0.00     0.012 C 
HETATM   11  C   UNL     1      40.354 -10.148   2.892  1.00  0.00     0.008 C 
HETATM   12  C   UNL     1      39.234  -9.971   1.823  1.00  0.00     0.020 C 
HETATM   13  C   UNL     1      40.715  -8.733   3.432  1.00  0.00     0.128 C 
HETATM   14  C   UNL     1      41.652  -8.784   4.635  1.00  0.00     0.033 C 
HETATM   15  C   UNL     1      41.047  -9.581   5.790  1.00  0.00     0.013 C 
ENDROOT
BRANCH   3  16
HETATM   16  C   UNL     1      43.304 -11.512   5.429  1.00  0.00     0.114 C 
BRANCH  16  17
HETATM   17  C   UNL     1      44.153 -11.506   6.691  1.00  0.00     0.218 C 
HETATM   18  N   UNL     1      43.500 -11.172   7.859  1.00  0.00    -0.357 N 
HETATM   19  H   UNL     1      42.548 -10.843   7.790  1.00  0.00     0.162 HD
HETATM   20  O   UNL     1      45.374 -11.626   6.622  1.00  0.00    -0.274 OA
BRANCH  18  21
HETATM   21  C   UNL     1      44.238 -10.734   9.025  1.00  0.00     0.162 C 
BRANCH  21  22
HETATM   22  C   UNL     1      43.523  -9.783   9.941  1.00  0.00    -0.023 A 
HETATM   23  C   UNL     1      42.278  -9.242   9.636  1.00  0.00     0.125 A 
HETATM   24  N   UNL     1      41.619  -8.353  10.419  1.00  0.00    -0.273 NA
HETATM   25  C   UNL     1      42.235  -7.987  11.564  1.00  0.00     0.116 A 
HETATM   26  C   UNL     1      43.476  -8.457  11.960  1.00  0.00     0.020 A 
HETATM   27  C   UNL     1      44.128  -9.363  11.130  1.00  0.00     0.012 A 
ENDBRANCH  21  22
ENDBRANCH  18  21
ENDBRANCH  16  17
ENDBRANCH   3  16
BRANCH  11  28
HETATM   28  C   UNL     1      41.565 -10.769   2.155  1.00  0.00     0.176 C 
BRANCH  28  29
HETATM   29  O   UNL     1      42.082  -9.868   1.179  1.00  0.00    -0.400 OA
HETATM   30  H   UNL     1      41.571 -10.013   0.362  1.00  0.00     0.209 HD
ENDBRANCH  28  29
ENDBRANCH  11  28
BRANCH   7  31
HETATM   31  N   UNL     1      42.916 -16.272   3.240  1.00  0.00    -0.305 N 
HETATM   32  C   UNL     1      43.179 -17.358   4.052  1.00  0.00     0.227 C 
HETATM   33  O   UNL     1      42.846 -17.463   5.236  1.00  0.00    -0.273 OA
HETATM   34  H   UNL     1      43.279 -16.246   2.295  1.00  0.00     0.171 HD
BRANCH  32  35
HETATM   35  C   UNL     1      43.963 -18.497   3.339  1.00  0.00     0.078 C 
HETATM   36  C   UNL     1      43.960 -19.889   4.030  1.00  0.00     0.014 C 
HETATM   37  C   UNL     1      43.824 -20.525   2.636  1.00  0.00     0.002 C 
HETATM   38  C   UNL     1      43.237 -19.188   2.149  1.00  0.00     0.014 C 
ENDBRANCH  32  35
ENDBRANCH   7  31
BRANCH  13  39
HETATM   39  O   UNL     1      39.534  -8.039   3.853  1.00  0.00    -0.395 OA
HETATM   40  H   UNL     1      39.419  -7.282   3.251  1.00  0.00     0.210 HD
ENDBRANCH  13  39
TORSDOF 9
ENDMDL
MODEL 5
REMARK VINA RESULT:      -8.3      1.364      1.675
REMARK  9 active torsions:
REMARK  status: ('A' for Active; 'I' for Inactive)
REMARK    1  A    between atoms: C_3  and  C_4 
REMARK    2  A    between atoms: C_4  and  C_5 
REMARK       I    between atoms: C_5  and  N_6 
REMARK    3  A    between atoms: N_6  and  C_7 
REMARK    4  A    between atoms: C_7  and  C_8 
REMARK    5  A    between atoms: C_18  and  N_19 
REMARK       I    between atoms: N_19  and  C_20 
REMARK    6  A    between atoms: C_20  and  C_21 
REMARK    7  A    between atoms: C_29  and  C_30 
REMARK    8  A    between atoms: C_30  and  O_31 
REMARK    9  A    between atoms: C_33  and  O_34 
ROOT
HETATM    1  C   UNL     1      43.685 -14.150   2.198  1.00  0.00     0.016 C 
HETATM    2  C   UNL     1      42.270 -14.113   2.876  1.00  0.00    -0.030 C 
HETATM    3  C   UNL     1      42.573 -13.846   4.441  1.00  0.00     0.056 C 
HETATM    4  C   UNL     1      42.497 -12.374   4.770  1.00  0.00     0.056 A 
HETATM    5  C   UNL     1      42.248 -11.385   3.844  1.00  0.00     0.012 A 
HETATM    6  S   UNL     1      42.292  -9.858   4.576  1.00  0.00    -0.055 SA
HETATM    7  C   UNL     1      42.629 -10.592   6.078  1.00  0.00     0.173 A 
HETATM    8  N   UNL     1      42.722 -11.907   6.055  1.00  0.00    -0.227 NA
HETATM    9  C   UNL     1      41.989 -11.568   2.397  1.00  0.00     0.055 C 
HETATM   10  C   UNL     1      41.430 -12.982   2.118  1.00  0.00     0.012 C 
HETATM   11  C   UNL     1      39.850 -13.085   2.205  1.00  0.00     0.008 C 
HETATM   12  C   UNL     1      39.212 -12.160   1.125  1.00  0.00     0.020 C 
HETATM   13  C   UNL     1      39.408 -14.544   1.894  1.00  0.00     0.128 C 
HETATM   14  C   UNL     1      40.132 -15.575   2.754  1.00  0.00     0.033 C 
HETATM   15  C   UNL     1      41.647 -15.500   2.569  1.00  0.00     0.013 C 
ENDROOT
BRANCH   3  16
HETATM   16  C   UNL     1      41.799 -14.713   5.452  1.00  0.00     0.114 C 
BRANCH  16  17
HETATM   17  C   UNL     1      42.547 -15.837   6.155  1.00  0.00     0.218 C 
HETATM   18  N   UNL     1      43.615 -16.375   5.469  1.00  0.00    -0.357 N 
HETATM   19  H   UNL     1      43.760 -16.081   4.514  1.00  0.00     0.162 HD
HETATM   20  O   UNL     1      42.104 -16.329   7.190  1.00  0.00    -0.274 OA
BRANCH  18  21
HETATM   21  C   UNL     1      44.142 -17.679   5.815  1.00  0.00     0.162 C 
BRANCH  21  22
HETATM   22  C   UNL     1      44.024 -18.740   4.760  1.00  0.00    -0.023 A 
HETATM   23  C   UNL     1      43.810 -18.444   3.418  1.00  0.00     0.125 A 
HETATM   24  N   UNL     1      43.662 -19.375   2.444  1.00  0.00    -0.273 NA
HETATM   25  C   UNL     1      43.731 -20.667   2.831  1.00  0.00     0.116 A 
HETATM   26  C   UNL     1      43.932 -21.073   4.140  1.00  0.00     0.020 A 
HETATM   27  C   UNL     1      44.074 -20.092   5.116  1.00  0.00     0.012 A 
ENDBRANCH  21  22
ENDBRANCH  18  21
ENDBRANCH  16  17
ENDBRANCH   3  16
BRANCH  11  28
HETATM   28  C   UNL     1      39.274 -12.625   3.566  1.00  0.00     0.176 C 
BRANCH  28  29
HETATM   29  O   UNL     1      38.747 -11.305   3.474  1.00  0.00    -0.400 OA
HETATM   30  H   UNL     1      37.975 -11.267   4.068  1.00  0.00     0.209 HD
ENDBRANCH  28  29
ENDBRANCH  11  28
BRANCH   7  31
HETATM   31  N   UNL     1      42.767  -9.869   7.238  1.00  0.00    -0.305 N 
HETATM   32  C   UNL     1      41.752  -9.494   8.097  1.00  0.00     0.227 C 
HETATM   33  O   UNL     1      40.547  -9.691   7.911  1.00  0.00    -0.273 OA
HETATM   34  H   UNL     1      43.725  -9.614   7.445  1.00  0.00     0.171 HD
BRANCH  32  35
HETATM   35  C   UNL     1      42.254  -8.772   9.381  1.00  0.00     0.078 C 
HETATM   36  C   UNL     1      42.566  -9.667  10.613  1.00  0.00     0.014 C 
HETATM   37  C   UNL     1      43.788  -8.775  10.888  1.00  0.00     0.002 C 
HETATM   38  C   UNL     1      43.759  -8.377   9.402  1.00  0.00     0.014 C 
ENDBRANCH  32  35
ENDBRANCH   7  31
BRANCH  13  39
HETATM   39  O   UNL     1      39.685 -14.874   0.527  1.00  0.00    -0.395 OA
HETATM   40  H   UNL     1      40.471 -15.448   0.526  1.00  0.00     0.210 HD
ENDBRANCH  13  39
TORSDOF 9
ENDMDL
MODEL 6
REMARK VINA RESULT:      -7.9      3.395      7.257
REMARK  9 active torsions:
REMARK  status: ('A' for Active; 'I' for Inactive)
REMARK    1  A    between atoms: C_3  and  C_4 
REMARK    2  A    between atoms: C_4  and  C_5 
REMARK       I    between atoms: C_5  and  N_6 
REMARK    3  A    between atoms: N_6  and  C_7 
REMARK    4  A    between atoms: C_7  and  C_8 
REMARK    5  A    between atoms: C_18  and  N_19 
REMARK       I    between atoms: N_19  and  C_20 
REMARK    6  A    between atoms: C_20  and  C_21 
REMARK    7  A    between atoms: C_29  and  C_30 
REMARK    8  A    between atoms: C_30  and  O_31 
REMARK    9  A    between atoms: C_33  and  O_34 
ROOT
HETATM    1  C   UNL     1      37.991 -10.815   1.972  1.00  0.00     0.016 C 
HETATM    2  C   UNL     1      39.304 -10.551   1.154  1.00  0.00    -0.030 C 
HETATM    3  C   UNL     1      40.463 -11.316   1.981  1.00  0.00     0.056 C 
HETATM    4  C   UNL     1      40.697 -12.706   1.439  1.00  0.00     0.056 A 
HETATM    5  C   UNL     1      39.982 -13.263   0.402  1.00  0.00     0.012 A 
HETATM    6  S   UNL     1      40.494 -14.851   0.111  1.00  0.00    -0.055 SA
HETATM    7  C   UNL     1      41.639 -14.709   1.367  1.00  0.00     0.173 A 
HETATM    8  N   UNL     1      41.647 -13.549   1.994  1.00  0.00    -0.227 NA
HETATM    9  C   UNL     1      38.896 -12.621  -0.374  1.00  0.00     0.055 C 
HETATM   10  C   UNL     1      39.032 -11.082  -0.330  1.00  0.00     0.012 C 
HETATM   11  C   UNL     1      39.936 -10.476  -1.484  1.00  0.00     0.008 C 
HETATM   12  C   UNL     1      39.297 -10.803  -2.867  1.00  0.00     0.020 C 
HETATM   13  C   UNL     1      39.987  -8.927  -1.344  1.00  0.00     0.128 C 
HETATM   14  C   UNL     1      40.400  -8.475   0.053  1.00  0.00     0.033 C 
HETATM   15  C   UNL     1      39.449  -9.007   1.124  1.00  0.00     0.013 C 
ENDROOT
BRANCH   3  16
HETATM   16  C   UNL     1      41.778 -10.544   2.204  1.00  0.00     0.114 C 
BRANCH  16  17
HETATM   17  C   UNL     1      42.378 -10.535   3.602  1.00  0.00     0.218 C 
HETATM   18  N   UNL     1      43.127 -11.640   3.947  1.00  0.00    -0.357 N 
HETATM   19  H   UNL     1      43.133 -12.423   3.310  1.00  0.00     0.162 HD
HETATM   20  O   UNL     1      42.059  -9.668   4.412  1.00  0.00    -0.274 OA
BRANCH  18  21
HETATM   21  C   UNL     1      43.400 -11.950   5.335  1.00  0.00     0.162 C 
BRANCH  21  22
HETATM   22  C   UNL     1      42.820 -13.235   5.851  1.00  0.00    -0.023 A 
HETATM   23  C   UNL     1      41.461 -13.527   5.779  1.00  0.00     0.125 A 
HETATM   24  N   UNL     1      40.896 -14.659   6.267  1.00  0.00    -0.273 NA
HETATM   25  C   UNL     1      41.731 -15.543   6.855  1.00  0.00     0.116 A 
HETATM   26  C   UNL     1      43.096 -15.349   6.987  1.00  0.00     0.020 A 
HETATM   27  C   UNL     1      43.642 -14.174   6.482  1.00  0.00     0.012 A 
ENDBRANCH  21  22
ENDBRANCH  18  21
ENDBRANCH  16  17
ENDBRANCH   3  16
BRANCH  11  28
HETATM   28  C   UNL     1      41.369 -11.062  -1.519  1.00  0.00     0.176 C 
BRANCH  28  29
HETATM   29  O   UNL     1      41.483 -12.064  -2.525  1.00  0.00    -0.400 OA
HETATM   30  H   UNL     1      41.416 -12.925  -2.075  1.00  0.00     0.209 HD
ENDBRANCH  28  29
ENDBRANCH  11  28
BRANCH   7  31
HETATM   31  N   UNL     1      42.513 -15.720   1.687  1.00  0.00    -0.305 N 
HETATM   32  C   UNL     1      42.346 -16.664   2.682  1.00  0.00     0.227 C 
HETATM   33  O   UNL     1      41.413 -16.696   3.490  1.00  0.00    -0.273 OA
HETATM   34  H   UNL     1      43.341 -15.738   1.106  1.00  0.00     0.171 HD
BRANCH  32  35
HETATM   35  C   UNL     1      43.469 -17.740   2.717  1.00  0.00     0.078 C 
HETATM   36  C   UNL     1      43.768 -18.397   4.095  1.00  0.00     0.014 C 
HETATM   37  C   UNL     1      43.942 -19.738   3.360  1.00  0.00     0.002 C 
HETATM   38  C   UNL     1      43.073 -19.163   2.228  1.00  0.00     0.014 C 
ENDBRANCH  32  35
ENDBRANCH   7  31
BRANCH  13  39
HETATM   39  O   UNL     1      38.698  -8.356  -1.602  1.00  0.00    -0.395 OA
HETATM   40  H   UNL     1      38.035  -9.007  -1.311  1.00  0.00     0.210 HD
ENDBRANCH  13  39
TORSDOF 9
ENDMDL
MODEL 7
REMARK VINA RESULT:      -7.7      2.771      7.751
REMARK  9 active torsions:
REMARK  status: ('A' for Active; 'I' for Inactive)
REMARK    1  A    between atoms: C_3  and  C_4 
REMARK    2  A    between atoms: C_4  and  C_5 
REMARK       I    between atoms: C_5  and  N_6 
REMARK    3  A    between atoms: N_6  and  C_7 
REMARK    4  A    between atoms: C_7  and  C_8 
REMARK    5  A    between atoms: C_18  and  N_19 
REMARK       I    between atoms: N_19  and  C_20 
REMARK    6  A    between atoms: C_20  and  C_21 
REMARK    7  A    between atoms: C_29  and  C_30 
REMARK    8  A    between atoms: C_30  and  O_31 
REMARK    9  A    between atoms: C_33  and  O_34 
ROOT
HETATM    1  C   UNL     1      42.092  -6.712   7.604  1.00  0.00     0.016 C 
HETATM    2  C   UNL     1      41.652  -7.802   8.644  1.00  0.00    -0.030 C 
HETATM    3  C   UNL     1      41.413  -9.135   7.762  1.00  0.00     0.056 C 
HETATM    4  C   UNL     1      42.646 -10.006   7.740  1.00  0.00     0.056 A 
HETATM    5  C   UNL     1      43.835  -9.681   8.354  1.00  0.00     0.012 A 
HETATM    6  S   UNL     1      45.000 -10.876   8.067  1.00  0.00    -0.055 SA
HETATM    7  C   UNL     1      43.864 -11.760   7.154  1.00  0.00     0.173 A 
HETATM    8  N   UNL     1      42.674 -11.205   7.044  1.00  0.00    -0.227 NA
HETATM    9  C   UNL     1      44.119  -8.466   9.151  1.00  0.00     0.055 C 
HETATM   10  C   UNL     1      42.814  -7.882   9.740  1.00  0.00     0.012 C 
HETATM   11  C   UNL     1      42.421  -8.471  11.159  1.00  0.00     0.008 C 
HETATM   12  C   UNL     1      43.537  -8.127  12.190  1.00  0.00     0.020 C 
HETATM   13  C   UNL     1      41.105  -7.802  11.651  1.00  0.00     0.128 C 
HETATM   14  C   UNL     1      39.980  -7.888  10.623  1.00  0.00     0.033 C 
HETATM   15  C   UNL     1      40.371  -7.228   9.302  1.00  0.00     0.013 C 
ENDROOT
BRANCH   3  16
HETATM   16  C   UNL     1      40.132  -9.939   8.060  1.00  0.00     0.114 C 
BRANCH  16  17
HETATM   17  C   UNL     1      39.375 -10.544   6.887  1.00  0.00     0.218 C 
HETATM   18  N   UNL     1      39.868 -11.736   6.399  1.00  0.00    -0.357 N 
HETATM   19  H   UNL     1      40.750 -12.067   6.762  1.00  0.00     0.162 HD
HETATM   20  O   UNL     1      38.490  -9.908   6.320  1.00  0.00    -0.274 OA
BRANCH  18  21
HETATM   21  C   UNL     1      39.517 -12.199   5.072  1.00  0.00     0.162 C 
BRANCH  21  22
HETATM   22  C   UNL     1      40.665 -12.568   4.177  1.00  0.00    -0.023 A 
HETATM   23  C   UNL     1      40.780 -13.821   3.582  1.00  0.00     0.125 A 
HETATM   24  N   UNL     1      41.819 -14.202   2.799  1.00  0.00    -0.273 NA
HETATM   25  C   UNL     1      42.791 -13.286   2.600  1.00  0.00     0.116 A 
HETATM   26  C   UNL     1      42.780 -12.015   3.150  1.00  0.00     0.020 A 
HETATM   27  C   UNL     1      41.703 -11.657   3.954  1.00  0.00     0.012 A 
ENDBRANCH  21  22
ENDBRANCH  18  21
ENDBRANCH  16  17
ENDBRANCH   3  16
BRANCH  11  28
HETATM   28  C   UNL     1      42.279 -10.013  11.171  1.00  0.00     0.176 C 
BRANCH  28  29
HETATM   29  O   UNL     1      41.716 -10.461  12.400  1.00  0.00    -0.400 OA
HETATM   30  H   UNL     1      40.774 -10.642  12.230  1.00  0.00     0.209 HD
ENDBRANCH  28  29
ENDBRANCH  11  28
BRANCH   7  31
HETATM   31  N   UNL     1      44.157 -12.980   6.593  1.00  0.00    -0.305 N 
HETATM   32  C   UNL     1      43.288 -14.044   6.442  1.00  0.00     0.227 C 
HETATM   33  O   UNL     1      42.127 -14.084   6.860  1.00  0.00    -0.273 OA
HETATM   34  H   UNL     1      45.112 -13.057   6.268  1.00  0.00     0.171 HD
BRANCH  32  35
HETATM   35  C   UNL     1      43.901 -15.247   5.670  1.00  0.00     0.078 C 
HETATM   36  C   UNL     1      44.696 -16.287   6.510  1.00  0.00     0.014 C 
HETATM   37  C   UNL     1      44.066 -17.392   5.644  1.00  0.00     0.002 C 
HETATM   38  C   UNL     1      42.926 -16.409   5.323  1.00  0.00     0.014 C 
ENDBRANCH  32  35
ENDBRANCH   7  31
BRANCH  13  39
HETATM   39  O   UNL     1      41.317  -6.411  11.920  1.00  0.00    -0.395 OA
HETATM   40  H   UNL     1      40.534  -6.091  12.403  1.00  0.00     0.210 HD
ENDBRANCH  13  39
TORSDOF 9
ENDMDL
MODEL 8
REMARK VINA RESULT:      -7.5      3.058      8.020
REMARK  9 active torsions:
REMARK  status: ('A' for Active; 'I' for Inactive)
REMARK    1  A    between atoms: C_3  and  C_4 
REMARK    2  A    between atoms: C_4  and  C_5 
REMARK       I    between atoms: C_5  and  N_6 
REMARK    3  A    between atoms: N_6  and  C_7 
REMARK    4  A    between atoms: C_7  and  C_8 
REMARK    5  A    between atoms: C_18  and  N_19 
REMARK       I    between atoms: N_19  and  C_20 
REMARK    6  A    between atoms: C_20  and  C_21 
REMARK    7  A    between atoms: C_29  and  C_30 
REMARK    8  A    between atoms: C_30  and  O_31 
REMARK    9  A    between atoms: C_33  and  O_34 
ROOT
HETATM    1  C   UNL     1      37.898 -10.725   2.130  1.00  0.00     0.016 C 
HETATM    2  C   UNL     1      39.240 -10.393   1.386  1.00  0.00    -0.030 C 
HETATM    3  C   UNL     1      40.370 -11.223   2.191  1.00  0.00     0.056 C 
HETATM    4  C   UNL     1      40.630 -12.563   1.545  1.00  0.00     0.056 A 
HETATM    5  C   UNL     1      39.956 -13.033   0.440  1.00  0.00     0.012 A 
HETATM    6  S   UNL     1      40.486 -14.591   0.038  1.00  0.00    -0.055 SA
HETATM    7  C   UNL     1      41.582 -14.552   1.344  1.00  0.00     0.173 A 
HETATM    8  N   UNL     1      41.562 -13.448   2.064  1.00  0.00    -0.227 NA
HETATM    9  C   UNL     1      38.898 -12.330  -0.321  1.00  0.00     0.055 C 
HETATM   10  C   UNL     1      39.026 -10.799  -0.146  1.00  0.00     0.012 C 
HETATM   11  C   UNL     1      39.971 -10.100  -1.211  1.00  0.00     0.008 C 
HETATM   12  C   UNL     1      39.385 -10.312  -2.639  1.00  0.00     0.020 C 
HETATM   13  C   UNL     1      40.010  -8.568  -0.942  1.00  0.00     0.128 C 
HETATM   14  C   UNL     1      40.369  -8.232   0.502  1.00  0.00     0.033 C 
HETATM   15  C   UNL     1      39.380  -8.851   1.489  1.00  0.00     0.013 C 
ENDROOT
BRANCH   3  16
HETATM   16  C   UNL     1      41.673 -10.470   2.526  1.00  0.00     0.114 C 
BRANCH  16  17
HETATM   17  C   UNL     1      42.044 -10.294   3.991  1.00  0.00     0.218 C 
HETATM   18  N   UNL     1      42.531 -11.415   4.630  1.00  0.00    -0.357 N 
HETATM   19  H   UNL     1      42.499 -12.293   4.134  1.00  0.00     0.162 HD
HETATM   20  O   UNL     1      41.759  -9.259   4.587  1.00  0.00    -0.274 OA
BRANCH  18  21
HETATM   21  C   UNL     1      42.531 -11.506   6.076  1.00  0.00     0.162 C 
BRANCH  21  22
HETATM   22  C   UNL     1      43.725 -10.920   6.774  1.00  0.00    -0.023 A 
HETATM   23  C   UNL     1      43.639  -9.800   7.594  1.00  0.00     0.125 A 
HETATM   24  N   UNL     1      44.700  -9.221   8.210  1.00  0.00    -0.273 NA
HETATM   25  C   UNL     1      45.905  -9.791   7.996  1.00  0.00     0.116 A 
HETATM   26  C   UNL     1      46.104 -10.902   7.193  1.00  0.00     0.020 A 
HETATM   27  C   UNL     1      44.996 -11.467   6.570  1.00  0.00     0.012 A 
ENDBRANCH  21  22
ENDBRANCH  18  21
ENDBRANCH  16  17
ENDBRANCH   3  16
BRANCH  11  28
HETATM   28  C   UNL     1      41.406 -10.679  -1.240  1.00  0.00     0.176 C 
BRANCH  28  29
HETATM   29  O   UNL     1      41.559 -11.603  -2.314  1.00  0.00    -0.400 OA
HETATM   30  H   UNL     1      42.512 -11.652  -2.510  1.00  0.00     0.209 HD
ENDBRANCH  28  29
ENDBRANCH  11  28
BRANCH   7  31
HETATM   31  N   UNL     1      42.447 -15.585   1.613  1.00  0.00    -0.305 N 
HETATM   32  C   UNL     1      42.328 -16.511   2.631  1.00  0.00     0.227 C 
HETATM   33  O   UNL     1      41.458 -16.504   3.507  1.00  0.00    -0.273 OA
HETATM   34  H   UNL     1      43.228 -15.636   0.971  1.00  0.00     0.171 HD
BRANCH  32  35
HETATM   35  C   UNL     1      43.419 -17.620   2.598  1.00  0.00     0.078 C 
HETATM   36  C   UNL     1      43.782 -18.287   3.955  1.00  0.00     0.014 C 
HETATM   37  C   UNL     1      43.870 -19.632   3.212  1.00  0.00     0.002 C 
HETATM   38  C   UNL     1      42.950 -19.030   2.136  1.00  0.00     0.014 C 
ENDBRANCH  32  35
ENDBRANCH   7  31
BRANCH  13  39
HETATM   39  O   UNL     1      38.729  -7.979  -1.201  1.00  0.00    -0.395 OA
HETATM   40  H   UNL     1      38.812  -7.026  -1.017  1.00  0.00     0.210 HD
ENDBRANCH  13  39
TORSDOF 9
ENDMDL
MODEL 9
REMARK VINA RESULT:      -7.4      4.234      9.421
REMARK  9 active torsions:
REMARK  status: ('A' for Active; 'I' for Inactive)
REMARK    1  A    between atoms: C_3  and  C_4 
REMARK    2  A    between atoms: C_4  and  C_5 
REMARK       I    between atoms: C_5  and  N_6 
REMARK    3  A    between atoms: N_6  and  C_7 
REMARK    4  A    between atoms: C_7  and  C_8 
REMARK    5  A    between atoms: C_18  and  N_19 
REMARK       I    between atoms: N_19  and  C_20 
REMARK    6  A    between atoms: C_20  and  C_21 
REMARK    7  A    between atoms: C_29  and  C_30 
REMARK    8  A    between atoms: C_30  and  O_31 
REMARK    9  A    between atoms: C_33  and  O_34 
ROOT
HETATM    1  C   UNL     1      42.476  -5.314  11.135  1.00  0.00     0.016 C 
HETATM    2  C   UNL     1      41.445  -6.457  11.439  1.00  0.00    -0.030 C 
HETATM    3  C   UNL     1      41.265  -7.232  10.032  1.00  0.00     0.056 C 
HETATM    4  C   UNL     1      42.188  -8.424   9.942  1.00  0.00     0.056 A 
HETATM    5  C   UNL     1      43.097  -8.776  10.915  1.00  0.00     0.012 A 
HETATM    6  S   UNL     1      43.986 -10.136  10.436  1.00  0.00    -0.055 SA
HETATM    7  C   UNL     1      43.113 -10.187   8.972  1.00  0.00     0.173 A 
HETATM    8  N   UNL     1      42.209  -9.240   8.822  1.00  0.00    -0.227 NA
HETATM    9  C   UNL     1      43.322  -8.091  12.208  1.00  0.00     0.055 C 
HETATM   10  C   UNL     1      42.057  -7.315  12.642  1.00  0.00     0.012 C 
HETATM   11  C   UNL     1      41.035  -8.168  13.505  1.00  0.00     0.008 C 
HETATM   12  C   UNL     1      41.726  -8.619  14.827  1.00  0.00     0.020 C 
HETATM   13  C   UNL     1      39.816  -7.282  13.891  1.00  0.00     0.128 C 
HETATM   14  C   UNL     1      39.175  -6.605  12.683  1.00  0.00     0.033 C 
HETATM   15  C   UNL     1      40.172  -5.722  11.935  1.00  0.00     0.013 C 
ENDROOT
BRANCH   3  16
HETATM   16  C   UNL     1      39.823  -7.573   9.610  1.00  0.00     0.114 C 
BRANCH  16  17
HETATM   17  C   UNL     1      39.478  -7.528   8.129  1.00  0.00     0.218 C 
HETATM   18  N   UNL     1      39.350  -8.748   7.500  1.00  0.00    -0.357 N 
HETATM   19  H   UNL     1      39.605  -9.576   8.018  1.00  0.00     0.162 HD
HETATM   20  O   UNL     1      39.488  -6.462   7.518  1.00  0.00    -0.274 OA
BRANCH  18  21
HETATM   21  C   UNL     1      39.435  -8.854   6.057  1.00  0.00     0.162 C 
BRANCH  21  22
HETATM   22  C   UNL     1      39.524 -10.247   5.502  1.00  0.00    -0.023 A 
HETATM   23  C   UNL     1      39.366 -10.526   4.148  1.00  0.00     0.125 A 
HETATM   24  N   UNL     1      39.402 -11.772   3.616  1.00  0.00    -0.273 NA
HETATM   25  C   UNL     1      39.607 -12.790   4.480  1.00  0.00     0.116 A 
HETATM   26  C   UNL     1      39.769 -12.625   5.846  1.00  0.00     0.020 A 
HETATM   27  C   UNL     1      39.719 -11.334   6.360  1.00  0.00     0.012 A 
ENDBRANCH  21  22
ENDBRANCH  18  21
ENDBRANCH  16  17
ENDBRANCH   3  16
BRANCH  11  28
HETATM   28  C   UNL     1      40.560  -9.462  12.801  1.00  0.00     0.176 C 
BRANCH  28  29
HETATM   29  O   UNL     1      39.936 -10.345  13.729  1.00  0.00    -0.400 OA
HETATM   30  H   UNL     1      38.980 -10.324  13.539  1.00  0.00     0.209 HD
ENDBRANCH  28  29
ENDBRANCH  11  28
BRANCH   7  31
HETATM   31  N   UNL     1      43.316 -11.163   8.026  1.00  0.00    -0.305 N 
HETATM   32  C   UNL     1      44.488 -11.403   7.334  1.00  0.00     0.227 C 
HETATM   33  O   UNL     1      45.515 -10.723   7.407  1.00  0.00    -0.273 OA
HETATM   34  H   UNL     1      42.502 -11.740   7.860  1.00  0.00     0.171 HD
BRANCH  32  35
HETATM   35  C   UNL     1      44.421 -12.652   6.408  1.00  0.00     0.078 C 
HETATM   36  C   UNL     1      43.541 -13.838   6.894  1.00  0.00     0.014 C 
HETATM   37  C   UNL     1      43.080 -14.026   5.438  1.00  0.00     0.002 C 
HETATM   38  C   UNL     1      43.457 -12.555   5.191  1.00  0.00     0.014 C 
ENDBRANCH  32  35
ENDBRANCH   7  31
BRANCH  13  39
HETATM   39  O   UNL     1      40.215  -6.239  14.789  1.00  0.00    -0.395 OA
HETATM   40  H   UNL     1      41.080  -5.914  14.481  1.00  0.00     0.210 HD
ENDBRANCH  13  39
TORSDOF 9
ENDMDL
MODEL 10
REMARK VINA RESULT:      -7.4      2.972      8.887
REMARK  9 active torsions:
REMARK  status: ('A' for Active; 'I' for Inactive)
REMARK    1  A    between atoms: C_3  and  C_4 
REMARK    2  A    between atoms: C_4  and  C_5 
REMARK       I    between atoms: C_5  and  N_6 
REMARK    3  A    between atoms: N_6  and  C_7 
REMARK    4  A    between atoms: C_7  and  C_8 
REMARK    5  A    between atoms: C_18  and  N_19 
REMARK       I    between atoms: N_19  and  C_20 
REMARK    6  A    between atoms: C_20  and  C_21 
REMARK    7  A    between atoms: C_29  and  C_30 
REMARK    8  A    between atoms: C_30  and  O_31 
REMARK    9  A    between atoms: C_33  and  O_34 
ROOT
HETATM    1  C   UNL     1      39.389 -10.089   8.321  1.00  0.00     0.016 C 
HETATM    2  C   UNL     1      40.393  -9.451   7.297  1.00  0.00    -0.030 C 
HETATM    3  C   UNL     1      41.564 -10.553   7.131  1.00  0.00     0.056 C 
HETATM    4  C   UNL     1      41.307 -11.451   5.944  1.00  0.00     0.056 A 
HETATM    5  C   UNL     1      40.194 -11.368   5.137  1.00  0.00     0.012 A 
HETATM    6  S   UNL     1      40.232 -12.570   3.944  1.00  0.00    -0.055 SA
HETATM    7  C   UNL     1      41.722 -13.127   4.558  1.00  0.00     0.173 A 
HETATM    8  N   UNL     1      42.180 -12.472   5.607  1.00  0.00    -0.227 NA
HETATM    9  C   UNL     1      39.081 -10.399   5.256  1.00  0.00     0.055 C 
HETATM   10  C   UNL     1      39.551  -9.115   5.979  1.00  0.00     0.012 C 
HETATM   11  C   UNL     1      40.143  -8.005   5.014  1.00  0.00     0.008 C 
HETATM   12  C   UNL     1      39.038  -7.544   4.017  1.00  0.00     0.020 C 
HETATM   13  C   UNL     1      40.567  -6.763   5.851  1.00  0.00     0.128 C 
HETATM   14  C   UNL     1      41.495  -7.122   7.008  1.00  0.00     0.033 C 
HETATM   15  C   UNL     1      40.848  -8.125   7.961  1.00  0.00     0.013 C 
ENDROOT
BRANCH   3  16
HETATM   16  C   UNL     1      43.013 -10.032   7.170  1.00  0.00     0.114 C 
BRANCH  16  17
HETATM   17  C   UNL     1      43.856 -10.343   8.398  1.00  0.00     0.218 C 
HETATM   18  N   UNL     1      43.172 -10.440   9.592  1.00  0.00    -0.357 N 
HETATM   19  H   UNL     1      42.195 -10.186   9.599  1.00  0.00     0.162 HD
HETATM   20  O   UNL     1      45.082 -10.335   8.332  1.00  0.00    -0.274 OA
BRANCH  18  21
HETATM   21  C   UNL     1      43.866 -10.321  10.858  1.00  0.00     0.162 C 
BRANCH  21  22
HETATM   22  C   UNL     1      43.135  -9.586  11.945  1.00  0.00    -0.023 A 
HETATM   23  C   UNL     1      41.981 -10.084  12.542  1.00  0.00     0.125 A 
HETATM   24  N   UNL     1      41.275  -9.433  13.499  1.00  0.00    -0.273 NA
HETATM   25  C   UNL     1      41.744  -8.225  13.877  1.00  0.00     0.116 A 
HETATM   26  C   UNL     1      42.877  -7.633  13.342  1.00  0.00     0.020 A 
HETATM   27  C   UNL     1      43.575  -8.325  12.358  1.00  0.00     0.012 A 
ENDBRANCH  21  22
ENDBRANCH  18  21
ENDBRANCH  16  17
ENDBRANCH   3  16
BRANCH  11  28
HETATM   28  C   UNL     1      41.327  -8.503   4.151  1.00  0.00     0.176 C 
BRANCH  28  29
HETATM   29  O   UNL     1      40.968  -8.545   2.773  1.00  0.00    -0.400 OA
HETATM   30  H   UNL     1      40.643  -9.446   2.593  1.00  0.00     0.209 HD
ENDBRANCH  28  29
ENDBRANCH  11  28
BRANCH   7  31
HETATM   31  N   UNL     1      42.414 -14.167   3.985  1.00  0.00    -0.305 N 
HETATM   32  C   UNL     1      42.366 -15.494   4.366  1.00  0.00     0.227 C 
HETATM   33  O   UNL     1      41.745 -15.938   5.337  1.00  0.00    -0.273 OA
HETATM   34  H   UNL     1      42.997 -13.884   3.207  1.00  0.00     0.171 HD
BRANCH  32  35
HETATM   35  C   UNL     1      43.187 -16.440   3.443  1.00  0.00     0.078 C 
HETATM   36  C   UNL     1      43.570 -17.830   4.026  1.00  0.00     0.014 C 
HETATM   37  C   UNL     1      43.280 -18.434   2.641  1.00  0.00     0.002 C 
HETATM   38  C   UNL     1      42.379 -17.218   2.365  1.00  0.00     0.014 C 
ENDBRANCH  32  35
ENDBRANCH   7  31
BRANCH  13  39
HETATM   39  O   UNL     1      39.418  -6.125   6.422  1.00  0.00    -0.395 OA
HETATM   40  H   UNL     1      39.708  -5.254   6.749  1.00  0.00     0.210 HD
ENDBRANCH  13  39
TORSDOF 9
ENDMDL
