MODEL 1
REMARK VINA RESULT:      -8.8      0.000      0.000
REMARK  7 active torsions:
REMARK  status: ('A' for Active; 'I' for Inactive)
REMARK       I    between atoms: N_2  and  C_3 
REMARK    1  A    between atoms: C_3  and  C_4 
REMARK    2  A    between atoms: C_4  and  O_5 
REMARK    3  A    between atoms: O_5  and  C_6 
REMARK    4  A    between atoms: C_9  and  N_10 
REMARK    5  A    between atoms: N_10  and  C_11 
REMARK    6  A    between atoms: C_14  and  C_15 
REMARK    7  A    between atoms: C_18  and  O_19 
ROOT
HETATM    1  C   UNL     1      42.494 -13.410   3.768  1.00  0.00     0.161 A 
HETATM    2  N   UNL     1      43.296 -13.959   2.835  1.00  0.00    -0.131 NA
HETATM    3  N   UNL     1      43.492 -15.310   2.766  1.00  0.00    -0.147 NA
HETATM    4  C   UNL     1      42.852 -16.136   3.621  1.00  0.00     0.100 A 
HETATM    5  C   UNL     1      41.946 -15.643   4.578  1.00  0.00     0.009 A 
HETATM    6  C   UNL     1      41.755 -14.240   4.650  1.00  0.00     0.024 A 
HETATM    7  C   UNL     1      41.203 -16.477   5.454  1.00  0.00     0.015 A 
HETATM    8  C   UNL     1      40.308 -15.954   6.387  1.00  0.00     0.001 A 
HETATM    9  C   UNL     1      40.117 -14.584   6.459  1.00  0.00     0.001 A 
HETATM   10  C   UNL     1      40.824 -13.741   5.600  1.00  0.00     0.016 A 
ENDROOT
BRANCH   1  11
HETATM   11  N   UNL     1      42.314 -11.998   3.818  1.00  0.00    -0.339 N 
HETATM   12  H   UNL     1      41.451 -11.764   3.337  1.00  0.00     0.167 HD
BRANCH  11  13
HETATM   13  C   UNL     1      42.440 -11.119   4.921  1.00  0.00     0.033 A 
HETATM   14  C   UNL     1      41.449 -10.143   5.092  1.00  0.00     0.032 A 
HETATM   15  C   UNL     1      41.475  -9.271   6.185  1.00  0.00     0.039 A 
HETATM   16  C   UNL     1      42.486  -9.364   7.142  1.00  0.00     0.069 A 
HETATM   17  C   UNL     1      43.475 -10.333   6.985  1.00  0.00     0.039 A 
HETATM   18  C   UNL     1      43.446 -11.205   5.887  1.00  0.00     0.032 A 
BRANCH  16  19
HETATM   19  O   UNL     1      42.391  -8.467   8.170  1.00  0.00    -0.342 OA
BRANCH  19  20
HETATM   20  C   UNL     1      41.498  -8.802   9.231  1.00  0.00     0.278 C 
BRANCH  20  21
HETATM   21  C   UNL     1      42.259  -9.108  10.522  1.00  0.00     0.241 C 
HETATM   22  N   UNL     1      42.763 -10.388  10.601  1.00  0.00    -0.364 N 
HETATM   23  C   UNL     1      43.594 -10.812  11.696  1.00  0.00     0.149 C 
HETATM   24  H   UNL     1      42.724 -10.943   9.752  1.00  0.00     0.161 HD
HETATM   25  O   UNL     1      42.392  -8.273  11.414  1.00  0.00    -0.271 OA
ENDBRANCH  20  21
ENDBRANCH  19  20
ENDBRANCH  16  19
ENDBRANCH  11  13
ENDBRANCH   1  11
BRANCH   4  26
HETATM   26  C   UNL     1      43.200 -17.554   3.439  1.00  0.00    -0.005 A 
HETATM   27  C   UNL     1      42.837 -18.256   2.274  1.00  0.00     0.016 A 
HETATM   28  C   UNL     1      43.156 -19.608   2.118  1.00  0.00     0.037 A 
HETATM   29  C   UNL     1      43.833 -20.272   3.134  1.00  0.00     0.065 A 
HETATM   30  C   UNL     1      44.192 -19.609   4.300  1.00  0.00     0.037 A 
HETATM   31  C   UNL     1      43.872 -18.258   4.453  1.00  0.00     0.016 A 
BRANCH  29  32
HETATM   32  O   UNL     1      44.160 -21.591   3.027  1.00  0.00    -0.361 OA
HETATM   33  H   UNL     1      44.045 -22.012   3.895  1.00  0.00     0.217 HD
ENDBRANCH  29  32
ENDBRANCH   4  26
TORSDOF 7
ENDMDL
MODEL 2
REMARK VINA RESULT:      -8.7      1.769      2.191
REMARK  7 active torsions:
REMARK  status: ('A' for Active; 'I' for Inactive)
REMARK       I    between atoms: N_2  and  C_3 
REMARK    1  A    between atoms: C_3  and  C_4 
REMARK    2  A    between atoms: C_4  and  O_5 
REMARK    3  A    between atoms: O_5  and  C_6 
REMARK    4  A    between atoms: C_9  and  N_10 
REMARK    5  A    between atoms: N_10  and  C_11 
REMARK    6  A    between atoms: C_14  and  C_15 
REMARK    7  A    between atoms: C_18  and  O_19 
ROOT
HETATM    1  C   UNL     1      42.327 -13.850   5.081  1.00  0.00     0.161 A 
HETATM    2  N   UNL     1      43.344 -14.560   5.608  1.00  0.00    -0.131 NA
HETATM    3  N   UNL     1      43.606 -15.839   5.205  1.00  0.00    -0.147 NA
HETATM    4  C   UNL     1      42.864 -16.415   4.235  1.00  0.00     0.100 A 
HETATM    5  C   UNL     1      41.829 -15.713   3.589  1.00  0.00     0.009 A 
HETATM    6  C   UNL     1      41.557 -14.389   4.020  1.00  0.00     0.024 A 
HETATM    7  C   UNL     1      41.065 -16.253   2.523  1.00  0.00     0.015 A 
HETATM    8  C   UNL     1      40.050 -15.526   1.901  1.00  0.00     0.001 A 
HETATM    9  C   UNL     1      39.782 -14.232   2.316  1.00  0.00     0.001 A 
HETATM   10  C   UNL     1      40.528 -13.670   3.354  1.00  0.00     0.016 A 
ENDROOT
BRANCH   1  11
HETATM   11  N   UNL     1      42.076 -12.520   5.526  1.00  0.00    -0.339 N 
HETATM   12  H   UNL     1      41.115 -12.464   5.852  1.00  0.00     0.167 HD
BRANCH  11  13
HETATM   13  C   UNL     1      42.861 -11.695   6.366  1.00  0.00     0.033 A 
HETATM   14  C   UNL     1      42.265 -10.536   6.883  1.00  0.00     0.032 A 
HETATM   15  C   UNL     1      42.959  -9.697   7.760  1.00  0.00     0.039 A 
HETATM   16  C   UNL     1      44.260 -10.004   8.154  1.00  0.00     0.069 A 
HETATM   17  C   UNL     1      44.863 -11.155   7.651  1.00  0.00     0.039 A 
HETATM   18  C   UNL     1      44.165 -11.994   6.770  1.00  0.00     0.032 A 
BRANCH  16  19
HETATM   19  O   UNL     1      44.824  -9.116   9.027  1.00  0.00    -0.342 OA
BRANCH  19  20
HETATM   20  C   UNL     1      45.330  -9.652  10.249  1.00  0.00     0.278 C 
BRANCH  20  21
HETATM   21  C   UNL     1      44.198 -10.141  11.152  1.00  0.00     0.241 C 
HETATM   22  N   UNL     1      43.442  -9.137  11.719  1.00  0.00    -0.364 N 
HETATM   23  C   UNL     1      42.274  -9.419  12.510  1.00  0.00     0.149 C 
HETATM   24  H   UNL     1      43.600  -8.198  11.367  1.00  0.00     0.161 HD
HETATM   25  O   UNL     1      43.996 -11.336  11.357  1.00  0.00    -0.271 OA
ENDBRANCH  20  21
ENDBRANCH  19  20
ENDBRANCH  16  19
ENDBRANCH  11  13
ENDBRANCH   1  11
BRANCH   4  26
HETATM   26  C   UNL     1      43.250 -17.804   3.946  1.00  0.00    -0.005 A 
HETATM   27  C   UNL     1      43.134 -18.345   2.651  1.00  0.00     0.016 A 
HETATM   28  C   UNL     1      43.486 -19.672   2.390  1.00  0.00     0.037 A 
HETATM   29  C   UNL     1      43.948 -20.474   3.428  1.00  0.00     0.065 A 
HETATM   30  C   UNL     1      44.059 -19.972   4.717  1.00  0.00     0.037 A 
HETATM   31  C   UNL     1      43.708 -18.646   4.976  1.00  0.00     0.016 A 
BRANCH  29  32
HETATM   32  O   UNL     1      44.298 -21.775   3.220  1.00  0.00    -0.361 OA
HETATM   33  H   UNL     1      44.024 -22.033   2.325  1.00  0.00     0.217 HD
ENDBRANCH  29  32
ENDBRANCH   4  26
TORSDOF 7
ENDMDL
MODEL 3
REMARK VINA RESULT:      -8.7      4.610      6.869
REMARK  7 active torsions:
REMARK  status: ('A' for Active; 'I' for Inactive)
REMARK       I    between atoms: N_2  and  C_3 
REMARK    1  A    between atoms: C_3  and  C_4 
REMARK    2  A    between atoms: C_4  and  O_5 
REMARK    3  A    between atoms: O_5  and  C_6 
REMARK    4  A    between atoms: C_9  and  N_10 
REMARK    5  A    between atoms: N_10  and  C_11 
REMARK    6  A    between atoms: C_14  and  C_15 
REMARK    7  A    between atoms: C_18  and  O_19 
ROOT
HETATM    1  C   UNL     1      42.244 -13.620   2.858  1.00  0.00     0.161 A 
HETATM    2  N   UNL     1      42.946 -14.333   1.955  1.00  0.00    -0.131 NA
HETATM    3  N   UNL     1      43.207 -15.662   2.140  1.00  0.00    -0.147 NA
HETATM    4  C   UNL     1      42.732 -16.305   3.228  1.00  0.00     0.100 A 
HETATM    5  C   UNL     1      41.933 -15.645   4.180  1.00  0.00     0.009 A 
HETATM    6  C   UNL     1      41.676 -14.264   3.986  1.00  0.00     0.024 A 
HETATM    7  C   UNL     1      41.361 -16.294   5.305  1.00  0.00     0.015 A 
HETATM    8  C   UNL     1      40.568 -15.609   6.226  1.00  0.00     0.001 A 
HETATM    9  C   UNL     1      40.311 -14.261   6.039  1.00  0.00     0.001 A 
HETATM   10  C   UNL     1      40.850 -13.600   4.934  1.00  0.00     0.016 A 
ENDROOT
BRANCH   1  11
HETATM   11  N   UNL     1      41.993 -12.235   2.639  1.00  0.00    -0.339 N 
HETATM   12  H   UNL     1      42.884 -11.759   2.534  1.00  0.00     0.167 HD
BRANCH  11  13
HETATM   13  C   UNL     1      41.073 -11.622   1.756  1.00  0.00     0.033 A 
HETATM   14  C   UNL     1      41.578 -11.066   0.573  1.00  0.00     0.032 A 
HETATM   15  C   UNL     1      40.726 -10.487  -0.374  1.00  0.00     0.039 A 
HETATM   16  C   UNL     1      39.348 -10.464  -0.167  1.00  0.00     0.069 A 
HETATM   17  C   UNL     1      38.833 -11.017   1.003  1.00  0.00     0.039 A 
HETATM   18  C   UNL     1      39.690 -11.595   1.951  1.00  0.00     0.032 A 
BRANCH  16  19
HETATM   19  O   UNL     1      38.623  -9.887  -1.172  1.00  0.00    -0.342 OA
BRANCH  19  20
HETATM   20  C   UNL     1      38.829 -10.401  -2.487  1.00  0.00     0.278 C 
BRANCH  20  21
HETATM   21  C   UNL     1      38.129 -11.748  -2.672  1.00  0.00     0.241 C 
HETATM   22  N   UNL     1      38.931 -12.745  -3.186  1.00  0.00    -0.364 N 
HETATM   23  C   UNL     1      38.465 -14.099  -3.324  1.00  0.00     0.149 C 
HETATM   24  H   UNL     1      39.924 -12.544  -3.241  1.00  0.00     0.161 HD
HETATM   25  O   UNL     1      36.944 -11.911  -2.392  1.00  0.00    -0.271 OA
ENDBRANCH  20  21
ENDBRANCH  19  20
ENDBRANCH  16  19
ENDBRANCH  11  13
ENDBRANCH   1  11
BRANCH   4  26
HETATM   26  C   UNL     1      43.133 -17.719   3.296  1.00  0.00    -0.005 A 
HETATM   27  C   UNL     1      43.813 -18.237   4.415  1.00  0.00     0.016 A 
HETATM   28  C   UNL     1      44.206 -19.577   4.463  1.00  0.00     0.037 A 
HETATM   29  C   UNL     1      43.931 -20.410   3.383  1.00  0.00     0.065 A 
HETATM   30  C   UNL     1      43.274 -19.923   2.261  1.00  0.00     0.037 A 
HETATM   31  C   UNL     1      42.882 -18.583   2.216  1.00  0.00     0.016 A 
BRANCH  29  32
HETATM   32  O   UNL     1      44.300 -21.721   3.384  1.00  0.00    -0.361 OA
HETATM   33  H   UNL     1      44.136 -22.092   2.502  1.00  0.00     0.217 HD
ENDBRANCH  29  32
ENDBRANCH   4  26
TORSDOF 7
ENDMDL
MODEL 4
REMARK VINA RESULT:      -8.4      2.090      2.474
REMARK  7 active torsions:
REMARK  status: ('A' for Active; 'I' for Inactive)
REMARK       I    between atoms: N_2  and  C_3 
REMARK    1  A    between atoms: C_3  and  C_4 
REMARK    2  A    between atoms: C_4  and  O_5 
REMARK    3  A    between atoms: O_5  and  C_6 
REMARK    4  A    between atoms: C_9  and  N_10 
REMARK    5  A    between atoms: N_10  and  C_11 
REMARK    6  A    between atoms: C_14  and  C_15 
REMARK    7  A    between atoms: C_18  and  O_19 
ROOT
HETATM    1  C   UNL     1      41.950 -13.290   4.486  1.00  0.00     0.161 A 
HETATM    2  N   UNL     1      42.912 -13.737   5.318  1.00  0.00    -0.131 NA
HETATM    3  N   UNL     1      43.303 -15.046   5.321  1.00  0.00    -0.147 NA
HETATM    4  C   UNL     1      42.751 -15.925   4.458  1.00  0.00     0.100 A 
HETATM    5  C   UNL     1      41.790 -15.520   3.513  1.00  0.00     0.009 A 
HETATM    6  C   UNL     1      41.382 -14.161   3.522  1.00  0.00     0.024 A 
HETATM    7  C   UNL     1      41.229 -16.393   2.545  1.00  0.00     0.015 A 
HETATM    8  C   UNL     1      40.283 -15.955   1.618  1.00  0.00     0.001 A 
HETATM    9  C   UNL     1      39.883 -14.629   1.622  1.00  0.00     0.001 A 
HETATM   10  C   UNL     1      40.429 -13.745   2.554  1.00  0.00     0.016 A 
ENDROOT
BRANCH   1  11
HETATM   11  N   UNL     1      41.560 -11.920   4.510  1.00  0.00    -0.339 N 
HETATM   12  H   UNL     1      41.033 -11.720   3.666  1.00  0.00     0.167 HD
BRANCH  11  13
HETATM   13  C   UNL     1      40.980 -11.175   5.564  1.00  0.00     0.033 A 
HETATM   14  C   UNL     1      39.641 -11.434   5.886  1.00  0.00     0.032 A 
HETATM   15  C   UNL     1      39.012 -10.775   6.947  1.00  0.00     0.039 A 
HETATM   16  C   UNL     1      39.711  -9.851   7.721  1.00  0.00     0.069 A 
HETATM   17  C   UNL     1      41.045  -9.587   7.415  1.00  0.00     0.039 A 
HETATM   18  C   UNL     1      41.672 -10.248   6.349  1.00  0.00     0.032 A 
BRANCH  16  19
HETATM   19  O   UNL     1      38.992  -9.288   8.739  1.00  0.00    -0.342 OA
BRANCH  19  20
HETATM   20  C   UNL     1      38.887 -10.045   9.944  1.00  0.00     0.278 C 
BRANCH  20  21
HETATM   21  C   UNL     1      39.818  -9.497  11.026  1.00  0.00     0.241 C 
HETATM   22  N   UNL     1      41.054 -10.103  11.079  1.00  0.00    -0.364 N 
HETATM   23  C   UNL     1      42.090  -9.642  11.965  1.00  0.00     0.149 C 
HETATM   24  H   UNL     1      41.286 -10.728  10.313  1.00  0.00     0.161 HD
HETATM   25  O   UNL     1      39.473  -8.597  11.788  1.00  0.00    -0.271 OA
ENDBRANCH  20  21
ENDBRANCH  19  20
ENDBRANCH  16  19
ENDBRANCH  11  13
ENDBRANCH   1  11
BRANCH   4  26
HETATM   26  C   UNL     1      43.253 -17.298   4.616  1.00  0.00    -0.005 A 
HETATM   27  C   UNL     1      43.746 -18.032   3.520  1.00  0.00     0.016 A 
HETATM   28  C   UNL     1      44.204 -19.343   3.676  1.00  0.00     0.037 A 
HETATM   29  C   UNL     1      44.162 -19.936   4.933  1.00  0.00     0.065 A 
HETATM   30  C   UNL     1      43.667 -19.242   6.030  1.00  0.00     0.037 A 
HETATM   31  C   UNL     1      43.211 -17.932   5.870  1.00  0.00     0.016 A 
BRANCH  29  32
HETATM   32  O   UNL     1      44.593 -21.213   5.131  1.00  0.00    -0.361 OA
HETATM   33  H   UNL     1      43.852 -21.821   4.972  1.00  0.00     0.217 HD
ENDBRANCH  29  32
ENDBRANCH   4  26
TORSDOF 7
ENDMDL
MODEL 5
REMARK VINA RESULT:      -8.4      2.000      2.751
REMARK  7 active torsions:
REMARK  status: ('A' for Active; 'I' for Inactive)
REMARK       I    between atoms: N_2  and  C_3 
REMARK    1  A    between atoms: C_3  and  C_4 
REMARK    2  A    between atoms: C_4  and  O_5 
REMARK    3  A    between atoms: O_5  and  C_6 
REMARK    4  A    between atoms: C_9  and  N_10 
REMARK    5  A    between atoms: N_10  and  C_11 
REMARK    6  A    between atoms: C_14  and  C_15 
REMARK    7  A    between atoms: C_18  and  O_19 
ROOT
HETATM    1  C   UNL     1      43.265 -13.380   5.398  1.00  0.00     0.161 A 
HETATM    2  N   UNL     1      43.730 -14.148   6.403  1.00  0.00    -0.131 NA
HETATM    3  N   UNL     1      43.837 -15.505   6.276  1.00  0.00    -0.147 NA
HETATM    4  C   UNL     1      43.505 -16.109   5.115  1.00  0.00     0.100 A 
HETATM    5  C   UNL     1      43.077 -15.367   3.998  1.00  0.00     0.009 A 
HETATM    6  C   UNL     1      42.960 -13.961   4.141  1.00  0.00     0.024 A 
HETATM    7  C   UNL     1      42.779 -15.952   2.739  1.00  0.00     0.015 A 
HETATM    8  C   UNL     1      42.363 -15.185   1.651  1.00  0.00     0.001 A 
HETATM    9  C   UNL     1      42.250 -13.812   1.785  1.00  0.00     0.001 A 
HETATM   10  C   UNL     1      42.550 -13.208   3.007  1.00  0.00     0.016 A 
ENDROOT
BRANCH   1  11
HETATM   11  N   UNL     1      43.161 -11.969   5.562  1.00  0.00    -0.339 N 
HETATM   12  H   UNL     1      42.299 -11.656   5.127  1.00  0.00     0.167 HD
BRANCH  11  13
HETATM   13  C   UNL     1      43.361 -11.188   6.726  1.00  0.00     0.033 A 
HETATM   14  C   UNL     1      42.324 -10.334   7.123  1.00  0.00     0.032 A 
HETATM   15  C   UNL     1      42.425  -9.568   8.289  1.00  0.00     0.039 A 
HETATM   16  C   UNL     1      43.561  -9.648   9.093  1.00  0.00     0.069 A 
HETATM   17  C   UNL     1      44.598 -10.497   8.711  1.00  0.00     0.039 A 
HETATM   18  C   UNL     1      44.494 -11.263   7.540  1.00  0.00     0.032 A 
BRANCH  16  19
HETATM   19  O   UNL     1      43.533  -8.864  10.212  1.00  0.00    -0.342 OA
BRANCH  19  20
HETATM   20  C   UNL     1      43.264  -9.524  11.449  1.00  0.00     0.278 C 
BRANCH  20  21
HETATM   21  C   UNL     1      41.800  -9.361  11.859  1.00  0.00     0.241 C 
HETATM   22  N   UNL     1      41.261 -10.452  12.507  1.00  0.00    -0.364 N 
HETATM   23  C   UNL     1      39.931 -10.430  13.054  1.00  0.00     0.149 C 
HETATM   24  H   UNL     1      41.912 -11.178  12.788  1.00  0.00     0.161 HD
HETATM   25  O   UNL     1      41.164  -8.339  11.613  1.00  0.00    -0.271 OA
ENDBRANCH  20  21
ENDBRANCH  19  20
ENDBRANCH  16  19
ENDBRANCH  11  13
ENDBRANCH   1  11
BRANCH   4  26
HETATM   26  C   UNL     1      43.640 -17.573   5.156  1.00  0.00    -0.005 A 
HETATM   27  C   UNL     1      43.352 -18.306   6.323  1.00  0.00     0.016 A 
HETATM   28  C   UNL     1      43.500 -19.695   6.358  1.00  0.00     0.037 A 
HETATM   29  C   UNL     1      43.951 -20.363   5.225  1.00  0.00     0.065 A 
HETATM   30  C   UNL     1      44.257 -19.665   4.064  1.00  0.00     0.037 A 
HETATM   31  C   UNL     1      44.107 -18.277   4.032  1.00  0.00     0.016 A 
BRANCH  29  32
HETATM   32  O   UNL     1      44.116 -21.715   5.215  1.00  0.00    -0.361 OA
HETATM   33  H   UNL     1      45.066 -21.914   5.182  1.00  0.00     0.217 HD
ENDBRANCH  29  32
ENDBRANCH   4  26
TORSDOF 7
ENDMDL
MODEL 6
REMARK VINA RESULT:      -8.3      4.613      6.636
REMARK  7 active torsions:
REMARK  status: ('A' for Active; 'I' for Inactive)
REMARK       I    between atoms: N_2  and  C_3 
REMARK    1  A    between atoms: C_3  and  C_4 
REMARK    2  A    between atoms: C_4  and  O_5 
REMARK    3  A    between atoms: O_5  and  C_6 
REMARK    4  A    between atoms: C_9  and  N_10 
REMARK    5  A    between atoms: N_10  and  C_11 
REMARK    6  A    between atoms: C_14  and  C_15 
REMARK    7  A    between atoms: C_18  and  O_19 
ROOT
HETATM    1  C   UNL     1      42.613 -13.617   2.901  1.00  0.00     0.161 A 
HETATM    2  N   UNL     1      43.352 -14.331   2.029  1.00  0.00    -0.131 NA
HETATM    3  N   UNL     1      43.538 -15.676   2.184  1.00  0.00    -0.147 NA
HETATM    4  C   UNL     1      42.951 -16.332   3.208  1.00  0.00     0.100 A 
HETATM    5  C   UNL     1      42.110 -15.668   4.120  1.00  0.00     0.009 A 
HETATM    6  C   UNL     1      41.930 -14.270   3.958  1.00  0.00     0.024 A 
HETATM    7  C   UNL     1      41.422 -16.327   5.172  1.00  0.00     0.015 A 
HETATM    8  C   UNL     1      40.591 -15.637   6.054  1.00  0.00     0.001 A 
HETATM    9  C   UNL     1      40.410 -14.273   5.898  1.00  0.00     0.001 A 
HETATM   10  C   UNL     1      41.063 -13.601   4.863  1.00  0.00     0.016 A 
ENDROOT
BRANCH   1  11
HETATM   11  N   UNL     1      42.442 -12.215   2.716  1.00  0.00    -0.339 N 
HETATM   12  H   UNL     1      43.354 -11.770   2.757  1.00  0.00     0.167 HD
BRANCH  11  13
HETATM   13  C   UNL     1      41.675 -11.528   1.744  1.00  0.00     0.033 A 
HETATM   14  C   UNL     1      41.541 -10.140   1.881  1.00  0.00     0.032 A 
HETATM   15  C   UNL     1      40.841  -9.385   0.935  1.00  0.00     0.039 A 
HETATM   16  C   UNL     1      40.271  -9.998  -0.180  1.00  0.00     0.069 A 
HETATM   17  C   UNL     1      40.400 -11.377  -0.330  1.00  0.00     0.039 A 
HETATM   18  C   UNL     1      41.102 -12.132   0.622  1.00  0.00     0.032 A 
BRANCH  16  19
HETATM   19  O   UNL     1      39.629  -9.151  -1.040  1.00  0.00    -0.342 OA
BRANCH  19  20
HETATM   20  C   UNL     1      39.482  -9.597  -2.387  1.00  0.00     0.278 C 
BRANCH  20  21
HETATM   21  C   UNL     1      40.633  -9.104  -3.264  1.00  0.00     0.241 C 
HETATM   22  N   UNL     1      41.219  -7.933  -2.837  1.00  0.00    -0.364 N 
HETATM   23  C   UNL     1      42.383  -7.385  -3.483  1.00  0.00     0.149 C 
HETATM   24  H   UNL     1      40.947  -7.599  -1.917  1.00  0.00     0.161 HD
HETATM   25  O   UNL     1      40.989  -9.710  -4.273  1.00  0.00    -0.271 OA
ENDBRANCH  20  21
ENDBRANCH  19  20
ENDBRANCH  16  19
ENDBRANCH  11  13
ENDBRANCH   1  11
BRANCH   4  26
HETATM   26  C   UNL     1      43.282 -17.765   3.253  1.00  0.00    -0.005 A 
HETATM   27  C   UNL     1      42.918 -18.637   2.210  1.00  0.00     0.016 A 
HETATM   28  C   UNL     1      43.220 -20.000   2.270  1.00  0.00     0.037 A 
HETATM   29  C   UNL     1      43.882 -20.505   3.384  1.00  0.00     0.065 A 
HETATM   30  C   UNL     1      44.240 -19.671   4.435  1.00  0.00     0.037 A 
HETATM   31  C   UNL     1      43.938 -18.309   4.372  1.00  0.00     0.016 A 
BRANCH  29  32
HETATM   32  O   UNL     1      44.192 -21.827   3.489  1.00  0.00    -0.361 OA
HETATM   33  H   UNL     1      43.378 -22.326   3.668  1.00  0.00     0.217 HD
ENDBRANCH  29  32
ENDBRANCH   4  26
TORSDOF 7
ENDMDL
MODEL 7
REMARK VINA RESULT:      -8.1     17.267     19.834
REMARK  7 active torsions:
REMARK  status: ('A' for Active; 'I' for Inactive)
REMARK       I    between atoms: N_2  and  C_3 
REMARK    1  A    between atoms: C_3  and  C_4 
REMARK    2  A    between atoms: C_4  and  O_5 
REMARK    3  A    between atoms: O_5  and  C_6 
REMARK    4  A    between atoms: C_9  and  N_10 
REMARK    5  A    between atoms: N_10  and  C_11 
REMARK    6  A    between atoms: C_14  and  C_15 
REMARK    7  A    between atoms: C_18  and  O_19 
ROOT
HETATM    1  C   UNL     1      47.715 -28.761   1.196  1.00  0.00     0.161 A 
HETATM    2  N   UNL     1      47.426 -28.683   2.510  1.00  0.00    -0.131 NA
HETATM    3  N   UNL     1      48.127 -29.398   3.440  1.00  0.00    -0.147 NA
HETATM    4  C   UNL     1      49.159 -30.182   3.061  1.00  0.00     0.100 A 
HETATM    5  C   UNL     1      49.564 -30.262   1.716  1.00  0.00     0.009 A 
HETATM    6  C   UNL     1      48.825 -29.524   0.756  1.00  0.00     0.024 A 
HETATM    7  C   UNL     1      50.681 -31.022   1.280  1.00  0.00     0.015 A 
HETATM    8  C   UNL     1      51.058 -31.073  -0.062  1.00  0.00     0.001 A 
HETATM    9  C   UNL     1      50.341 -30.352  -1.003  1.00  0.00     0.001 A 
HETATM   10  C   UNL     1      49.247 -29.585  -0.600  1.00  0.00     0.016 A 
ENDROOT
BRANCH   1  11
HETATM   11  N   UNL     1      46.961 -28.007   0.251  1.00  0.00    -0.339 N 
HETATM   12  H   UNL     1      47.575 -27.322  -0.179  1.00  0.00     0.167 HD
BRANCH  11  13
HETATM   13  C   UNL     1      46.065 -28.463  -0.745  1.00  0.00     0.033 A 
HETATM   14  C   UNL     1      46.391 -28.202  -2.083  1.00  0.00     0.032 A 
HETATM   15  C   UNL     1      45.582 -28.664  -3.127  1.00  0.00     0.039 A 
HETATM   16  C   UNL     1      44.437 -29.411  -2.858  1.00  0.00     0.069 A 
HETATM   17  C   UNL     1      44.104 -29.682  -1.532  1.00  0.00     0.039 A 
HETATM   18  C   UNL     1      44.916 -29.216  -0.488  1.00  0.00     0.032 A 
BRANCH  16  19
HETATM   19  O   UNL     1      43.741 -29.819  -3.962  1.00  0.00    -0.342 OA
BRANCH  19  20
HETATM   20  C   UNL     1      44.435 -29.775  -5.208  1.00  0.00     0.278 C 
BRANCH  20  21
HETATM   21  C   UNL     1      44.095 -30.986  -6.077  1.00  0.00     0.241 C 
HETATM   22  N   UNL     1      44.210 -30.770  -7.433  1.00  0.00    -0.364 N 
HETATM   23  C   UNL     1      44.032 -31.829  -8.390  1.00  0.00     0.149 C 
HETATM   24  H   UNL     1      44.653 -29.902  -7.717  1.00  0.00     0.161 HD
HETATM   25  O   UNL     1      43.737 -32.057  -5.591  1.00  0.00    -0.271 OA
ENDBRANCH  20  21
ENDBRANCH  19  20
ENDBRANCH  16  19
ENDBRANCH  11  13
ENDBRANCH   1  11
BRANCH   4  26
HETATM   26  C   UNL     1      49.782 -30.911   4.176  1.00  0.00    -0.005 A 
HETATM   27  C   UNL     1      49.085 -31.911   4.882  1.00  0.00     0.016 A 
HETATM   28  C   UNL     1      49.680 -32.586   5.952  1.00  0.00     0.037 A 
HETATM   29  C   UNL     1      50.976 -32.257   6.332  1.00  0.00     0.065 A 
HETATM   30  C   UNL     1      51.682 -31.266   5.664  1.00  0.00     0.037 A 
HETATM   31  C   UNL     1      51.086 -30.593   4.595  1.00  0.00     0.016 A 
BRANCH  29  32
HETATM   32  O   UNL     1      51.593 -32.885   7.372  1.00  0.00    -0.361 OA
HETATM   33  H   UNL     1      51.613 -32.283   8.133  1.00  0.00     0.217 HD
ENDBRANCH  29  32
ENDBRANCH   4  26
TORSDOF 7
ENDMDL
MODEL 8
REMARK VINA RESULT:      -8.1      2.802     10.218
REMARK  7 active torsions:
REMARK  status: ('A' for Active; 'I' for Inactive)
REMARK       I    between atoms: N_2  and  C_3 
REMARK    1  A    between atoms: C_3  and  C_4 
REMARK    2  A    between atoms: C_4  and  O_5 
REMARK    3  A    between atoms: O_5  and  C_6 
REMARK    4  A    between atoms: C_9  and  N_10 
REMARK    5  A    between atoms: N_10  and  C_11 
REMARK    6  A    between atoms: C_14  and  C_15 
REMARK    7  A    between atoms: C_18  and  O_19 
ROOT
HETATM    1  C   UNL     1      44.243 -10.421   8.693  1.00  0.00     0.161 A 
HETATM    2  N   UNL     1      44.569 -10.937   9.895  1.00  0.00    -0.131 NA
HETATM    3  N   UNL     1      44.076 -10.411  11.056  1.00  0.00    -0.147 NA
HETATM    4  C   UNL     1      43.216  -9.371  11.023  1.00  0.00     0.100 A 
HETATM    5  C   UNL     1      42.776  -8.822   9.804  1.00  0.00     0.009 A 
HETATM    6  C   UNL     1      43.299  -9.367   8.604  1.00  0.00     0.024 A 
HETATM    7  C   UNL     1      41.825  -7.771   9.718  1.00  0.00     0.015 A 
HETATM    8  C   UNL     1      41.406  -7.255   8.492  1.00  0.00     0.001 A 
HETATM    9  C   UNL     1      41.912  -7.786   7.317  1.00  0.00     0.001 A 
HETATM   10  C   UNL     1      42.838  -8.829   7.372  1.00  0.00     0.016 A 
ENDROOT
BRANCH   1  11
HETATM   11  N   UNL     1      44.777 -10.988   7.501  1.00  0.00    -0.339 N 
HETATM   12  H   UNL     1      45.717 -11.321   7.694  1.00  0.00     0.167 HD
BRANCH  11  13
HETATM   13  C   UNL     1      44.178 -11.898   6.598  1.00  0.00     0.033 A 
HETATM   14  C   UNL     1      43.740 -13.128   7.107  1.00  0.00     0.032 A 
HETATM   15  C   UNL     1      43.093 -14.060   6.290  1.00  0.00     0.039 A 
HETATM   16  C   UNL     1      42.856 -13.778   4.945  1.00  0.00     0.069 A 
HETATM   17  C   UNL     1      43.282 -12.558   4.427  1.00  0.00     0.039 A 
HETATM   18  C   UNL     1      43.932 -11.626   5.250  1.00  0.00     0.032 A 
BRANCH  16  19
HETATM   19  O   UNL     1      42.201 -14.761   4.256  1.00  0.00    -0.342 OA
BRANCH  19  20
HETATM   20  C   UNL     1      42.375 -16.097   4.727  1.00  0.00     0.278 C 
BRANCH  20  21
HETATM   21  C   UNL     1      42.632 -17.064   3.570  1.00  0.00     0.241 C 
HETATM   22  N   UNL     1      43.662 -17.954   3.785  1.00  0.00    -0.364 N 
HETATM   23  C   UNL     1      43.971 -19.000   2.847  1.00  0.00     0.149 C 
HETATM   24  H   UNL     1      44.039 -17.991   4.727  1.00  0.00     0.161 HD
HETATM   25  O   UNL     1      41.972 -17.031   2.534  1.00  0.00    -0.271 OA
ENDBRANCH  20  21
ENDBRANCH  19  20
ENDBRANCH  16  19
ENDBRANCH  11  13
ENDBRANCH   1  11
BRANCH   4  26
HETATM   26  C   UNL     1      42.811  -8.901  12.356  1.00  0.00    -0.005 A 
HETATM   27  C   UNL     1      41.737  -9.492  13.049  1.00  0.00     0.016 A 
HETATM   28  C   UNL     1      41.347  -9.026  14.308  1.00  0.00     0.037 A 
HETATM   29  C   UNL     1      42.024  -7.955  14.881  1.00  0.00     0.065 A 
HETATM   30  C   UNL     1      43.078  -7.343  14.214  1.00  0.00     0.037 A 
HETATM   31  C   UNL     1      43.465  -7.811  12.957  1.00  0.00     0.016 A 
BRANCH  29  32
HETATM   32  O   UNL     1      41.675  -7.465  16.103  1.00  0.00    -0.361 OA
HETATM   33  H   UNL     1      42.355  -7.720  16.747  1.00  0.00     0.217 HD
ENDBRANCH  29  32
ENDBRANCH   4  26
TORSDOF 7
ENDMDL
MODEL 9
REMARK VINA RESULT:      -8.0      5.890     10.011
REMARK  7 active torsions:
REMARK  status: ('A' for Active; 'I' for Inactive)
REMARK       I    between atoms: N_2  and  C_3 
REMARK    1  A    between atoms: C_3  and  C_4 
REMARK    2  A    between atoms: C_4  and  O_5 
REMARK    3  A    between atoms: O_5  and  C_6 
REMARK    4  A    between atoms: C_9  and  N_10 
REMARK    5  A    between atoms: N_10  and  C_11 
REMARK    6  A    between atoms: C_14  and  C_15 
REMARK    7  A    between atoms: C_18  and  O_19 
ROOT
HETATM    1  C   UNL     1      40.255 -13.101   0.008  1.00  0.00     0.161 A 
HETATM    2  N   UNL     1      39.962 -12.078   0.835  1.00  0.00    -0.131 NA
HETATM    3  N   UNL     1      38.883 -11.268   0.615  1.00  0.00    -0.147 NA
HETATM    4  C   UNL     1      38.059 -11.498  -0.429  1.00  0.00     0.100 A 
HETATM    5  C   UNL     1      38.261 -12.588  -1.297  1.00  0.00     0.009 A 
HETATM    6  C   UNL     1      39.388 -13.418  -1.068  1.00  0.00     0.024 A 
HETATM    7  C   UNL     1      37.386 -12.907  -2.368  1.00  0.00     0.015 A 
HETATM    8  C   UNL     1      37.613 -13.999  -3.205  1.00  0.00     0.001 A 
HETATM    9  C   UNL     1      38.711 -14.814  -2.983  1.00  0.00     0.001 A 
HETATM   10  C   UNL     1      39.580 -14.533  -1.928  1.00  0.00     0.016 A 
ENDROOT
BRANCH   1  11
HETATM   11  N   UNL     1      41.390 -13.925   0.261  1.00  0.00    -0.339 N 
HETATM   12  H   UNL     1      42.229 -13.381   0.083  1.00  0.00     0.167 HD
BRANCH  11  13
HETATM   13  C   UNL     1      41.653 -14.769   1.366  1.00  0.00     0.033 A 
HETATM   14  C   UNL     1      42.973 -14.843   1.829  1.00  0.00     0.032 A 
HETATM   15  C   UNL     1      43.304 -15.616   2.947  1.00  0.00     0.039 A 
HETATM   16  C   UNL     1      42.320 -16.322   3.637  1.00  0.00     0.069 A 
HETATM   17  C   UNL     1      41.003 -16.254   3.189  1.00  0.00     0.039 A 
HETATM   18  C   UNL     1      40.674 -15.479   2.067  1.00  0.00     0.032 A 
BRANCH  16  19
HETATM   19  O   UNL     1      42.767 -17.025   4.721  1.00  0.00    -0.342 OA
BRANCH  19  20
HETATM   20  C   UNL     1      44.078 -17.582   4.627  1.00  0.00     0.278 C 
BRANCH  20  21
HETATM   21  C   UNL     1      44.029 -19.049   4.201  1.00  0.00     0.241 C 
HETATM   22  N   UNL     1      43.793 -19.249   2.859  1.00  0.00    -0.364 N 
HETATM   23  C   UNL     1      43.821 -20.561   2.269  1.00  0.00     0.149 C 
HETATM   24  H   UNL     1      43.833 -18.427   2.264  1.00  0.00     0.161 HD
HETATM   25  O   UNL     1      44.178 -19.967   5.006  1.00  0.00    -0.271 OA
ENDBRANCH  20  21
ENDBRANCH  19  20
ENDBRANCH  16  19
ENDBRANCH  11  13
ENDBRANCH   1  11
BRANCH   4  26
HETATM   26  C   UNL     1      36.971 -10.516  -0.546  1.00  0.00    -0.005 A 
HETATM   27  C   UNL     1      36.779  -9.768  -1.724  1.00  0.00     0.016 A 
HETATM   28  C   UNL     1      35.754  -8.823  -1.820  1.00  0.00     0.037 A 
HETATM   29  C   UNL     1      34.917  -8.610  -0.730  1.00  0.00     0.065 A 
HETATM   30  C   UNL     1      35.091  -9.322   0.449  1.00  0.00     0.037 A 
HETATM   31  C   UNL     1      36.116 -10.266   0.542  1.00  0.00     0.016 A 
BRANCH  29  32
HETATM   32  O   UNL     1      33.908  -7.696  -0.777  1.00  0.00    -0.361 OA
HETATM   33  H   UNL     1      33.926  -7.254  -1.642  1.00  0.00     0.217 HD
ENDBRANCH  29  32
ENDBRANCH   4  26
TORSDOF 7
ENDMDL
MODEL 10
REMARK VINA RESULT:      -7.9      5.457      9.577
REMARK  7 active torsions:
REMARK  status: ('A' for Active; 'I' for Inactive)
REMARK       I    between atoms: N_2  and  C_3 
REMARK    1  A    between atoms: C_3  and  C_4 
REMARK    2  A    between atoms: C_4  and  O_5 
REMARK    3  A    between atoms: O_5  and  C_6 
REMARK    4  A    between atoms: C_9  and  N_10 
REMARK    5  A    between atoms: N_10  and  C_11 
REMARK    6  A    between atoms: C_14  and  C_15 
REMARK    7  A    between atoms: C_18  and  O_19 
ROOT
HETATM    1  C   UNL     1      40.372 -12.144   1.083  1.00  0.00     0.161 A 
HETATM    2  N   UNL     1      40.688 -10.885   1.444  1.00  0.00    -0.131 NA
HETATM    3  N   UNL     1      41.151  -9.975   0.536  1.00  0.00    -0.147 NA
HETATM    4  C   UNL     1      41.273 -10.313  -0.766  1.00  0.00     0.100 A 
HETATM    5  C   UNL     1      40.899 -11.587  -1.231  1.00  0.00     0.009 A 
HETATM    6  C   UNL     1      40.427 -12.528  -0.281  1.00  0.00     0.024 A 
HETATM    7  C   UNL     1      40.949 -11.965  -2.598  1.00  0.00     0.015 A 
HETATM    8  C   UNL     1      40.563 -13.236  -3.025  1.00  0.00     0.001 A 
HETATM    9  C   UNL     1      40.100 -14.157  -2.101  1.00  0.00     0.001 A 
HETATM   10  C   UNL     1      40.027 -13.807  -0.752  1.00  0.00     0.016 A 
ENDROOT
BRANCH   1  11
HETATM   11  N   UNL     1      39.896 -13.071   2.054  1.00  0.00    -0.339 N 
HETATM   12  H   UNL     1      39.028 -13.475   1.717  1.00  0.00     0.167 HD
BRANCH  11  13
HETATM   13  C   UNL     1      40.602 -14.087   2.741  1.00  0.00     0.033 A 
HETATM   14  C   UNL     1      41.685 -13.700   3.543  1.00  0.00     0.032 A 
HETATM   15  C   UNL     1      42.401 -14.638   4.292  1.00  0.00     0.039 A 
HETATM   16  C   UNL     1      42.043 -15.985   4.269  1.00  0.00     0.069 A 
HETATM   17  C   UNL     1      40.966 -16.383   3.480  1.00  0.00     0.039 A 
HETATM   18  C   UNL     1      40.251 -15.439   2.728  1.00  0.00     0.032 A 
BRANCH  16  19
HETATM   19  O   UNL     1      42.808 -16.800   5.057  1.00  0.00    -0.342 OA
BRANCH  19  20
HETATM   20  C   UNL     1      44.056 -17.228   4.512  1.00  0.00     0.278 C 
BRANCH  20  21
HETATM   21  C   UNL     1      44.005 -18.697   4.095  1.00  0.00     0.241 C 
HETATM   22  N   UNL     1      43.610 -18.910   2.792  1.00  0.00    -0.364 N 
HETATM   23  C   UNL     1      43.608 -20.222   2.202  1.00  0.00     0.149 C 
HETATM   24  H   UNL     1      43.546 -18.089   2.198  1.00  0.00     0.161 HD
HETATM   25  O   UNL     1      44.286 -19.607   4.873  1.00  0.00    -0.271 OA
ENDBRANCH  20  21
ENDBRANCH  19  20
ENDBRANCH  16  19
ENDBRANCH  11  13
ENDBRANCH   1  11
BRANCH   4  26
HETATM   26  C   UNL     1      41.821  -9.234  -1.603  1.00  0.00    -0.005 A 
HETATM   27  C   UNL     1      42.919  -8.461  -1.181  1.00  0.00     0.016 A 
HETATM   28  C   UNL     1      43.421  -7.426  -1.975  1.00  0.00     0.037 A 
HETATM   29  C   UNL     1      42.819  -7.150  -3.198  1.00  0.00     0.065 A 
HETATM   30  C   UNL     1      41.726  -7.886  -3.634  1.00  0.00     0.037 A 
HETATM   31  C   UNL     1      41.227  -8.920  -2.838  1.00  0.00     0.016 A 
BRANCH  29  32
HETATM   32  O   UNL     1      43.271  -6.147  -4.002  1.00  0.00    -0.361 OA
HETATM   33  H   UNL     1      44.225  -6.037  -3.857  1.00  0.00     0.217 HD
ENDBRANCH  29  32
ENDBRANCH   4  26
TORSDOF 7
ENDMDL
