MODEL 1
REMARK VINA RESULT:      -9.3      0.000      0.000
REMARK  6 active torsions:
REMARK  status: ('A' for Active; 'I' for Inactive)
REMARK    1  A    between atoms: C_5  and  N_6 
REMARK    2  A    between atoms: N_6  and  C_7 
REMARK    3  A    between atoms: C_7  and  C_8 
REMARK    4  A    between atoms: N_10  and  C_12 
REMARK    5  A    between atoms: C_12  and  C_13 
REMARK    6  A    between atoms: C_14  and  C_15 
ROOT
HETATM    1  C   UNL     1      41.998 -13.115   4.727  1.00  0.00     0.031 C 
HETATM    2  C   UNL     1      41.622 -14.470   4.116  1.00  0.00     0.241 C 
HETATM    3  N   UNL     1      40.537 -15.036   5.013  1.00  0.00    -0.067 N 
HETATM    4  H   UNL     1      39.689 -15.158   4.440  1.00  0.00     0.280 HD
HETATM    5  C   UNL     1      40.201 -13.988   6.052  1.00  0.00     0.235 C 
HETATM    6  C   UNL     1      40.706 -12.702   5.430  1.00  0.00     0.035 C 
ENDROOT
BRANCH   3   7
HETATM    7  C   UNL     1      40.838 -16.417   5.554  1.00  0.00     0.277 C 
BRANCH   7   8
HETATM    8  C   UNL     1      42.038 -16.484   6.421  1.00  0.00     0.016 A 
HETATM    9  C   UNL     1      43.207 -17.288   6.230  1.00  0.00     0.102 A 
HETATM   10  N   UNL     1      44.107 -17.044   7.189  1.00  0.00    -0.174 NA
HETATM   11  N   UNL     1      43.505 -16.212   8.042  1.00  0.00    -0.288 N 
HETATM   12  H   UNL     1      44.002 -15.949   8.890  1.00  0.00     0.188 HD
HETATM   13  C   UNL     1      42.267 -15.822   7.616  1.00  0.00     0.120 A 
BRANCH   9  14
HETATM   14  C   UNL     1      43.507 -18.258   5.187  1.00  0.00     0.072 A 
HETATM   15  C   UNL     1      43.583 -19.627   5.455  1.00  0.00     0.132 A 
HETATM   16  F   UNL     1      43.434 -20.084   6.711  1.00  0.00    -0.205 F 
HETATM   17  C   UNL     1      43.852 -20.552   4.444  1.00  0.00     0.043 A 
HETATM   18  C   UNL     1      44.050 -20.112   3.136  1.00  0.00     0.006 A 
HETATM   19  C   UNL     1      43.988 -18.749   2.850  1.00  0.00     0.043 A 
HETATM   20  C   UNL     1      43.718 -17.837   3.870  1.00  0.00     0.132 A 
HETATM   21  F   UNL     1      43.711 -16.530   3.564  1.00  0.00    -0.205 F 
ENDBRANCH   9  14
ENDBRANCH   7   8
ENDBRANCH   3   7
BRANCH   1  22
HETATM   22  C   UNL     1      43.205 -13.226   5.684  1.00  0.00     0.127 C 
BRANCH  22  23
HETATM   23  N   UNL     1      42.964 -12.428   6.890  1.00  0.00    -0.376 N 
HETATM   24  H   UNL     1      42.008 -12.091   6.972  1.00  0.00     0.161 HD
BRANCH  23  25
HETATM   25  C   UNL     1      43.949 -11.612   7.424  1.00  0.00     0.101 A 
HETATM   26  N   UNL     1      43.695 -10.994   8.594  1.00  0.00    -0.347 N 
HETATM   27  C   UNL     1      44.572 -10.204   9.242  1.00  0.00     0.007 A 
HETATM   28  H   UNL     1      42.787 -11.147   9.020  1.00  0.00     0.167 HD
HETATM   29  C   UNL     1      44.166  -9.573  10.536  1.00  0.00     0.068 C 
HETATM   30  C   UNL     1      45.839 -10.006   8.699  1.00  0.00     0.025 A 
HETATM   31  C   UNL     1      46.168 -10.637   7.508  1.00  0.00     0.006 A 
HETATM   32  C   UNL     1      45.227 -11.445   6.874  1.00  0.00     0.048 A 
ENDBRANCH  23  25
ENDBRANCH  22  23
ENDBRANCH   1  22
TORSDOF 6
ENDMDL
MODEL 2
REMARK VINA RESULT:      -9.2      2.992      6.939
REMARK  6 active torsions:
REMARK  status: ('A' for Active; 'I' for Inactive)
REMARK    1  A    between atoms: C_5  and  N_6 
REMARK    2  A    between atoms: N_6  and  C_7 
REMARK    3  A    between atoms: C_7  and  C_8 
REMARK    4  A    between atoms: N_10  and  C_12 
REMARK    5  A    between atoms: C_12  and  C_13 
REMARK    6  A    between atoms: C_14  and  C_15 
ROOT
HETATM    1  C   UNL     1      42.906 -15.798   6.667  1.00  0.00     0.031 C 
HETATM    2  C   UNL     1      43.082 -14.293   6.901  1.00  0.00     0.241 C 
HETATM    3  N   UNL     1      41.751 -13.664   6.532  1.00  0.00    -0.067 N 
HETATM    4  H   UNL     1      41.381 -13.198   7.372  1.00  0.00     0.280 HD
HETATM    5  C   UNL     1      40.784 -14.782   6.205  1.00  0.00     0.235 C 
HETATM    6  C   UNL     1      41.405 -15.991   6.877  1.00  0.00     0.035 C 
ENDROOT
BRANCH   3   7
HETATM    7  C   UNL     1      41.852 -12.566   5.495  1.00  0.00     0.277 C 
BRANCH   7   8
HETATM    8  C   UNL     1      40.712 -12.513   4.549  1.00  0.00     0.016 A 
HETATM    9  C   UNL     1      40.536 -13.280   3.353  1.00  0.00     0.102 A 
HETATM   10  N   UNL     1      39.358 -13.000   2.785  1.00  0.00    -0.174 NA
HETATM   11  N   UNL     1      38.840 -12.002   3.506  1.00  0.00    -0.288 N 
HETATM   12  H   UNL     1      37.961 -11.591   3.198  1.00  0.00     0.188 HD
HETATM   13  C   UNL     1      39.602 -11.686   4.595  1.00  0.00     0.120 A 
BRANCH   9  14
HETATM   14  C   UNL     1      41.421 -14.259   2.739  1.00  0.00     0.072 A 
HETATM   15  C   UNL     1      42.701 -13.918   2.298  1.00  0.00     0.132 A 
HETATM   16  F   UNL     1      43.135 -12.647   2.380  1.00  0.00    -0.205 F 
HETATM   17  C   UNL     1      43.551 -14.869   1.727  1.00  0.00     0.043 A 
HETATM   18  C   UNL     1      43.123 -16.188   1.591  1.00  0.00     0.006 A 
HETATM   19  C   UNL     1      41.844 -16.546   2.016  1.00  0.00     0.043 A 
HETATM   20  C   UNL     1      41.007 -15.586   2.584  1.00  0.00     0.132 A 
HETATM   21  F   UNL     1      39.768 -15.959   2.940  1.00  0.00    -0.205 F 
ENDBRANCH   9  14
ENDBRANCH   7   8
ENDBRANCH   3   7
BRANCH   1  22
HETATM   22  C   UNL     1      43.386 -16.226   5.263  1.00  0.00     0.127 C 
BRANCH  22  23
HETATM   23  N   UNL     1      44.392 -17.286   5.379  1.00  0.00    -0.376 N 
HETATM   24  H   UNL     1      45.345 -16.962   5.230  1.00  0.00     0.161 HD
BRANCH  23  25
HETATM   25  C   UNL     1      44.119 -18.587   4.985  1.00  0.00     0.101 A 
HETATM   26  N   UNL     1      44.045 -18.848   3.665  1.00  0.00    -0.347 N 
HETATM   27  C   UNL     1      43.822 -20.070   3.144  1.00  0.00     0.007 A 
HETATM   28  H   UNL     1      44.180 -18.074   3.023  1.00  0.00     0.167 HD
HETATM   29  C   UNL     1      43.761 -20.227   1.658  1.00  0.00     0.068 C 
HETATM   30  C   UNL     1      43.670 -21.157   4.000  1.00  0.00     0.025 A 
HETATM   31  C   UNL     1      43.761 -20.954   5.370  1.00  0.00     0.006 A 
HETATM   32  C   UNL     1      43.992 -19.672   5.862  1.00  0.00     0.048 A 
ENDBRANCH  23  25
ENDBRANCH  22  23
ENDBRANCH   1  22
TORSDOF 6
ENDMDL
MODEL 3
REMARK VINA RESULT:      -9.1      4.089      6.872
REMARK  6 active torsions:
REMARK  status: ('A' for Active; 'I' for Inactive)
REMARK    1  A    between atoms: C_5  and  N_6 
REMARK    2  A    between atoms: N_6  and  C_7 
REMARK    3  A    between atoms: C_7  and  C_8 
REMARK    4  A    between atoms: N_10  and  C_12 
REMARK    5  A    between atoms: C_12  and  C_13 
REMARK    6  A    between atoms: C_14  and  C_15 
ROOT
HETATM    1  C   UNL     1      40.183 -14.155   1.332  1.00  0.00     0.031 C 
HETATM    2  C   UNL     1      39.994 -14.421   2.829  1.00  0.00     0.241 C 
HETATM    3  N   UNL     1      41.391 -14.623   3.387  1.00  0.00    -0.067 N 
HETATM    4  H   UNL     1      41.553 -13.892   4.095  1.00  0.00     0.280 HD
HETATM    5  C   UNL     1      42.379 -14.362   2.271  1.00  0.00     0.235 C 
HETATM    6  C   UNL     1      41.579 -13.539   1.280  1.00  0.00     0.035 C 
ENDROOT
BRANCH   3   7
HETATM    7  C   UNL     1      41.578 -15.927   4.132  1.00  0.00     0.277 C 
BRANCH   7   8
HETATM    8  C   UNL     1      42.781 -15.970   4.996  1.00  0.00     0.016 A 
HETATM    9  C   UNL     1      43.736 -17.031   5.108  1.00  0.00     0.102 A 
HETATM   10  N   UNL     1      44.719 -16.691   5.948  1.00  0.00    -0.174 NA
HETATM   11  N   UNL     1      44.361 -15.512   6.461  1.00  0.00    -0.288 N 
HETATM   12  H   UNL     1      44.950 -15.101   7.182  1.00  0.00     0.188 HD
HETATM   13  C   UNL     1      43.215 -15.019   5.904  1.00  0.00     0.120 A 
BRANCH   9  14
HETATM   14  C   UNL     1      43.759 -18.332   4.455  1.00  0.00     0.072 A 
HETATM   15  C   UNL     1      43.831 -18.457   3.066  1.00  0.00     0.132 A 
HETATM   16  F   UNL     1      43.825 -17.363   2.282  1.00  0.00    -0.205 F 
HETATM   17  C   UNL     1      43.874 -19.710   2.449  1.00  0.00     0.043 A 
HETATM   18  C   UNL     1      43.843 -20.866   3.226  1.00  0.00     0.006 A 
HETATM   19  C   UNL     1      43.761 -20.763   4.614  1.00  0.00     0.043 A 
HETATM   20  C   UNL     1      43.721 -19.505   5.216  1.00  0.00     0.132 A 
HETATM   21  F   UNL     1      43.597 -19.447   6.551  1.00  0.00    -0.205 F 
ENDBRANCH   9  14
ENDBRANCH   7   8
ENDBRANCH   3   7
BRANCH   1  22
HETATM   22  C   UNL     1      40.053 -15.444   0.492  1.00  0.00     0.127 C 
BRANCH  22  23
HETATM   23  N   UNL     1      39.134 -15.224  -0.628  1.00  0.00    -0.376 N 
HETATM   24  H   UNL     1      38.850 -16.081  -1.096  1.00  0.00     0.161 HD
BRANCH  23  25
HETATM   25  C   UNL     1      39.223 -14.092  -1.423  1.00  0.00     0.101 A 
HETATM   26  N   UNL     1      38.271 -13.148  -1.290  1.00  0.00    -0.347 N 
HETATM   27  C   UNL     1      38.253 -11.986  -1.971  1.00  0.00     0.007 A 
HETATM   28  H   UNL     1      37.526 -13.319  -0.622  1.00  0.00     0.167 HD
HETATM   29  C   UNL     1      37.137 -11.019  -1.733  1.00  0.00     0.068 C 
HETATM   30  C   UNL     1      39.281 -11.707  -2.868  1.00  0.00     0.025 A 
HETATM   31  C   UNL     1      40.303 -12.631  -3.029  1.00  0.00     0.006 A 
HETATM   32  C   UNL     1      40.278 -13.820  -2.303  1.00  0.00     0.048 A 
ENDBRANCH  23  25
ENDBRANCH  22  23
ENDBRANCH   1  22
TORSDOF 6
ENDMDL
MODEL 4
REMARK VINA RESULT:      -9.0      2.075      3.282
REMARK  6 active torsions:
REMARK  status: ('A' for Active; 'I' for Inactive)
REMARK    1  A    between atoms: C_5  and  N_6 
REMARK    2  A    between atoms: N_6  and  C_7 
REMARK    3  A    between atoms: C_7  and  C_8 
REMARK    4  A    between atoms: N_10  and  C_12 
REMARK    5  A    between atoms: C_12  and  C_13 
REMARK    6  A    between atoms: C_14  and  C_15 
ROOT
HETATM    1  C   UNL     1      43.593 -11.148   5.159  1.00  0.00     0.031 C 
HETATM    2  C   UNL     1      43.774 -11.546   3.690  1.00  0.00     0.241 C 
HETATM    3  N   UNL     1      42.478 -12.228   3.289  1.00  0.00    -0.067 N 
HETATM    4  H   UNL     1      42.062 -11.682   2.522  1.00  0.00     0.280 HD
HETATM    5  C   UNL     1      41.519 -12.125   4.455  1.00  0.00     0.235 C 
HETATM    6  C   UNL     1      42.079 -10.975   5.269  1.00  0.00     0.035 C 
ENDROOT
BRANCH   3   7
HETATM    7  C   UNL     1      42.662 -13.618   2.717  1.00  0.00     0.277 C 
BRANCH   7   8
HETATM    8  C   UNL     1      41.427 -14.437   2.695  1.00  0.00     0.016 A 
HETATM    9  C   UNL     1      41.254 -15.766   3.198  1.00  0.00     0.102 A 
HETATM   10  N   UNL     1      39.985 -16.162   3.052  1.00  0.00    -0.174 NA
HETATM   11  N   UNL     1      39.382 -15.187   2.368  1.00  0.00    -0.288 N 
HETATM   12  H   UNL     1      38.411 -15.322   2.092  1.00  0.00     0.188 HD
HETATM   13  C   UNL     1      40.196 -14.112   2.149  1.00  0.00     0.120 A 
BRANCH   9  14
HETATM   14  C   UNL     1      42.226 -16.660   3.811  1.00  0.00     0.072 A 
HETATM   15  C   UNL     1      42.316 -16.810   5.197  1.00  0.00     0.132 A 
HETATM   16  F   UNL     1      41.535 -16.080   6.013  1.00  0.00    -0.205 F 
HETATM   17  C   UNL     1      43.237 -17.686   5.775  1.00  0.00     0.043 A 
HETATM   18  C   UNL     1      44.090 -18.431   4.962  1.00  0.00     0.006 A 
HETATM   19  C   UNL     1      44.022 -18.288   3.577  1.00  0.00     0.043 A 
HETATM   20  C   UNL     1      43.096 -17.411   3.014  1.00  0.00     0.132 A 
HETATM   21  F   UNL     1      43.092 -17.268   1.680  1.00  0.00    -0.205 F 
ENDBRANCH   9  14
ENDBRANCH   7   8
ENDBRANCH   3   7
BRANCH   1  22
HETATM   22  C   UNL     1      44.157 -12.214   6.123  1.00  0.00     0.127 C 
BRANCH  22  23
HETATM   23  N   UNL     1      43.583 -12.036   7.460  1.00  0.00    -0.376 N 
HETATM   24  H   UNL     1      42.574 -12.164   7.491  1.00  0.00     0.161 HD
BRANCH  23  25
HETATM   25  C   UNL     1      44.114 -11.123   8.357  1.00  0.00     0.101 A 
HETATM   26  N   UNL     1      43.494 -10.966   9.543  1.00  0.00    -0.347 N 
HETATM   27  C   UNL     1      43.921 -10.141  10.520  1.00  0.00     0.007 A 
HETATM   28  H   UNL     1      42.660 -11.517   9.716  1.00  0.00     0.167 HD
HETATM   29  C   UNL     1      43.141 -10.057  11.793  1.00  0.00     0.068 C 
HETATM   30  C   UNL     1      45.083  -9.401  10.325  1.00  0.00     0.025 A 
HETATM   31  C   UNL     1      45.778  -9.538   9.132  1.00  0.00     0.006 A 
HETATM   32  C   UNL     1      45.299 -10.404   8.151  1.00  0.00     0.048 A 
ENDBRANCH  23  25
ENDBRANCH  22  23
ENDBRANCH   1  22
TORSDOF 6
ENDMDL
MODEL 5
REMARK VINA RESULT:      -8.9      2.163      4.327
REMARK  6 active torsions:
REMARK  status: ('A' for Active; 'I' for Inactive)
REMARK    1  A    between atoms: C_5  and  N_6 
REMARK    2  A    between atoms: N_6  and  C_7 
REMARK    3  A    between atoms: C_7  and  C_8 
REMARK    4  A    between atoms: N_10  and  C_12 
REMARK    5  A    between atoms: C_12  and  C_13 
REMARK    6  A    between atoms: C_14  and  C_15 
ROOT
HETATM    1  C   UNL     1      44.792 -11.699   7.294  1.00  0.00     0.031 C 
HETATM    2  C   UNL     1      43.817 -12.870   7.128  1.00  0.00     0.241 C 
HETATM    3  N   UNL     1      43.135 -12.647   5.790  1.00  0.00    -0.067 N 
HETATM    4  H   UNL     1      43.353 -13.455   5.190  1.00  0.00     0.280 HD
HETATM    5  C   UNL     1      43.780 -11.444   5.135  1.00  0.00     0.235 C 
HETATM    6  C   UNL     1      45.114 -11.331   5.847  1.00  0.00     0.035 C 
ENDROOT
BRANCH   3   7
HETATM    7  C   UNL     1      41.624 -12.618   5.863  1.00  0.00     0.277 C 
BRANCH   7   8
HETATM    8  C   UNL     1      40.947 -13.409   4.809  1.00  0.00     0.016 A 
HETATM    9  C   UNL     1      41.167 -14.784   4.475  1.00  0.00     0.102 A 
HETATM   10  N   UNL     1      40.332 -15.171   3.504  1.00  0.00    -0.174 NA
HETATM   11  N   UNL     1      39.682 -14.067   3.129  1.00  0.00    -0.288 N 
HETATM   12  H   UNL     1      39.036 -14.132   2.345  1.00  0.00     0.188 HD
HETATM   13  C   UNL     1      39.994 -12.983   3.898  1.00  0.00     0.120 A 
BRANCH   9  14
HETATM   14  C   UNL     1      42.115 -15.736   5.036  1.00  0.00     0.072 A 
HETATM   15  C   UNL     1      43.258 -16.132   4.338  1.00  0.00     0.132 A 
HETATM   16  F   UNL     1      43.487 -15.681   3.092  1.00  0.00    -0.205 F 
HETATM   17  C   UNL     1      44.174 -17.030   4.893  1.00  0.00     0.043 A 
HETATM   18  C   UNL     1      43.951 -17.548   6.168  1.00  0.00     0.006 A 
HETATM   19  C   UNL     1      42.810 -17.173   6.876  1.00  0.00     0.043 A 
HETATM   20  C   UNL     1      41.906 -16.274   6.310  1.00  0.00     0.132 A 
HETATM   21  F   UNL     1      40.798 -15.972   7.004  1.00  0.00    -0.205 F 
ENDBRANCH   9  14
ENDBRANCH   7   8
ENDBRANCH   3   7
BRANCH   1  22
HETATM   22  C   UNL     1      44.169 -10.535   8.096  1.00  0.00     0.127 C 
BRANCH  22  23
HETATM   23  N   UNL     1      43.524 -11.049   9.308  1.00  0.00    -0.376 N 
HETATM   24  H   UNL     1      42.839 -11.779   9.127  1.00  0.00     0.161 HD
BRANCH  23  25
HETATM   25  C   UNL     1      43.271 -10.227  10.395  1.00  0.00     0.101 A 
HETATM   26  N   UNL     1      42.151 -10.450  11.111  1.00  0.00    -0.347 N 
HETATM   27  C   UNL     1      41.801  -9.752  12.209  1.00  0.00     0.007 A 
HETATM   28  H   UNL     1      41.540 -11.202  10.810  1.00  0.00     0.167 HD
HETATM   29  C   UNL     1      40.528 -10.097  12.915  1.00  0.00     0.068 C 
HETATM   30  C   UNL     1      42.639  -8.738  12.666  1.00  0.00     0.025 A 
HETATM   31  C   UNL     1      43.818  -8.479  11.984  1.00  0.00     0.006 A 
HETATM   32  C   UNL     1      44.138  -9.227  10.853  1.00  0.00     0.048 A 
ENDBRANCH  23  25
ENDBRANCH  22  23
ENDBRANCH   1  22
TORSDOF 6
ENDMDL
MODEL 6
REMARK VINA RESULT:      -8.9      2.154      3.743
REMARK  6 active torsions:
REMARK  status: ('A' for Active; 'I' for Inactive)
REMARK    1  A    between atoms: C_5  and  N_6 
REMARK    2  A    between atoms: N_6  and  C_7 
REMARK    3  A    between atoms: C_7  and  C_8 
REMARK    4  A    between atoms: N_10  and  C_12 
REMARK    5  A    between atoms: C_12  and  C_13 
REMARK    6  A    between atoms: C_14  and  C_15 
ROOT
HETATM    1  C   UNL     1      43.034 -11.516   5.117  1.00  0.00     0.031 C 
HETATM    2  C   UNL     1      43.475 -11.574   3.650  1.00  0.00     0.241 C 
HETATM    3  N   UNL     1      42.311 -12.194   2.898  1.00  0.00    -0.067 N 
HETATM    4  H   UNL     1      41.986 -11.506   2.204  1.00  0.00     0.280 HD
HETATM    5  C   UNL     1      41.173 -12.383   3.877  1.00  0.00     0.235 C 
HETATM    6  C   UNL     1      41.514 -11.423   5.000  1.00  0.00     0.035 C 
ENDROOT
BRANCH   3   7
HETATM    7  C   UNL     1      42.681 -13.416   2.084  1.00  0.00     0.277 C 
BRANCH   7   8
HETATM    8  C   UNL     1      41.539 -14.306   1.766  1.00  0.00     0.016 A 
HETATM    9  C   UNL     1      41.220 -15.563   2.371  1.00  0.00     0.102 A 
HETATM   10  N   UNL     1      40.084 -16.054   1.864  1.00  0.00    -0.174 NA
HETATM   11  N   UNL     1      39.740 -15.219   0.881  1.00  0.00    -0.288 N 
HETATM   12  H   UNL     1      38.926 -15.449   0.316  1.00  0.00     0.188 HD
HETATM   13  C   UNL     1      40.567 -14.134   0.795  1.00  0.00     0.120 A 
BRANCH   9  14
HETATM   14  C   UNL     1      41.933 -16.306   3.401  1.00  0.00     0.072 A 
HETATM   15  C   UNL     1      42.995 -17.158   3.091  1.00  0.00     0.132 A 
HETATM   16  F   UNL     1      43.357 -17.359   1.811  1.00  0.00    -0.205 F 
HETATM   17  C   UNL     1      43.687 -17.851   4.088  1.00  0.00     0.043 A 
HETATM   18  C   UNL     1      43.316 -17.697   5.423  1.00  0.00     0.006 A 
HETATM   19  C   UNL     1      42.251 -16.859   5.752  1.00  0.00     0.043 A 
HETATM   20  C   UNL     1      41.572 -16.173   4.746  1.00  0.00     0.132 A 
HETATM   21  F   UNL     1      40.525 -15.411   5.097  1.00  0.00    -0.205 F 
ENDBRANCH   9  14
ENDBRANCH   7   8
ENDBRANCH   3   7
BRANCH   1  22
HETATM   22  C   UNL     1      43.510 -12.750   5.915  1.00  0.00     0.127 C 
BRANCH  22  23
HETATM   23  N   UNL     1      43.505 -12.452   7.350  1.00  0.00    -0.376 N 
HETATM   24  H   UNL     1      42.614 -12.638   7.802  1.00  0.00     0.161 HD
BRANCH  23  25
HETATM   25  C   UNL     1      44.251 -11.407   7.872  1.00  0.00     0.101 A 
HETATM   26  N   UNL     1      43.820 -10.827   9.009  1.00  0.00    -0.347 N 
HETATM   27  C   UNL     1      44.464  -9.827   9.644  1.00  0.00     0.007 A 
HETATM   28  H   UNL     1      42.960 -11.176   9.421  1.00  0.00     0.167 HD
HETATM   29  C   UNL     1      43.878  -9.267  10.901  1.00  0.00     0.068 C 
HETATM   30  C   UNL     1      45.664  -9.353   9.122  1.00  0.00     0.025 A 
HETATM   31  C   UNL     1      46.171  -9.928   7.966  1.00  0.00     0.006 A 
HETATM   32  C   UNL     1      45.470 -10.959   7.345  1.00  0.00     0.048 A 
ENDBRANCH  23  25
ENDBRANCH  22  23
ENDBRANCH   1  22
TORSDOF 6
ENDMDL
MODEL 7
REMARK VINA RESULT:      -8.9      2.529      7.852
REMARK  6 active torsions:
REMARK  status: ('A' for Active; 'I' for Inactive)
REMARK    1  A    between atoms: C_5  and  N_6 
REMARK    2  A    between atoms: N_6  and  C_7 
REMARK    3  A    between atoms: C_7  and  C_8 
REMARK    4  A    between atoms: N_10  and  C_12 
REMARK    5  A    between atoms: C_12  and  C_13 
REMARK    6  A    between atoms: C_14  and  C_15 
ROOT
HETATM    1  C   UNL     1      42.366 -15.747   5.880  1.00  0.00     0.031 C 
HETATM    2  C   UNL     1      42.612 -14.323   6.391  1.00  0.00     0.241 C 
HETATM    3  N   UNL     1      41.236 -13.732   6.635  1.00  0.00    -0.067 N 
HETATM    4  H   UNL     1      41.170 -13.494   7.635  1.00  0.00     0.280 HD
HETATM    5  C   UNL     1      40.213 -14.821   6.388  1.00  0.00     0.235 C 
HETATM    6  C   UNL     1      41.022 -16.097   6.516  1.00  0.00     0.035 C 
ENDROOT
BRANCH   3   7
HETATM    7  C   UNL     1      40.985 -12.427   5.911  1.00  0.00     0.277 C 
BRANCH   7   8
HETATM    8  C   UNL     1      42.056 -12.041   4.961  1.00  0.00     0.016 A 
HETATM    9  C   UNL     1      43.263 -11.328   5.253  1.00  0.00     0.102 A 
HETATM   10  N   UNL     1      44.015 -11.209   4.153  1.00  0.00    -0.174 NA
HETATM   11  N   UNL     1      43.278 -11.708   3.159  1.00  0.00    -0.288 N 
HETATM   12  H   UNL     1      43.646 -11.652   2.211  1.00  0.00     0.188 HD
HETATM   13  C   UNL     1      42.099 -12.246   3.592  1.00  0.00     0.120 A 
BRANCH   9  14
HETATM   14  C   UNL     1      43.732 -10.772   6.514  1.00  0.00     0.072 A 
HETATM   15  C   UNL     1      44.835 -11.301   7.187  1.00  0.00     0.132 A 
HETATM   16  F   UNL     1      45.468 -12.387   6.709  1.00  0.00    -0.205 F 
HETATM   17  C   UNL     1      45.290 -10.748   8.386  1.00  0.00     0.043 A 
HETATM   18  C   UNL     1      44.636  -9.644   8.932  1.00  0.00     0.006 A 
HETATM   19  C   UNL     1      43.526  -9.108   8.281  1.00  0.00     0.043 A 
HETATM   20  C   UNL     1      43.085  -9.670   7.084  1.00  0.00     0.132 A 
HETATM   21  F   UNL     1      41.987  -9.154   6.510  1.00  0.00    -0.205 F 
ENDBRANCH   9  14
ENDBRANCH   7   8
ENDBRANCH   3   7
BRANCH   1  22
HETATM   22  C   UNL     1      42.346 -15.815   4.337  1.00  0.00     0.127 C 
BRANCH  22  23
HETATM   23  N   UNL     1      43.570 -16.454   3.847  1.00  0.00    -0.376 N 
HETATM   24  H   UNL     1      44.161 -15.836   3.296  1.00  0.00     0.161 HD
BRANCH  23  25
HETATM   25  C   UNL     1      43.594 -17.796   3.499  1.00  0.00     0.101 A 
HETATM   26  N   UNL     1      43.979 -18.687   4.433  1.00  0.00    -0.347 N 
HETATM   27  C   UNL     1      44.015 -20.020   4.242  1.00  0.00     0.007 A 
HETATM   28  H   UNL     1      44.247 -18.329   5.344  1.00  0.00     0.167 HD
HETATM   29  C   UNL     1      44.464 -20.904   5.362  1.00  0.00     0.068 C 
HETATM   30  C   UNL     1      43.619 -20.542   3.013  1.00  0.00     0.025 A 
HETATM   31  C   UNL     1      43.189 -19.675   2.020  1.00  0.00     0.006 A 
HETATM   32  C   UNL     1      43.169 -18.303   2.264  1.00  0.00     0.048 A 
ENDBRANCH  23  25
ENDBRANCH  22  23
ENDBRANCH   1  22
TORSDOF 6
ENDMDL
MODEL 8
REMARK VINA RESULT:      -8.8      2.141      4.402
REMARK  6 active torsions:
REMARK  status: ('A' for Active; 'I' for Inactive)
REMARK    1  A    between atoms: C_5  and  N_6 
REMARK    2  A    between atoms: N_6  and  C_7 
REMARK    3  A    between atoms: C_7  and  C_8 
REMARK    4  A    between atoms: N_10  and  C_12 
REMARK    5  A    between atoms: C_12  and  C_13 
REMARK    6  A    between atoms: C_14  and  C_15 
ROOT
HETATM    1  C   UNL     1      44.541 -10.989   8.223  1.00  0.00     0.031 C 
HETATM    2  C   UNL     1      43.895 -12.246   7.630  1.00  0.00     0.241 C 
HETATM    3  N   UNL     1      44.420 -12.344   6.210  1.00  0.00    -0.067 N 
HETATM    4  H   UNL     1      44.934 -13.232   6.127  1.00  0.00     0.280 HD
HETATM    5  C   UNL     1      45.439 -11.242   6.014  1.00  0.00     0.235 C 
HETATM    6  C   UNL     1      45.843 -10.883   7.431  1.00  0.00     0.035 C 
ENDROOT
BRANCH   3   7
HETATM    7  C   UNL     1      43.337 -12.425   5.155  1.00  0.00     0.277 C 
BRANCH   7   8
HETATM    8  C   UNL     1      42.007 -12.822   5.675  1.00  0.00     0.016 A 
HETATM    9  C   UNL     1      41.567 -14.137   6.028  1.00  0.00     0.102 A 
HETATM   10  N   UNL     1      40.321 -14.101   6.511  1.00  0.00    -0.174 NA
HETATM   11  N   UNL     1      39.915 -12.838   6.364  1.00  0.00    -0.288 N 
HETATM   12  H   UNL     1      38.956 -12.607   6.615  1.00  0.00     0.188 HD
HETATM   13  C   UNL     1      40.900 -12.018   5.889  1.00  0.00     0.120 A 
BRANCH   9  14
HETATM   14  C   UNL     1      42.270 -15.409   5.935  1.00  0.00     0.072 A 
HETATM   15  C   UNL     1      42.805 -16.036   7.062  1.00  0.00     0.132 A 
HETATM   16  F   UNL     1      42.732 -15.449   8.269  1.00  0.00    -0.205 F 
HETATM   17  C   UNL     1      43.462 -17.266   6.966  1.00  0.00     0.043 A 
HETATM   18  C   UNL     1      43.591 -17.888   5.725  1.00  0.00     0.006 A 
HETATM   19  C   UNL     1      43.072 -17.272   4.587  1.00  0.00     0.043 A 
HETATM   20  C   UNL     1      42.419 -16.045   4.698  1.00  0.00     0.132 A 
HETATM   21  F   UNL     1      41.972 -15.463   3.575  1.00  0.00    -0.205 F 
ENDBRANCH   9  14
ENDBRANCH   7   8
ENDBRANCH   3   7
BRANCH   1  22
HETATM   22  C   UNL     1      43.635  -9.747   8.077  1.00  0.00     0.127 C 
BRANCH  22  23
HETATM   23  N   UNL     1      42.448  -9.889   8.925  1.00  0.00    -0.376 N 
HETATM   24  H   UNL     1      41.573  -9.730   8.431  1.00  0.00     0.161 HD
BRANCH  23  25
HETATM   25  C   UNL     1      42.470  -9.531  10.264  1.00  0.00     0.101 A 
HETATM   26  N   UNL     1      41.478  -9.982  11.057  1.00  0.00    -0.347 N 
HETATM   27  C   UNL     1      41.395  -9.741  12.380  1.00  0.00     0.007 A 
HETATM   28  H   UNL     1      40.755 -10.551  10.631  1.00  0.00     0.167 HD
HETATM   29  C   UNL     1      40.240 -10.298  13.150  1.00  0.00     0.068 C 
HETATM   30  C   UNL     1      42.393  -8.993  12.999  1.00  0.00     0.025 A 
HETATM   31  C   UNL     1      43.453  -8.522  12.238  1.00  0.00     0.006 A 
HETATM   32  C   UNL     1      43.496  -8.797  10.873  1.00  0.00     0.048 A 
ENDBRANCH  23  25
ENDBRANCH  22  23
ENDBRANCH   1  22
TORSDOF 6
ENDMDL
MODEL 9
REMARK VINA RESULT:      -8.8      3.144      6.877
REMARK  6 active torsions:
REMARK  status: ('A' for Active; 'I' for Inactive)
REMARK    1  A    between atoms: C_5  and  N_6 
REMARK    2  A    between atoms: N_6  and  C_7 
REMARK    3  A    between atoms: C_7  and  C_8 
REMARK    4  A    between atoms: N_10  and  C_12 
REMARK    5  A    between atoms: C_12  and  C_13 
REMARK    6  A    between atoms: C_14  and  C_15 
ROOT
HETATM    1  C   UNL     1      40.977 -16.190   1.969  1.00  0.00     0.031 C 
HETATM    2  C   UNL     1      40.534 -15.381   3.193  1.00  0.00     0.241 C 
HETATM    3  N   UNL     1      40.039 -14.054   2.648  1.00  0.00    -0.067 N 
HETATM    4  H   UNL     1      39.047 -13.960   2.909  1.00  0.00     0.280 HD
HETATM    5  C   UNL     1      40.077 -14.129   1.137  1.00  0.00     0.235 C 
HETATM    6  C   UNL     1      40.094 -15.620   0.861  1.00  0.00     0.035 C 
ENDROOT
BRANCH   3   7
HETATM    7  C   UNL     1      40.713 -12.844   3.258  1.00  0.00     0.277 C 
BRANCH   7   8
HETATM    8  C   UNL     1      40.127 -12.403   4.546  1.00  0.00     0.016 A 
HETATM    9  C   UNL     1      40.475 -12.850   5.860  1.00  0.00     0.102 A 
HETATM   10  N   UNL     1      39.770 -12.188   6.784  1.00  0.00    -0.174 NA
HETATM   11  N   UNL     1      38.907 -11.431   6.102  1.00  0.00    -0.288 N 
HETATM   12  H   UNL     1      38.224 -10.888   6.626  1.00  0.00     0.188 HD
HETATM   13  C   UNL     1      39.095 -11.502   4.751  1.00  0.00     0.120 A 
BRANCH   9  14
HETATM   14  C   UNL     1      41.440 -13.859   6.273  1.00  0.00     0.072 A 
HETATM   15  C   UNL     1      41.041 -15.130   6.692  1.00  0.00     0.132 A 
HETATM   16  F   UNL     1      39.735 -15.441   6.779  1.00  0.00    -0.205 F 
HETATM   17  C   UNL     1      41.976 -16.099   7.067  1.00  0.00     0.043 A 
HETATM   18  C   UNL     1      43.337 -15.801   7.026  1.00  0.00     0.006 A 
HETATM   19  C   UNL     1      43.754 -14.534   6.620  1.00  0.00     0.043 A 
HETATM   20  C   UNL     1      42.810 -13.578   6.248  1.00  0.00     0.132 A 
HETATM   21  F   UNL     1      43.248 -12.357   5.906  1.00  0.00    -0.205 F 
ENDBRANCH   9  14
ENDBRANCH   7   8
ENDBRANCH   3   7
BRANCH   1  22
HETATM   22  C   UNL     1      42.487 -16.035   1.686  1.00  0.00     0.127 C 
BRANCH  22  23
HETATM   23  N   UNL     1      43.266 -16.621   2.782  1.00  0.00    -0.376 N 
HETATM   24  H   UNL     1      44.048 -16.043   3.081  1.00  0.00     0.161 HD
BRANCH  23  25
HETATM   25  C   UNL     1      43.440 -17.992   2.891  1.00  0.00     0.101 A 
HETATM   26  N   UNL     1      43.684 -18.504   4.113  1.00  0.00    -0.347 N 
HETATM   27  C   UNL     1      43.838 -19.818   4.368  1.00  0.00     0.007 A 
HETATM   28  H   UNL     1      43.742 -17.858   4.893  1.00  0.00     0.167 HD
HETATM   29  C   UNL     1      44.108 -20.260   5.771  1.00  0.00     0.068 C 
HETATM   30  C   UNL     1      43.728 -20.731   3.323  1.00  0.00     0.025 A 
HETATM   31  C   UNL     1      43.453 -20.265   2.046  1.00  0.00     0.006 A 
HETATM   32  C   UNL     1      43.302 -18.897   1.830  1.00  0.00     0.048 A 
ENDBRANCH  23  25
ENDBRANCH  22  23
ENDBRANCH   1  22
TORSDOF 6
ENDMDL
MODEL 10
REMARK VINA RESULT:      -8.7      2.789      4.522
REMARK  6 active torsions:
REMARK  status: ('A' for Active; 'I' for Inactive)
REMARK    1  A    between atoms: C_5  and  N_6 
REMARK    2  A    between atoms: N_6  and  C_7 
REMARK    3  A    between atoms: C_7  and  C_8 
REMARK    4  A    between atoms: N_10  and  C_12 
REMARK    5  A    between atoms: C_12  and  C_13 
REMARK    6  A    between atoms: C_14  and  C_15 
ROOT
HETATM    1  C   UNL     1      44.415 -11.701   7.189  1.00  0.00     0.031 C 
HETATM    2  C   UNL     1      43.751 -13.077   7.070  1.00  0.00     0.241 C 
HETATM    3  N   UNL     1      42.918 -13.020   5.802  1.00  0.00    -0.067 N 
HETATM    4  H   UNL     1      43.275 -13.743   5.161  1.00  0.00     0.280 HD
HETATM    5  C   UNL     1      43.182 -11.689   5.132  1.00  0.00     0.235 C 
HETATM    6  C   UNL     1      44.504 -11.251   5.732  1.00  0.00     0.035 C 
ENDROOT
BRANCH   3   7
HETATM    7  C   UNL     1      41.459 -13.371   6.004  1.00  0.00     0.277 C 
BRANCH   7   8
HETATM    8  C   UNL     1      40.593 -13.069   4.840  1.00  0.00     0.016 A 
HETATM    9  C   UNL     1      40.613 -13.697   3.553  1.00  0.00     0.102 A 
HETATM   10  N   UNL     1      39.648 -13.199   2.773  1.00  0.00    -0.174 NA
HETATM   11  N   UNL     1      39.101 -12.200   3.471  1.00  0.00    -0.288 N 
HETATM   12  H   UNL     1      38.379 -11.639   3.025  1.00  0.00     0.188 HD
HETATM   13  C   UNL     1      39.615 -12.095   4.733  1.00  0.00     0.120 A 
BRANCH   9  14
HETATM   14  C   UNL     1      41.490 -14.740   3.042  1.00  0.00     0.072 A 
HETATM   15  C   UNL     1      41.226 -16.094   3.260  1.00  0.00     0.132 A 
HETATM   16  F   UNL     1      40.171 -16.472   4.003  1.00  0.00    -0.205 F 
HETATM   17  C   UNL     1      42.063 -17.090   2.748  1.00  0.00     0.043 A 
HETATM   18  C   UNL     1      43.188 -16.735   2.005  1.00  0.00     0.006 A 
HETATM   19  C   UNL     1      43.474 -15.388   1.786  1.00  0.00     0.043 A 
HETATM   20  C   UNL     1      42.629 -14.406   2.302  1.00  0.00     0.132 A 
HETATM   21  F   UNL     1      42.962 -13.121   2.108  1.00  0.00    -0.205 F 
ENDBRANCH   9  14
ENDBRANCH   7   8
ENDBRANCH   3   7
BRANCH   1  22
HETATM   22  C   UNL     1      43.597 -10.736   8.076  1.00  0.00     0.127 C 
BRANCH  22  23
HETATM   23  N   UNL     1      43.713 -11.129   9.483  1.00  0.00    -0.376 N 
HETATM   24  H   UNL     1      43.525 -12.115   9.648  1.00  0.00     0.161 HD
BRANCH  23  25
HETATM   25  C   UNL     1      43.367 -10.259  10.506  1.00  0.00     0.101 A 
HETATM   26  N   UNL     1      42.227 -10.498  11.183  1.00  0.00    -0.347 N 
HETATM   27  C   UNL     1      41.789  -9.757  12.219  1.00  0.00     0.007 A 
HETATM   28  H   UNL     1      41.669 -11.297  10.900  1.00  0.00     0.167 HD
HETATM   29  C   UNL     1      40.503 -10.126  12.887  1.00  0.00     0.068 C 
HETATM   30  C   UNL     1      42.553  -8.676  12.652  1.00  0.00     0.025 A 
HETATM   31  C   UNL     1      43.750  -8.396  12.010  1.00  0.00     0.006 A 
HETATM   32  C   UNL     1      44.161  -9.190  10.942  1.00  0.00     0.048 A 
ENDBRANCH  23  25
ENDBRANCH  22  23
ENDBRANCH   1  22
TORSDOF 6
ENDMDL
