MODEL 1
REMARK VINA RESULT:      -8.1      0.000      0.000
REMARK  3 active torsions:
REMARK  status: ('A' for Active; 'I' for Inactive)
REMARK    1  A    between atoms: C_9  and  C_10 
REMARK    2  A    between atoms: C_16  and  C_17 
REMARK       I    between atoms: C_17  and  N_18 
REMARK    3  A    between atoms: N_18  and  C_19 
ROOT
HETATM    1  C   UNL     1      43.922 -14.297   6.759  1.00  0.00     0.070 C 
HETATM    2  C   UNL     1      42.734 -13.780   5.986  1.00  0.00     0.037 C 
HETATM    3  N   UNL     1      42.478 -12.419   6.118  1.00  0.00    -0.191 N 
HETATM    4  C   UNL     1      41.332 -11.847   5.693  1.00  0.00     0.735 A 
HETATM    5  N   UNL     1      40.437 -12.591   4.977  1.00  0.00    -0.092 N 
HETATM    6  N   UNL     1      39.335 -11.869   4.718  1.00  0.00     0.012 NA
HETATM    7  N   UNL     1      39.592 -10.672   5.238  1.00  0.00     0.033 NA
HETATM    8  N   UNL     1      40.832 -10.646   5.849  1.00  0.00     0.030 NA
HETATM    9  C   UNL     1      40.634 -13.990   4.602  1.00  0.00     0.198 C 
HETATM   10  C   UNL     1      41.893 -14.553   5.253  1.00  0.00     0.062 C 
HETATM   11  H   UNL     1      43.075 -11.888   6.750  1.00  0.00     0.184 HD
ENDROOT
BRANCH  10  12
HETATM   12  C   UNL     1      42.036 -16.028   5.109  1.00  0.00     0.257 C 
HETATM   13  N   UNL     1      42.856 -16.386   4.065  1.00  0.00    -0.308 N 
HETATM   14  H   UNL     1      43.241 -15.655   3.487  1.00  0.00     0.170 HD
HETATM   15  O   UNL     1      41.401 -16.745   5.870  1.00  0.00    -0.267 OA
BRANCH  13  16
HETATM   16  C   UNL     1      43.213 -17.699   3.732  1.00  0.00     0.129 A 
HETATM   17  N   UNL     1      43.911 -18.461   4.589  1.00  0.00    -0.243 NA
HETATM   18  C   UNL     1      44.237 -19.714   4.207  1.00  0.00     0.119 A 
HETATM   19  C   UNL     1      43.905 -20.254   2.978  1.00  0.00     0.019 A 
HETATM   20  C   UNL     1      43.190 -19.459   2.093  1.00  0.00     0.005 A 
HETATM   21  C   UNL     1      42.834 -18.165   2.475  1.00  0.00     0.050 A 
ENDBRANCH  13  16
ENDBRANCH  10  12
BRANCH   9  22
HETATM   22  C   UNL     1      40.660 -14.134   3.082  1.00  0.00    -0.029 A 
HETATM   23  C   UNL     1      41.442 -13.295   2.268  1.00  0.00     0.009 A 
HETATM   24  C   UNL     1      41.443 -13.451   0.881  1.00  0.00     0.001 A 
HETATM   25  C   UNL     1      40.672 -14.450   0.290  1.00  0.00     0.000 A 
HETATM   26  C   UNL     1      39.905 -15.299   1.083  1.00  0.00     0.001 A 
HETATM   27  C   UNL     1      39.901 -15.146   2.470  1.00  0.00     0.009 A 
ENDBRANCH   9  22
TORSDOF 3
ENDMDL
MODEL 2
REMARK VINA RESULT:      -7.9      2.907      5.732
REMARK  3 active torsions:
REMARK  status: ('A' for Active; 'I' for Inactive)
REMARK    1  A    between atoms: C_9  and  C_10 
REMARK    2  A    between atoms: C_16  and  C_17 
REMARK       I    between atoms: C_17  and  N_18 
REMARK    3  A    between atoms: N_18  and  C_19 
ROOT
HETATM    1  C   UNL     1      38.907 -11.518   3.669  1.00  0.00     0.070 C 
HETATM    2  C   UNL     1      40.352 -11.942   3.570  1.00  0.00     0.037 C 
HETATM    3  N   UNL     1      41.222 -11.325   4.463  1.00  0.00    -0.191 N 
HETATM    4  C   UNL     1      42.564 -11.410   4.352  1.00  0.00     0.735 A 
HETATM    5  N   UNL     1      43.107 -12.244   3.415  1.00  0.00    -0.092 N 
HETATM    6  N   UNL     1      44.445 -12.126   3.410  1.00  0.00     0.012 NA
HETATM    7  N   UNL     1      44.706 -11.255   4.380  1.00  0.00     0.033 NA
HETATM    8  N   UNL     1      43.543 -10.801   4.974  1.00  0.00     0.030 NA
HETATM    9  C   UNL     1      42.333 -13.094   2.513  1.00  0.00     0.198 C 
HETATM   10  C   UNL     1      40.841 -12.807   2.645  1.00  0.00     0.062 C 
HETATM   11  H   UNL     1      40.835 -10.613   5.080  1.00  0.00     0.184 HD
ENDROOT
BRANCH  10  12
HETATM   12  C   UNL     1      40.009 -13.463   1.600  1.00  0.00     0.257 C 
HETATM   13  N   UNL     1      39.962 -12.748   0.426  1.00  0.00    -0.308 N 
HETATM   14  H   UNL     1      40.440 -11.860   0.389  1.00  0.00     0.170 HD
HETATM   15  O   UNL     1      39.436 -14.504   1.890  1.00  0.00    -0.267 OA
BRANCH  13  16
HETATM   16  C   UNL     1      39.303 -13.153  -0.741  1.00  0.00     0.129 A 
HETATM   17  N   UNL     1      38.175 -12.543  -1.141  1.00  0.00    -0.243 NA
HETATM   18  C   UNL     1      37.577 -12.987  -2.267  1.00  0.00     0.119 A 
HETATM   19  C   UNL     1      38.051 -14.041  -3.025  1.00  0.00     0.019 A 
HETATM   20  C   UNL     1      39.213 -14.673  -2.602  1.00  0.00     0.005 A 
HETATM   21  C   UNL     1      39.852 -14.220  -1.447  1.00  0.00     0.050 A 
ENDBRANCH  13  16
ENDBRANCH  10  12
BRANCH   9  22
HETATM   22  C   UNL     1      42.659 -14.565   2.760  1.00  0.00    -0.029 A 
HETATM   23  C   UNL     1      42.541 -15.150   4.035  1.00  0.00     0.009 A 
HETATM   24  C   UNL     1      42.849 -16.498   4.228  1.00  0.00     0.001 A 
HETATM   25  C   UNL     1      43.267 -17.280   3.154  1.00  0.00     0.000 A 
HETATM   26  C   UNL     1      43.373 -16.720   1.884  1.00  0.00     0.001 A 
HETATM   27  C   UNL     1      43.067 -15.373   1.686  1.00  0.00     0.009 A 
ENDBRANCH   9  22
TORSDOF 3
ENDMDL
MODEL 3
REMARK VINA RESULT:      -7.8      2.339      2.831
REMARK  3 active torsions:
REMARK  status: ('A' for Active; 'I' for Inactive)
REMARK    1  A    between atoms: C_9  and  C_10 
REMARK    2  A    between atoms: C_16  and  C_17 
REMARK       I    between atoms: C_17  and  N_18 
REMARK    3  A    between atoms: N_18  and  C_19 
ROOT
HETATM    1  C   UNL     1      44.100 -11.686   3.748  1.00  0.00     0.070 C 
HETATM    2  C   UNL     1      42.692 -11.791   3.218  1.00  0.00     0.037 C 
HETATM    3  N   UNL     1      41.896 -10.664   3.400  1.00  0.00    -0.191 N 
HETATM    4  C   UNL     1      40.561 -10.673   3.203  1.00  0.00     0.735 A 
HETATM    5  N   UNL     1      39.970 -11.784   2.670  1.00  0.00    -0.092 N 
HETATM    6  N   UNL     1      38.637 -11.626   2.628  1.00  0.00     0.012 NA
HETATM    7  N   UNL     1      38.433 -10.397   3.092  1.00  0.00     0.033 NA
HETATM    8  N   UNL     1      39.624  -9.793   3.454  1.00  0.00     0.030 NA
HETATM    9  C   UNL     1      40.688 -12.991   2.261  1.00  0.00     0.198 C 
HETATM   10  C   UNL     1      42.158 -12.906   2.658  1.00  0.00     0.062 C 
HETATM   11  H   UNL     1      42.302  -9.879   3.907  1.00  0.00     0.184 HD
ENDROOT
BRANCH  10  12
HETATM   12  C   UNL     1      42.900 -14.185   2.486  1.00  0.00     0.257 C 
HETATM   13  N   UNL     1      42.508 -15.155   3.377  1.00  0.00    -0.308 N 
HETATM   14  H   UNL     1      41.812 -14.917   4.068  1.00  0.00     0.170 HD
HETATM   15  O   UNL     1      43.779 -14.230   1.636  1.00  0.00    -0.267 OA
BRANCH  13  16
HETATM   16  C   UNL     1      42.995 -16.468   3.408  1.00  0.00     0.129 A 
HETATM   17  N   UNL     1      43.781 -16.887   4.413  1.00  0.00    -0.243 NA
HETATM   18  C   UNL     1      44.231 -18.160   4.381  1.00  0.00     0.119 A 
HETATM   19  C   UNL     1      43.940 -19.052   3.367  1.00  0.00     0.019 A 
HETATM   20  C   UNL     1      43.133 -18.611   2.326  1.00  0.00     0.005 A 
HETATM   21  C   UNL     1      42.649 -17.303   2.348  1.00  0.00     0.050 A 
ENDBRANCH  13  16
ENDBRANCH  10  12
BRANCH   9  22
HETATM   22  C   UNL     1      40.510 -13.232   0.764  1.00  0.00    -0.029 A 
HETATM   23  C   UNL     1      39.925 -14.410   0.264  1.00  0.00     0.009 A 
HETATM   24  C   UNL     1      39.780 -14.601  -1.111  1.00  0.00     0.001 A 
HETATM   25  C   UNL     1      40.206 -13.620  -2.003  1.00  0.00     0.000 A 
HETATM   26  C   UNL     1      40.772 -12.442  -1.522  1.00  0.00     0.001 A 
HETATM   27  C   UNL     1      40.920 -12.246  -0.149  1.00  0.00     0.009 A 
ENDBRANCH   9  22
TORSDOF 3
ENDMDL
MODEL 4
REMARK VINA RESULT:      -7.7      3.059      6.204
REMARK  3 active torsions:
REMARK  status: ('A' for Active; 'I' for Inactive)
REMARK    1  A    between atoms: C_9  and  C_10 
REMARK    2  A    between atoms: C_16  and  C_17 
REMARK       I    between atoms: C_17  and  N_18 
REMARK    3  A    between atoms: N_18  and  C_19 
ROOT
HETATM    1  C   UNL     1      42.466 -15.467   7.249  1.00  0.00     0.070 C 
HETATM    2  C   UNL     1      42.607 -15.073   5.800  1.00  0.00     0.037 C 
HETATM    3  N   UNL     1      42.531 -16.117   4.883  1.00  0.00    -0.191 N 
HETATM    4  C   UNL     1      42.870 -15.975   3.585  1.00  0.00     0.735 A 
HETATM    5  N   UNL     1      43.167 -14.732   3.102  1.00  0.00    -0.092 N 
HETATM    6  N   UNL     1      43.553 -14.813   1.818  1.00  0.00     0.012 NA
HETATM    7  N   UNL     1      43.440 -16.103   1.518  1.00  0.00     0.033 NA
HETATM    8  N   UNL     1      43.016 -16.838   2.609  1.00  0.00     0.030 NA
HETATM    9  C   UNL     1      43.124 -13.502   3.892  1.00  0.00     0.198 C 
HETATM   10  C   UNL     1      42.863 -13.813   5.363  1.00  0.00     0.062 C 
HETATM   11  H   UNL     1      42.432 -17.061   5.254  1.00  0.00     0.184 HD
ENDROOT
BRANCH  10  12
HETATM   12  C   UNL     1      43.035 -12.641   6.263  1.00  0.00     0.257 C 
HETATM   13  N   UNL     1      44.315 -12.527   6.754  1.00  0.00    -0.308 N 
HETATM   14  H   UNL     1      44.986 -13.238   6.507  1.00  0.00     0.170 HD
HETATM   15  O   UNL     1      42.054 -11.951   6.505  1.00  0.00    -0.267 OA
BRANCH  13  16
HETATM   16  C   UNL     1      44.775 -11.491   7.577  1.00  0.00     0.129 A 
HETATM   17  N   UNL     1      44.238 -11.286   8.790  1.00  0.00    -0.243 NA
HETATM   18  C   UNL     1      44.715 -10.264   9.532  1.00  0.00     0.119 A 
HETATM   19  C   UNL     1      45.714  -9.408   9.109  1.00  0.00     0.019 A 
HETATM   20  C   UNL     1      46.260  -9.620   7.851  1.00  0.00     0.005 A 
HETATM   21  C   UNL     1      45.789 -10.679   7.075  1.00  0.00     0.050 A 
ENDBRANCH  13  16
ENDBRANCH  10  12
BRANCH   9  22
HETATM   22  C   UNL     1      42.091 -12.537   3.317  1.00  0.00    -0.029 A 
HETATM   23  C   UNL     1      42.458 -11.301   2.755  1.00  0.00     0.009 A 
HETATM   24  C   UNL     1      41.487 -10.439   2.240  1.00  0.00     0.001 A 
HETATM   25  C   UNL     1      40.143 -10.802   2.270  1.00  0.00     0.000 A 
HETATM   26  C   UNL     1      39.766 -12.030   2.808  1.00  0.00     0.001 A 
HETATM   27  C   UNL     1      40.732 -12.894   3.325  1.00  0.00     0.009 A 
ENDBRANCH   9  22
TORSDOF 3
ENDMDL
MODEL 5
REMARK VINA RESULT:      -7.7      3.397      5.958
REMARK  3 active torsions:
REMARK  status: ('A' for Active; 'I' for Inactive)
REMARK    1  A    between atoms: C_9  and  C_10 
REMARK    2  A    between atoms: C_16  and  C_17 
REMARK       I    between atoms: C_17  and  N_18 
REMARK    3  A    between atoms: N_18  and  C_19 
ROOT
HETATM    1  C   UNL     1      41.612 -10.189   1.098  1.00  0.00     0.070 C 
HETATM    2  C   UNL     1      41.195 -11.607   0.798  1.00  0.00     0.037 C 
HETATM    3  N   UNL     1      40.931 -11.885  -0.540  1.00  0.00    -0.191 N 
HETATM    4  C   UNL     1      40.327 -13.022  -0.944  1.00  0.00     0.735 A 
HETATM    5  N   UNL     1      40.083 -14.012  -0.034  1.00  0.00    -0.092 N 
HETATM    6  N   UNL     1      39.409 -15.018  -0.612  1.00  0.00     0.012 NA
HETATM    7  N   UNL     1      39.291 -14.652  -1.885  1.00  0.00     0.033 NA
HETATM    8  N   UNL     1      39.858 -13.410  -2.104  1.00  0.00     0.030 NA
HETATM    9  C   UNL     1      40.455 -13.950   1.379  1.00  0.00     0.198 C 
HETATM   10  C   UNL     1      41.004 -12.571   1.734  1.00  0.00     0.062 C 
HETATM   11  H   UNL     1      40.996 -11.113  -1.201  1.00  0.00     0.184 HD
ENDROOT
BRANCH  10  12
HETATM   12  C   UNL     1      41.186 -12.356   3.195  1.00  0.00     0.257 C 
HETATM   13  N   UNL     1      42.502 -12.427   3.587  1.00  0.00    -0.308 N 
HETATM   14  H   UNL     1      43.196 -12.650   2.889  1.00  0.00     0.170 HD
HETATM   15  O   UNL     1      40.187 -12.191   3.882  1.00  0.00    -0.267 OA
BRANCH  13  16
HETATM   16  C   UNL     1      42.971 -12.210   4.889  1.00  0.00     0.129 A 
HETATM   17  N   UNL     1      43.157 -10.965   5.354  1.00  0.00    -0.243 NA
HETATM   18  C   UNL     1      43.623 -10.819   6.613  1.00  0.00     0.119 A 
HETATM   19  C   UNL     1      43.934 -11.878   7.445  1.00  0.00     0.019 A 
HETATM   20  C   UNL     1      43.747 -13.164   6.955  1.00  0.00     0.005 A 
HETATM   21  C   UNL     1      43.254 -13.334   5.661  1.00  0.00     0.050 A 
ENDBRANCH  13  16
ENDBRANCH  10  12
BRANCH   9  22
HETATM   22  C   UNL     1      41.442 -15.064   1.717  1.00  0.00    -0.029 A 
HETATM   23  C   UNL     1      42.770 -15.050   1.253  1.00  0.00     0.009 A 
HETATM   24  C   UNL     1      43.646 -16.087   1.579  1.00  0.00     0.001 A 
HETATM   25  C   UNL     1      43.214 -17.143   2.378  1.00  0.00     0.000 A 
HETATM   26  C   UNL     1      41.908 -17.163   2.858  1.00  0.00     0.001 A 
HETATM   27  C   UNL     1      41.027 -16.130   2.535  1.00  0.00     0.009 A 
ENDBRANCH   9  22
TORSDOF 3
ENDMDL
MODEL 6
REMARK VINA RESULT:      -7.6      2.602      4.216
REMARK  3 active torsions:
REMARK  status: ('A' for Active; 'I' for Inactive)
REMARK    1  A    between atoms: C_9  and  C_10 
REMARK    2  A    between atoms: C_16  and  C_17 
REMARK       I    between atoms: C_17  and  N_18 
REMARK    3  A    between atoms: N_18  and  C_19 
ROOT
HETATM    1  C   UNL     1      39.845 -15.986   0.971  1.00  0.00     0.070 C 
HETATM    2  C   UNL     1      40.362 -14.586   1.191  1.00  0.00     0.037 C 
HETATM    3  N   UNL     1      39.505 -13.562   0.802  1.00  0.00    -0.191 N 
HETATM    4  C   UNL     1      39.900 -12.275   0.709  1.00  0.00     0.735 A 
HETATM    5  N   UNL     1      41.147 -11.924   1.144  1.00  0.00    -0.092 N 
HETATM    6  N   UNL     1      41.377 -10.625   0.894  1.00  0.00     0.012 NA
HETATM    7  N   UNL     1      40.246 -10.185   0.352  1.00  0.00     0.033 NA
HETATM    8  N   UNL     1      39.318 -11.203   0.231  1.00  0.00     0.030 NA
HETATM    9  C   UNL     1      42.109 -12.849   1.741  1.00  0.00     0.198 C 
HETATM   10  C   UNL     1      41.598 -14.285   1.664  1.00  0.00     0.062 C 
HETATM   11  H   UNL     1      38.624 -13.827   0.364  1.00  0.00     0.184 HD
ENDROOT
BRANCH  10  12
HETATM   12  C   UNL     1      42.615 -15.305   2.038  1.00  0.00     0.257 C 
HETATM   13  N   UNL     1      42.186 -16.147   3.037  1.00  0.00    -0.308 N 
HETATM   14  H   UNL     1      41.277 -15.984   3.442  1.00  0.00     0.170 HD
HETATM   15  O   UNL     1      43.701 -15.266   1.477  1.00  0.00    -0.267 OA
BRANCH  13  16
HETATM   16  C   UNL     1      42.912 -17.231   3.546  1.00  0.00     0.129 A 
HETATM   17  N   UNL     1      43.347 -17.232   4.816  1.00  0.00    -0.243 NA
HETATM   18  C   UNL     1      44.053 -18.300   5.246  1.00  0.00     0.119 A 
HETATM   19  C   UNL     1      44.365 -19.386   4.450  1.00  0.00     0.019 A 
HETATM   20  C   UNL     1      43.919 -19.376   3.136  1.00  0.00     0.005 A 
HETATM   21  C   UNL     1      43.178 -18.287   2.677  1.00  0.00     0.050 A 
ENDBRANCH  13  16
ENDBRANCH  10  12
BRANCH   9  22
HETATM   22  C   UNL     1      42.431 -12.430   3.173  1.00  0.00    -0.029 A 
HETATM   23  C   UNL     1      43.682 -11.895   3.529  1.00  0.00     0.009 A 
HETATM   24  C   UNL     1      43.945 -11.524   4.849  1.00  0.00     0.001 A 
HETATM   25  C   UNL     1      42.964 -11.672   5.826  1.00  0.00     0.000 A 
HETATM   26  C   UNL     1      41.715 -12.185   5.486  1.00  0.00     0.001 A 
HETATM   27  C   UNL     1      41.447 -12.558   4.168  1.00  0.00     0.009 A 
ENDBRANCH   9  22
TORSDOF 3
ENDMDL
MODEL 7
REMARK VINA RESULT:      -7.6      2.714      5.765
REMARK  3 active torsions:
REMARK  status: ('A' for Active; 'I' for Inactive)
REMARK    1  A    between atoms: C_9  and  C_10 
REMARK    2  A    between atoms: C_16  and  C_17 
REMARK       I    between atoms: C_17  and  N_18 
REMARK    3  A    between atoms: N_18  and  C_19 
ROOT
HETATM    1  C   UNL     1      43.118 -16.615   1.717  1.00  0.00     0.070 C 
HETATM    2  C   UNL     1      42.747 -16.181   3.113  1.00  0.00     0.037 C 
HETATM    3  N   UNL     1      43.664 -16.507   4.107  1.00  0.00    -0.191 N 
HETATM    4  C   UNL     1      43.382 -16.406   5.423  1.00  0.00     0.735 A 
HETATM    5  N   UNL     1      42.206 -15.830   5.814  1.00  0.00    -0.092 N 
HETATM    6  N   UNL     1      42.078 -15.896   7.148  1.00  0.00     0.012 NA
HETATM    7  N   UNL     1      43.203 -16.469   7.563  1.00  0.00     0.033 NA
HETATM    8  N   UNL     1      44.024 -16.793   6.498  1.00  0.00     0.030 NA
HETATM    9  C   UNL     1      41.209 -15.276   4.899  1.00  0.00     0.198 C 
HETATM   10  C   UNL     1      41.580 -15.573   3.449  1.00  0.00     0.062 C 
HETATM   11  H   UNL     1      44.484 -17.045   3.831  1.00  0.00     0.184 HD
ENDROOT
BRANCH  10  12
HETATM   12  C   UNL     1      40.504 -15.247   2.475  1.00  0.00     0.257 C 
HETATM   13  N   UNL     1      40.847 -14.226   1.620  1.00  0.00    -0.308 N 
HETATM   14  H   UNL     1      41.741 -13.777   1.747  1.00  0.00     0.170 HD
HETATM   15  O   UNL     1      39.449 -15.862   2.556  1.00  0.00    -0.267 OA
BRANCH  13  16
HETATM   16  C   UNL     1      40.051 -13.751   0.569  1.00  0.00     0.129 A 
HETATM   17  N   UNL     1      39.452 -12.552   0.648  1.00  0.00    -0.243 NA
HETATM   18  C   UNL     1      38.687 -12.153  -0.390  1.00  0.00     0.119 A 
HETATM   19  C   UNL     1      38.474 -12.914  -1.524  1.00  0.00     0.019 A 
HETATM   20  C   UNL     1      39.089 -14.156  -1.597  1.00  0.00     0.005 A 
HETATM   21  C   UNL     1      39.894 -14.580  -0.539  1.00  0.00     0.050 A 
ENDBRANCH  13  16
ENDBRANCH  10  12
BRANCH   9  22
HETATM   22  C   UNL     1      41.029 -13.782   5.150  1.00  0.00    -0.029 A 
HETATM   23  C   UNL     1      39.824 -13.249   5.646  1.00  0.00     0.009 A 
HETATM   24  C   UNL     1      39.691 -11.876   5.863  1.00  0.00     0.001 A 
HETATM   25  C   UNL     1      40.757 -11.020   5.599  1.00  0.00     0.000 A 
HETATM   26  C   UNL     1      41.961 -11.534   5.123  1.00  0.00     0.001 A 
HETATM   27  C   UNL     1      42.099 -12.905   4.904  1.00  0.00     0.009 A 
ENDBRANCH   9  22
TORSDOF 3
ENDMDL
MODEL 8
REMARK VINA RESULT:      -7.4      1.981      6.139
REMARK  3 active torsions:
REMARK  status: ('A' for Active; 'I' for Inactive)
REMARK    1  A    between atoms: C_9  and  C_10 
REMARK    2  A    between atoms: C_16  and  C_17 
REMARK       I    between atoms: C_17  and  N_18 
REMARK    3  A    between atoms: N_18  and  C_19 
ROOT
HETATM    1  C   UNL     1      42.817 -15.572   7.874  1.00  0.00     0.070 C 
HETATM    2  C   UNL     1      42.975 -16.098   6.469  1.00  0.00     0.037 C 
HETATM    3  N   UNL     1      43.193 -17.468   6.361  1.00  0.00    -0.191 N 
HETATM    4  C   UNL     1      43.587 -18.057   5.213  1.00  0.00     0.735 A 
HETATM    5  N   UNL     1      43.643 -17.316   4.065  1.00  0.00    -0.092 N 
HETATM    6  N   UNL     1      44.131 -18.058   3.058  1.00  0.00     0.012 NA
HETATM    7  N   UNL     1      44.321 -19.261   3.592  1.00  0.00     0.033 NA
HETATM    8  N   UNL     1      43.987 -19.273   4.934  1.00  0.00     0.030 NA
HETATM    9  C   UNL     1      43.279 -15.903   3.971  1.00  0.00     0.198 C 
HETATM   10  C   UNL     1      42.984 -15.327   5.352  1.00  0.00     0.062 C 
HETATM   11  H   UNL     1      43.272 -18.000   7.226  1.00  0.00     0.184 HD
ENDROOT
BRANCH  10  12
HETATM   12  C   UNL     1      42.834 -13.846   5.365  1.00  0.00     0.257 C 
HETATM   13  N   UNL     1      41.521 -13.441   5.317  1.00  0.00    -0.308 N 
HETATM   14  H   UNL     1      40.806 -14.148   5.238  1.00  0.00     0.170 HD
HETATM   15  O   UNL     1      43.850 -13.164   5.370  1.00  0.00    -0.267 OA
BRANCH  13  16
HETATM   16  C   UNL     1      41.083 -12.112   5.372  1.00  0.00     0.129 A 
HETATM   17  N   UNL     1      41.487 -11.294   6.357  1.00  0.00    -0.243 NA
HETATM   18  C   UNL     1      41.020 -10.028   6.364  1.00  0.00     0.119 A 
HETATM   19  C   UNL     1      40.139  -9.528   5.423  1.00  0.00     0.019 A 
HETATM   20  C   UNL     1      39.719 -10.380   4.411  1.00  0.00     0.005 A 
HETATM   21  C   UNL     1      40.200 -11.689   4.381  1.00  0.00     0.050 A 
ENDBRANCH  13  16
ENDBRANCH  10  12
BRANCH   9  22
HETATM   22  C   UNL     1      42.107 -15.720   3.011  1.00  0.00    -0.029 A 
HETATM   23  C   UNL     1      40.806 -16.147   3.334  1.00  0.00     0.009 A 
HETATM   24  C   UNL     1      39.755 -15.966   2.432  1.00  0.00     0.001 A 
HETATM   25  C   UNL     1      39.987 -15.352   1.203  1.00  0.00     0.000 A 
HETATM   26  C   UNL     1      41.266 -14.910   0.876  1.00  0.00     0.001 A 
HETATM   27  C   UNL     1      42.319 -15.088   1.774  1.00  0.00     0.009 A 
ENDBRANCH   9  22
TORSDOF 3
ENDMDL
MODEL 9
REMARK VINA RESULT:      -7.3      3.044      5.261
REMARK  3 active torsions:
REMARK  status: ('A' for Active; 'I' for Inactive)
REMARK    1  A    between atoms: C_9  and  C_10 
REMARK    2  A    between atoms: C_16  and  C_17 
REMARK       I    between atoms: C_17  and  N_18 
REMARK    3  A    between atoms: N_18  and  C_19 
ROOT
HETATM    1  C   UNL     1      41.479  -9.674   3.615  1.00  0.00     0.070 C 
HETATM    2  C   UNL     1      42.071 -10.608   4.641  1.00  0.00     0.037 C 
HETATM    3  N   UNL     1      42.266 -10.065   5.907  1.00  0.00    -0.191 N 
HETATM    4  C   UNL     1      42.994 -10.681   6.861  1.00  0.00     0.735 A 
HETATM    5  N   UNL     1      43.449 -11.951   6.642  1.00  0.00    -0.092 N 
HETATM    6  N   UNL     1      44.214 -12.353   7.670  1.00  0.00     0.012 NA
HETATM    7  N   UNL     1      44.177 -11.340   8.529  1.00  0.00     0.033 NA
HETATM    8  N   UNL     1      43.421 -10.291   8.037  1.00  0.00     0.030 NA
HETATM    9  C   UNL     1      43.185 -12.730   5.434  1.00  0.00     0.198 C 
HETATM   10  C   UNL     1      42.473 -11.880   4.386  1.00  0.00     0.062 C 
HETATM   11  H   UNL     1      42.038  -9.081   6.035  1.00  0.00     0.184 HD
ENDROOT
BRANCH  10  12
HETATM   12  C   UNL     1      42.378 -12.529   3.050  1.00  0.00     0.257 C 
HETATM   13  N   UNL     1      41.081 -12.676   2.618  1.00  0.00    -0.308 N 
HETATM   14  H   UNL     1      40.336 -12.384   3.233  1.00  0.00     0.170 HD
HETATM   15  O   UNL     1      43.414 -12.893   2.512  1.00  0.00    -0.267 OA
BRANCH  13  16
HETATM   16  C   UNL     1      40.697 -13.202   1.378  1.00  0.00     0.129 A 
HETATM   17  N   UNL     1      40.692 -12.434   0.277  1.00  0.00    -0.243 NA
HETATM   18  C   UNL     1      40.300 -12.993  -0.888  1.00  0.00     0.119 A 
HETATM   19  C   UNL     1      39.890 -14.308  -1.009  1.00  0.00     0.019 A 
HETATM   20  C   UNL     1      39.889 -15.095   0.135  1.00  0.00     0.005 A 
HETATM   21  C   UNL     1      40.303 -14.537   1.345  1.00  0.00     0.050 A 
ENDBRANCH  13  16
ENDBRANCH  10  12
BRANCH   9  22
HETATM   22  C   UNL     1      42.400 -13.993   5.778  1.00  0.00    -0.029 A 
HETATM   23  C   UNL     1      41.060 -13.944   6.203  1.00  0.00     0.009 A 
HETATM   24  C   UNL     1      40.370 -15.119   6.512  1.00  0.00     0.001 A 
HETATM   25  C   UNL     1      41.003 -16.353   6.392  1.00  0.00     0.000 A 
HETATM   26  C   UNL     1      42.324 -16.419   5.957  1.00  0.00     0.001 A 
HETATM   27  C   UNL     1      43.018 -15.249   5.647  1.00  0.00     0.009 A 
ENDBRANCH   9  22
TORSDOF 3
ENDMDL
MODEL 10
REMARK VINA RESULT:      -7.2      3.958      7.089
REMARK  3 active torsions:
REMARK  status: ('A' for Active; 'I' for Inactive)
REMARK    1  A    between atoms: C_9  and  C_10 
REMARK    2  A    between atoms: C_16  and  C_17 
REMARK       I    between atoms: C_17  and  N_18 
REMARK    3  A    between atoms: N_18  and  C_19 
ROOT
HETATM    1  C   UNL     1      41.633 -10.227  -0.497  1.00  0.00     0.070 C 
HETATM    2  C   UNL     1      41.113 -11.643  -0.526  1.00  0.00     0.037 C 
HETATM    3  N   UNL     1      40.965 -12.202  -1.792  1.00  0.00    -0.191 N 
HETATM    4  C   UNL     1      40.297 -13.355  -2.007  1.00  0.00     0.735 A 
HETATM    5  N   UNL     1      39.863 -14.087  -0.938  1.00  0.00    -0.092 N 
HETATM    6  N   UNL     1      39.157 -15.149  -1.359  1.00  0.00     0.012 NA
HETATM    7  N   UNL     1      39.209 -15.078  -2.685  1.00  0.00     0.033 NA
HETATM    8  N   UNL     1      39.916 -13.965  -3.102  1.00  0.00     0.030 NA
HETATM    9  C   UNL     1      40.089 -13.728   0.461  1.00  0.00     0.198 C 
HETATM   10  C   UNL     1      40.731 -12.348   0.569  1.00  0.00     0.062 C 
HETATM   11  H   UNL     1      41.174 -11.610  -2.594  1.00  0.00     0.184 HD
ENDROOT
BRANCH  10  12
HETATM   12  C   UNL     1      40.779 -11.816   1.958  1.00  0.00     0.257 C 
HETATM   13  N   UNL     1      39.538 -11.737   2.544  1.00  0.00    -0.308 N 
HETATM   14  H   UNL     1      38.733 -11.994   1.994  1.00  0.00     0.170 HD
HETATM   15  O   UNL     1      41.865 -11.473   2.405  1.00  0.00    -0.267 OA
BRANCH  13  16
HETATM   16  C   UNL     1      39.291 -11.326   3.860  1.00  0.00     0.129 A 
HETATM   17  N   UNL     1      39.585 -12.126   4.897  1.00  0.00    -0.243 NA
HETATM   18  C   UNL     1      39.312 -11.680   6.142  1.00  0.00     0.119 A 
HETATM   19  C   UNL     1      38.734 -10.453   6.410  1.00  0.00     0.019 A 
HETATM   20  C   UNL     1      38.424  -9.634   5.333  1.00  0.00     0.005 A 
HETATM   21  C   UNL     1      38.710 -10.072   4.040  1.00  0.00     0.050 A 
ENDBRANCH  13  16
ENDBRANCH  10  12
BRANCH   9  22
HETATM   22  C   UNL     1      40.920 -14.803   1.158  1.00  0.00    -0.029 A 
HETATM   23  C   UNL     1      42.293 -14.969   0.896  1.00  0.00     0.009 A 
HETATM   24  C   UNL     1      43.024 -15.964   1.548  1.00  0.00     0.001 A 
HETATM   25  C   UNL     1      42.400 -16.796   2.474  1.00  0.00     0.000 A 
HETATM   26  C   UNL     1      41.046 -16.633   2.756  1.00  0.00     0.001 A 
HETATM   27  C   UNL     1      40.311 -15.641   2.106  1.00  0.00     0.009 A 
ENDBRANCH   9  22
TORSDOF 3
ENDMDL
