MODEL 1
REMARK VINA RESULT:      -7.6      0.000      0.000
REMARK  7 active torsions:
REMARK  status: ('A' for Active; 'I' for Inactive)
REMARK    1  A    between atoms: S_2  and  C_3 
REMARK    2  A    between atoms: C_3  and  C_4 
REMARK    3  A    between atoms: C_4  and  C_5 
REMARK    4  A    between atoms: C_5  and  N_6 
REMARK    5  A    between atoms: C_5  and  C_10 
REMARK       I    between atoms: N_6  and  C_7 
REMARK       I    between atoms: C_7  and  N_8 
REMARK       I    between atoms: C_10  and  N_11 
REMARK    6  A    between atoms: N_11  and  N_12 
REMARK       I    between atoms: N_12  and  C_13 
REMARK    7  A    between atoms: C_13  and  C_14 
ROOT
HETATM    1  C   UNL     1      44.502 -11.562   7.424  1.00  0.00     0.259 C 
HETATM    2  N   UNL     1      43.543 -12.545   7.538  1.00  0.00    -0.265 N 
HETATM    3  O   UNL     1      45.540 -11.725   6.776  1.00  0.00    -0.269 OA
HETATM    4  H   UNL     1      42.619 -12.387   7.948  1.00  0.00     0.190 HD
ENDROOT
BRANCH   2   5
HETATM    5  N   UNL     1      43.749 -13.752   6.866  1.00  0.00    -0.263 N 
HETATM    6  C   UNL     1      42.726 -14.312   6.117  1.00  0.00     0.278 C 
HETATM    7  O   UNL     1      41.634 -13.745   6.051  1.00  0.00    -0.265 OA
HETATM    8  H   UNL     1      44.696 -14.127   6.863  1.00  0.00     0.190 HD
BRANCH   6   9
HETATM    9  C   UNL     1      43.042 -15.572   5.455  1.00  0.00     0.097 A 
HETATM   10  S   UNL     1      43.593 -16.922   6.357  1.00  0.00    -0.082 SA
HETATM   11  C   UNL     1      43.674 -17.940   4.979  1.00  0.00     0.017 A 
HETATM   12  C   UNL     1      43.303 -17.258   3.819  1.00  0.00     0.004 A 
HETATM   13  C   UNL     1      44.058 -19.295   4.955  1.00  0.00     0.020 A 
HETATM   14  C   UNL     1      42.948 -15.890   4.113  1.00  0.00     0.068 A 
HETATM   15  C   UNL     1      43.326 -17.981   2.597  1.00  0.00     0.014 A 
HETATM   16 CL   UNL     1      42.452 -14.813   2.863  1.00  0.00    -0.082 Cl
HETATM   17  C   UNL     1      43.702 -19.327   2.567  1.00  0.00     0.001 A 
HETATM   18  C   UNL     1      44.064 -19.977   3.737  1.00  0.00     0.001 A 
ENDBRANCH   6   9
ENDBRANCH   2   5
BRANCH   1  19
HETATM   19  C   UNL     1      44.170 -10.248   8.150  1.00  0.00     0.180 C 
BRANCH  19  20
HETATM   20  C   UNL     1      45.017 -10.049   9.416  1.00  0.00     0.045 C 
BRANCH  20  21
HETATM   21  C   UNL     1      44.346 -10.360  10.757  1.00  0.00     0.076 C 
BRANCH  21  22
HETATM   22  S   UNL     1      43.638  -8.885  11.555  1.00  0.00    -0.173 SA
HETATM   23  C   UNL     1      42.034  -9.574  12.034  1.00  0.00     0.089 C 
ENDBRANCH  21  22
ENDBRANCH  20  21
ENDBRANCH  19  20
BRANCH  19  24
HETATM   24  N   UNL     1      42.748 -10.321   8.485  1.00  0.00    -0.330 N 
HETATM   25  C   UNL     1      41.862  -9.356   8.135  1.00  0.00     0.314 C 
HETATM   26  N   UNL     1      40.603  -9.627   8.558  1.00  0.00    -0.352 N 
HETATM   27  O   UNL     1      42.129  -8.343   7.508  1.00  0.00    -0.248 OA
HETATM   28  H   UNL     1      40.316 -10.595   8.551  1.00  0.00     0.160 HD
HETATM   29  H   UNL     1      39.915  -8.979   8.194  1.00  0.00     0.160 HD
HETATM   30  H   UNL     1      42.469 -11.011   9.172  1.00  0.00     0.165 HD
ENDBRANCH  19  24
ENDBRANCH   1  19
TORSDOF 7
ENDMDL
MODEL 2
REMARK VINA RESULT:      -7.4      1.424      1.748
REMARK  7 active torsions:
REMARK  status: ('A' for Active; 'I' for Inactive)
REMARK    1  A    between atoms: S_2  and  C_3 
REMARK    2  A    between atoms: C_3  and  C_4 
REMARK    3  A    between atoms: C_4  and  C_5 
REMARK    4  A    between atoms: C_5  and  N_6 
REMARK    5  A    between atoms: C_5  and  C_10 
REMARK       I    between atoms: N_6  and  C_7 
REMARK       I    between atoms: C_7  and  N_8 
REMARK       I    between atoms: C_10  and  N_11 
REMARK    6  A    between atoms: N_11  and  N_12 
REMARK       I    between atoms: N_12  and  C_13 
REMARK    7  A    between atoms: C_13  and  C_14 
ROOT
HETATM    1  C   UNL     1      44.821 -11.240   7.398  1.00  0.00     0.259 C 
HETATM    2  N   UNL     1      43.785 -12.146   7.471  1.00  0.00    -0.265 N 
HETATM    3  O   UNL     1      45.841 -11.456   6.739  1.00  0.00    -0.269 OA
HETATM    4  H   UNL     1      42.877 -11.933   7.892  1.00  0.00     0.190 HD
ENDROOT
BRANCH   2   5
HETATM    5  N   UNL     1      43.891 -13.333   6.741  1.00  0.00    -0.263 N 
HETATM    6  C   UNL     1      42.760 -13.905   6.181  1.00  0.00     0.278 C 
HETATM    7  O   UNL     1      41.662 -13.369   6.333  1.00  0.00    -0.265 OA
HETATM    8  H   UNL     1      44.829 -13.681   6.553  1.00  0.00     0.190 HD
BRANCH   6   9
HETATM    9  C   UNL     1      42.977 -15.142   5.440  1.00  0.00     0.097 A 
HETATM   10  S   UNL     1      42.653 -15.226   3.758  1.00  0.00    -0.082 SA
HETATM   11  C   UNL     1      43.178 -16.854   3.633  1.00  0.00     0.017 A 
HETATM   12  C   UNL     1      43.586 -17.354   4.872  1.00  0.00     0.004 A 
HETATM   13  C   UNL     1      43.218 -17.638   2.464  1.00  0.00     0.020 A 
HETATM   14  C   UNL     1      43.456 -16.354   5.904  1.00  0.00     0.068 A 
HETATM   15  C   UNL     1      44.046 -18.697   4.916  1.00  0.00     0.014 A 
HETATM   16 CL   UNL     1      43.886 -16.700   7.535  1.00  0.00    -0.082 Cl
HETATM   17  C   UNL     1      44.090 -19.480   3.758  1.00  0.00     0.001 A 
HETATM   18  C   UNL     1      43.680 -18.953   2.544  1.00  0.00     0.001 A 
ENDBRANCH   6   9
ENDBRANCH   2   5
BRANCH   1  19
HETATM   19  C   UNL     1      44.598  -9.940   8.187  1.00  0.00     0.180 C 
BRANCH  19  20
HETATM   20  C   UNL     1      45.034 -10.064   9.656  1.00  0.00     0.045 C 
BRANCH  20  21
HETATM   21  C   UNL     1      43.984 -10.558  10.653  1.00  0.00     0.076 C 
BRANCH  21  22
HETATM   22  S   UNL     1      43.357  -9.235  11.736  1.00  0.00    -0.173 SA
HETATM   23  C   UNL     1      41.584  -9.560  11.569  1.00  0.00     0.089 C 
ENDBRANCH  21  22
ENDBRANCH  20  21
ENDBRANCH  19  20
BRANCH  19  24
HETATM   24  N   UNL     1      43.166  -9.653   8.096  1.00  0.00    -0.330 N 
HETATM   25  C   UNL     1      42.676  -8.393   7.999  1.00  0.00     0.314 C 
HETATM   26  N   UNL     1      41.323  -8.364   7.937  1.00  0.00    -0.352 N 
HETATM   27  O   UNL     1      43.346  -7.373   7.966  1.00  0.00    -0.248 OA
HETATM   28  H   UNL     1      40.871  -9.116   7.436  1.00  0.00     0.160 HD
HETATM   29  H   UNL     1      40.955  -7.442   7.738  1.00  0.00     0.160 HD
HETATM   30  H   UNL     1      42.528 -10.407   8.319  1.00  0.00     0.165 HD
ENDBRANCH  19  24
ENDBRANCH   1  19
TORSDOF 7
ENDMDL
MODEL 3
REMARK VINA RESULT:      -7.3      2.246      2.831
REMARK  7 active torsions:
REMARK  status: ('A' for Active; 'I' for Inactive)
REMARK    1  A    between atoms: S_2  and  C_3 
REMARK    2  A    between atoms: C_3  and  C_4 
REMARK    3  A    between atoms: C_4  and  C_5 
REMARK    4  A    between atoms: C_5  and  N_6 
REMARK    5  A    between atoms: C_5  and  C_10 
REMARK       I    between atoms: N_6  and  C_7 
REMARK       I    between atoms: C_7  and  N_8 
REMARK       I    between atoms: C_10  and  N_11 
REMARK    6  A    between atoms: N_11  and  N_12 
REMARK       I    between atoms: N_12  and  C_13 
REMARK    7  A    between atoms: C_13  and  C_14 
ROOT
HETATM    1  C   UNL     1      41.799 -10.485   6.530  1.00  0.00     0.259 C 
HETATM    2  N   UNL     1      41.189 -11.701   6.752  1.00  0.00    -0.265 N 
HETATM    3  O   UNL     1      42.766 -10.361   5.774  1.00  0.00    -0.269 OA
HETATM    4  H   UNL     1      40.306 -11.805   7.260  1.00  0.00     0.190 HD
ENDROOT
BRANCH   2   5
HETATM    5  N   UNL     1      41.672 -12.819   6.067  1.00  0.00    -0.263 N 
HETATM    6  C   UNL     1      40.908 -13.973   6.002  1.00  0.00     0.278 C 
HETATM    7  O   UNL     1      39.808 -14.013   6.553  1.00  0.00    -0.265 OA
HETATM    8  H   UNL     1      42.535 -12.704   5.540  1.00  0.00     0.190 HD
BRANCH   6   9
HETATM    9  C   UNL     1      41.501 -15.083   5.264  1.00  0.00     0.097 A 
HETATM   10  S   UNL     1      41.034 -15.411   3.647  1.00  0.00    -0.082 SA
HETATM   11  C   UNL     1      42.136 -16.715   3.485  1.00  0.00     0.017 A 
HETATM   12  C   UNL     1      42.854 -16.926   4.664  1.00  0.00     0.004 A 
HETATM   13  C   UNL     1      42.338 -17.509   2.339  1.00  0.00     0.020 A 
HETATM   14  C   UNL     1      42.469 -15.979   5.682  1.00  0.00     0.068 A 
HETATM   15  C   UNL     1      43.805 -17.981   4.673  1.00  0.00     0.014 A 
HETATM   16 CL   UNL     1      43.194 -16.009   7.244  1.00  0.00    -0.082 Cl
HETATM   17  C   UNL     1      44.012 -18.770   3.538  1.00  0.00     0.001 A 
HETATM   18  C   UNL     1      43.284 -18.534   2.382  1.00  0.00     0.001 A 
ENDBRANCH   6   9
ENDBRANCH   2   5
BRANCH   1  19
HETATM   19  C   UNL     1      41.171  -9.300   7.281  1.00  0.00     0.180 C 
BRANCH  19  20
HETATM   20  C   UNL     1      42.194  -8.199   7.598  1.00  0.00     0.045 C 
BRANCH  20  21
HETATM   21  C   UNL     1      43.003  -8.351   8.889  1.00  0.00     0.076 C 
BRANCH  21  22
HETATM   22  S   UNL     1      44.742  -8.798   8.588  1.00  0.00    -0.173 SA
HETATM   23  C   UNL     1      45.086  -9.637  10.154  1.00  0.00     0.089 C 
ENDBRANCH  21  22
ENDBRANCH  20  21
ENDBRANCH  19  20
BRANCH  19  24
HETATM   24  N   UNL     1      40.612  -9.855   8.514  1.00  0.00    -0.330 N 
HETATM   25  C   UNL     1      39.393  -9.501   8.991  1.00  0.00     0.314 C 
HETATM   26  N   UNL     1      39.083 -10.131  10.150  1.00  0.00    -0.352 N 
HETATM   27  O   UNL     1      38.630  -8.706   8.464  1.00  0.00    -0.248 OA
HETATM   28  H   UNL     1      39.401 -11.084  10.251  1.00  0.00     0.160 HD
HETATM   29  H   UNL     1      38.129  -9.970  10.446  1.00  0.00     0.160 HD
HETATM   30  H   UNL     1      41.244 -10.360   9.124  1.00  0.00     0.165 HD
ENDBRANCH  19  24
ENDBRANCH   1  19
TORSDOF 7
ENDMDL
MODEL 4
REMARK VINA RESULT:      -7.2      1.971      2.522
REMARK  7 active torsions:
REMARK  status: ('A' for Active; 'I' for Inactive)
REMARK    1  A    between atoms: S_2  and  C_3 
REMARK    2  A    between atoms: C_3  and  C_4 
REMARK    3  A    between atoms: C_4  and  C_5 
REMARK    4  A    between atoms: C_5  and  N_6 
REMARK    5  A    between atoms: C_5  and  C_10 
REMARK       I    between atoms: N_6  and  C_7 
REMARK       I    between atoms: C_7  and  N_8 
REMARK       I    between atoms: C_10  and  N_11 
REMARK    6  A    between atoms: N_11  and  N_12 
REMARK       I    between atoms: N_12  and  C_13 
REMARK    7  A    between atoms: C_13  and  C_14 
ROOT
HETATM    1  C   UNL     1      43.690 -12.157   6.428  1.00  0.00     0.259 C 
HETATM    2  N   UNL     1      43.459 -13.382   7.015  1.00  0.00    -0.265 N 
HETATM    3  O   UNL     1      44.066 -12.046   5.258  1.00  0.00    -0.269 OA
HETATM    4  H   UNL     1      43.016 -13.495   7.930  1.00  0.00     0.190 HD
ENDROOT
BRANCH   2   5
HETATM    5  N   UNL     1      43.629 -14.531   6.237  1.00  0.00    -0.263 N 
HETATM    6  C   UNL     1      42.945 -15.692   6.560  1.00  0.00     0.278 C 
HETATM    7  O   UNL     1      42.193 -15.711   7.535  1.00  0.00    -0.265 OA
HETATM    8  H   UNL     1      44.175 -14.438   5.383  1.00  0.00     0.190 HD
BRANCH   6   9
HETATM    9  C   UNL     1      43.191 -16.835   5.687  1.00  0.00     0.097 A 
HETATM   10  S   UNL     1      43.636 -18.357   6.340  1.00  0.00    -0.082 SA
HETATM   11  C   UNL     1      43.678 -19.118   4.804  1.00  0.00     0.017 A 
HETATM   12  C   UNL     1      43.374 -18.219   3.780  1.00  0.00     0.004 A 
HETATM   13  C   UNL     1      43.973 -20.471   4.542  1.00  0.00     0.020 A 
HETATM   14  C   UNL     1      43.102 -16.904   4.309  1.00  0.00     0.068 A 
HETATM   15  C   UNL     1      43.373 -18.715   2.449  1.00  0.00     0.014 A 
HETATM   16 CL   UNL     1      42.701 -15.593   3.267  1.00  0.00    -0.082 Cl
HETATM   17  C   UNL     1      43.662 -20.057   2.184  1.00  0.00     0.001 A 
HETATM   18  C   UNL     1      43.959 -20.926   3.223  1.00  0.00     0.001 A 
ENDBRANCH   6   9
ENDBRANCH   2   5
BRANCH   1  19
HETATM   19  C   UNL     1      43.427 -10.946   7.337  1.00  0.00     0.180 C 
BRANCH  19  20
HETATM   20  C   UNL     1      42.168 -10.167   6.927  1.00  0.00     0.045 C 
BRANCH  20  21
HETATM   21  C   UNL     1      42.002  -8.759   7.504  1.00  0.00     0.076 C 
BRANCH  21  22
HETATM   22  S   UNL     1      41.285  -8.760   9.178  1.00  0.00    -0.173 SA
HETATM   23  C   UNL     1      42.810  -8.558  10.132  1.00  0.00     0.089 C 
ENDBRANCH  21  22
ENDBRANCH  20  21
ENDBRANCH  19  20
BRANCH  19  24
HETATM   24  N   UNL     1      44.615 -10.098   7.233  1.00  0.00    -0.330 N 
HETATM   25  C   UNL     1      45.640 -10.162   8.118  1.00  0.00     0.314 C 
HETATM   26  N   UNL     1      46.629  -9.280   7.834  1.00  0.00    -0.352 N 
HETATM   27  O   UNL     1      45.703 -10.915   9.077  1.00  0.00    -0.248 OA
HETATM   28  H   UNL     1      46.822  -9.108   6.857  1.00  0.00     0.160 HD
HETATM   29  H   UNL     1      47.451  -9.406   8.412  1.00  0.00     0.160 HD
HETATM   30  H   UNL     1      44.567  -9.308   6.601  1.00  0.00     0.165 HD
ENDBRANCH  19  24
ENDBRANCH   1  19
TORSDOF 7
ENDMDL
MODEL 5
REMARK VINA RESULT:      -7.2      1.796      2.191
REMARK  7 active torsions:
REMARK  status: ('A' for Active; 'I' for Inactive)
REMARK    1  A    between atoms: S_2  and  C_3 
REMARK    2  A    between atoms: C_3  and  C_4 
REMARK    3  A    between atoms: C_4  and  C_5 
REMARK    4  A    between atoms: C_5  and  N_6 
REMARK    5  A    between atoms: C_5  and  C_10 
REMARK       I    between atoms: N_6  and  C_7 
REMARK       I    between atoms: C_7  and  N_8 
REMARK       I    between atoms: C_10  and  N_11 
REMARK    6  A    between atoms: N_11  and  N_12 
REMARK       I    between atoms: N_12  and  C_13 
REMARK    7  A    between atoms: C_13  and  C_14 
ROOT
HETATM    1  C   UNL     1      42.338 -10.535   6.367  1.00  0.00     0.259 C 
HETATM    2  N   UNL     1      42.274 -11.755   7.005  1.00  0.00    -0.265 N 
HETATM    3  O   UNL     1      42.745 -10.418   5.208  1.00  0.00    -0.269 OA
HETATM    4  H   UNL     1      41.812 -11.897   7.907  1.00  0.00     0.190 HD
ENDROOT
BRANCH   2   5
HETATM    5  N   UNL     1      42.656 -12.895   6.294  1.00  0.00    -0.263 N 
HETATM    6  C   UNL     1      41.713 -13.856   5.965  1.00  0.00     0.278 C 
HETATM    7  O   UNL     1      40.539 -13.704   6.307  1.00  0.00    -0.265 OA
HETATM    8  H   UNL     1      43.612 -12.925   5.942  1.00  0.00     0.190 HD
BRANCH   6   9
HETATM    9  C   UNL     1      42.214 -15.007   5.223  1.00  0.00     0.097 A 
HETATM   10  S   UNL     1      43.484 -15.972   5.853  1.00  0.00    -0.082 SA
HETATM   11  C   UNL     1      43.449 -17.063   4.530  1.00  0.00     0.017 A 
HETATM   12  C   UNL     1      42.486 -16.693   3.589  1.00  0.00     0.004 A 
HETATM   13  C   UNL     1      44.259 -18.202   4.357  1.00  0.00     0.020 A 
HETATM   14  C   UNL     1      41.788 -15.500   4.003  1.00  0.00     0.068 A 
HETATM   15  C   UNL     1      42.348 -17.510   2.436  1.00  0.00     0.014 A 
HETATM   16 CL   UNL     1      40.545 -14.814   3.028  1.00  0.00    -0.082 Cl
HETATM   17  C   UNL     1      43.148 -18.644   2.260  1.00  0.00     0.001 A 
HETATM   18  C   UNL     1      44.094 -18.985   3.214  1.00  0.00     0.001 A 
ENDBRANCH   6   9
ENDBRANCH   2   5
BRANCH   1  19
HETATM   19  C   UNL     1      41.847  -9.342   7.203  1.00  0.00     0.180 C 
BRANCH  19  20
HETATM   20  C   UNL     1      43.005  -8.563   7.847  1.00  0.00     0.045 C 
BRANCH  20  21
HETATM   21  C   UNL     1      43.325  -8.877   9.310  1.00  0.00     0.076 C 
BRANCH  21  22
HETATM   22  S   UNL     1      44.817  -9.900   9.507  1.00  0.00    -0.173 SA
HETATM   23  C   UNL     1      45.722  -9.354   8.038  1.00  0.00     0.089 C 
ENDBRANCH  21  22
ENDBRANCH  20  21
ENDBRANCH  19  20
BRANCH  19  24
HETATM   24  N   UNL     1      40.969  -9.903   8.229  1.00  0.00    -0.330 N 
HETATM   25  C   UNL     1      39.635  -9.664   8.262  1.00  0.00     0.314 C 
HETATM   26  N   UNL     1      39.021 -10.276   9.305  1.00  0.00    -0.352 N 
HETATM   27  O   UNL     1      39.017  -8.981   7.461  1.00  0.00    -0.248 OA
HETATM   28  H   UNL     1      39.373 -11.183   9.574  1.00  0.00     0.160 HD
HETATM   29  H   UNL     1      38.012 -10.207   9.266  1.00  0.00     0.160 HD
HETATM   30  H   UNL     1      41.410 -10.309   9.046  1.00  0.00     0.165 HD
ENDBRANCH  19  24
ENDBRANCH   1  19
TORSDOF 7
ENDMDL
MODEL 6
REMARK VINA RESULT:      -7.0      6.722      9.015
REMARK  7 active torsions:
REMARK  status: ('A' for Active; 'I' for Inactive)
REMARK    1  A    between atoms: S_2  and  C_3 
REMARK    2  A    between atoms: C_3  and  C_4 
REMARK    3  A    between atoms: C_4  and  C_5 
REMARK    4  A    between atoms: C_5  and  N_6 
REMARK    5  A    between atoms: C_5  and  C_10 
REMARK       I    between atoms: N_6  and  C_7 
REMARK       I    between atoms: C_7  and  N_8 
REMARK       I    between atoms: C_10  and  N_11 
REMARK    6  A    between atoms: N_11  and  N_12 
REMARK       I    between atoms: N_12  and  C_13 
REMARK    7  A    between atoms: C_13  and  C_14 
ROOT
HETATM    1  C   UNL     1      39.351 -12.726   0.032  1.00  0.00     0.259 C 
HETATM    2  N   UNL     1      40.103 -13.879   0.101  1.00  0.00    -0.265 N 
HETATM    3  O   UNL     1      39.253 -11.945   0.981  1.00  0.00    -0.269 OA
HETATM    4  H   UNL     1      40.313 -14.466  -0.710  1.00  0.00     0.190 HD
ENDROOT
BRANCH   2   5
HETATM    5  N   UNL     1      40.800 -14.145   1.283  1.00  0.00    -0.263 N 
HETATM    6  C   UNL     1      40.506 -15.280   2.020  1.00  0.00     0.278 C 
HETATM    7  O   UNL     1      39.625 -16.051   1.634  1.00  0.00    -0.265 OA
HETATM    8  H   UNL     1      41.588 -13.539   1.505  1.00  0.00     0.190 HD
BRANCH   6   9
HETATM    9  C   UNL     1      41.288 -15.466   3.237  1.00  0.00     0.097 A 
HETATM   10  S   UNL     1      40.749 -14.824   4.732  1.00  0.00    -0.082 SA
HETATM   11  C   UNL     1      42.077 -15.471   5.605  1.00  0.00     0.017 A 
HETATM   12  C   UNL     1      42.951 -16.163   4.765  1.00  0.00     0.004 A 
HETATM   13  C   UNL     1      42.311 -15.354   6.989  1.00  0.00     0.020 A 
HETATM   14  C   UNL     1      42.482 -16.144   3.400  1.00  0.00     0.068 A 
HETATM   15  C   UNL     1      44.100 -16.752   5.356  1.00  0.00     0.014 A 
HETATM   16 CL   UNL     1      43.370 -16.921   2.145  1.00  0.00    -0.082 Cl
HETATM   17  C   UNL     1      44.336 -16.643   6.730  1.00  0.00     0.001 A 
HETATM   18  C   UNL     1      43.448 -15.949   7.538  1.00  0.00     0.001 A 
ENDBRANCH   6   9
ENDBRANCH   2   5
BRANCH   1  19
HETATM   19  C   UNL     1      38.662 -12.485  -1.321  1.00  0.00     0.180 C 
BRANCH  19  20
HETATM   20  C   UNL     1      37.497 -11.489  -1.216  1.00  0.00     0.045 C 
BRANCH  20  21
HETATM   21  C   UNL     1      37.523 -10.287  -2.162  1.00  0.00     0.076 C 
BRANCH  21  22
HETATM   22  S   UNL     1      39.065  -9.326  -2.047  1.00  0.00    -0.173 SA
HETATM   23  C   UNL     1      39.742  -9.692  -3.685  1.00  0.00     0.089 C 
ENDBRANCH  21  22
ENDBRANCH  20  21
ENDBRANCH  19  20
BRANCH  19  24
HETATM   24  N   UNL     1      38.184 -13.793  -1.769  1.00  0.00    -0.330 N 
HETATM   25  C   UNL     1      38.880 -14.572  -2.633  1.00  0.00     0.314 C 
HETATM   26  N   UNL     1      38.244 -15.734  -2.916  1.00  0.00    -0.352 N 
HETATM   27  O   UNL     1      39.963 -14.292  -3.124  1.00  0.00    -0.248 OA
HETATM   28  H   UNL     1      37.722 -16.165  -2.166  1.00  0.00     0.160 HD
HETATM   29  H   UNL     1      38.810 -16.375  -3.458  1.00  0.00     0.160 HD
HETATM   30  H   UNL     1      37.215 -14.021  -1.583  1.00  0.00     0.165 HD
ENDBRANCH  19  24
ENDBRANCH   1  19
TORSDOF 7
ENDMDL
MODEL 7
REMARK VINA RESULT:      -6.9      1.817      2.161
REMARK  7 active torsions:
REMARK  status: ('A' for Active; 'I' for Inactive)
REMARK    1  A    between atoms: S_2  and  C_3 
REMARK    2  A    between atoms: C_3  and  C_4 
REMARK    3  A    between atoms: C_4  and  C_5 
REMARK    4  A    between atoms: C_5  and  N_6 
REMARK    5  A    between atoms: C_5  and  C_10 
REMARK       I    between atoms: N_6  and  C_7 
REMARK       I    between atoms: C_7  and  N_8 
REMARK       I    between atoms: C_10  and  N_11 
REMARK    6  A    between atoms: N_11  and  N_12 
REMARK       I    between atoms: N_12  and  C_13 
REMARK    7  A    between atoms: C_13  and  C_14 
ROOT
HETATM    1  C   UNL     1      43.497 -12.076   6.724  1.00  0.00     0.259 C 
HETATM    2  N   UNL     1      42.495 -12.669   5.985  1.00  0.00    -0.265 N 
HETATM    3  O   UNL     1      44.502 -12.693   7.087  1.00  0.00    -0.269 OA
HETATM    4  H   UNL     1      41.726 -12.148   5.556  1.00  0.00     0.190 HD
ENDROOT
BRANCH   2   5
HETATM    5  N   UNL     1      42.651 -14.007   5.614  1.00  0.00    -0.263 N 
HETATM    6  C   UNL     1      43.020 -14.327   4.317  1.00  0.00     0.278 C 
HETATM    7  O   UNL     1      43.204 -13.430   3.493  1.00  0.00    -0.265 OA
HETATM    8  H   UNL     1      42.593 -14.705   6.353  1.00  0.00     0.190 HD
BRANCH   6   9
HETATM    9  C   UNL     1      43.155 -15.750   4.030  1.00  0.00     0.097 A 
HETATM   10  S   UNL     1      42.558 -16.410   2.564  1.00  0.00    -0.082 SA
HETATM   11  C   UNL     1      43.114 -17.991   2.930  1.00  0.00     0.017 A 
HETATM   12  C   UNL     1      43.741 -18.036   4.177  1.00  0.00     0.004 A 
HETATM   13  C   UNL     1      42.986 -19.136   2.120  1.00  0.00     0.020 A 
HETATM   14  C   UNL     1      43.749 -16.734   4.800  1.00  0.00     0.068 A 
HETATM   15  C   UNL     1      44.251 -19.288   4.610  1.00  0.00     0.014 A 
HETATM   16 CL   UNL     1      44.458 -16.496   6.351  1.00  0.00    -0.082 Cl
HETATM   17  C   UNL     1      44.130 -20.428   3.809  1.00  0.00     0.001 A 
HETATM   18  C   UNL     1      43.503 -20.351   2.575  1.00  0.00     0.001 A 
ENDBRANCH   6   9
ENDBRANCH   2   5
BRANCH   1  19
HETATM   19  C   UNL     1      43.269 -10.590   7.043  1.00  0.00     0.180 C 
BRANCH  19  20
HETATM   20  C   UNL     1      44.237 -10.066   8.116  1.00  0.00     0.045 C 
BRANCH  20  21
HETATM   21  C   UNL     1      43.823 -10.256   9.577  1.00  0.00     0.076 C 
BRANCH  21  22
HETATM   22  S   UNL     1      43.354  -8.695  10.389  1.00  0.00    -0.173 SA
HETATM   23  C   UNL     1      43.813  -7.547   9.068  1.00  0.00     0.089 C 
ENDBRANCH  21  22
ENDBRANCH  20  21
ENDBRANCH  19  20
BRANCH  19  24
HETATM   24  N   UNL     1      41.884 -10.482   7.501  1.00  0.00    -0.330 N 
HETATM   25  C   UNL     1      41.100  -9.414   7.217  1.00  0.00     0.314 C 
HETATM   26  N   UNL     1      39.858  -9.523   7.750  1.00  0.00    -0.352 N 
HETATM   27  O   UNL     1      41.436  -8.442   6.560  1.00  0.00    -0.248 OA
HETATM   28  H   UNL     1      39.452 -10.447   7.778  1.00  0.00     0.160 HD
HETATM   29  H   UNL     1      39.228  -8.793   7.441  1.00  0.00     0.160 HD
HETATM   30  H   UNL     1      41.580 -11.132   8.216  1.00  0.00     0.165 HD
ENDBRANCH  19  24
ENDBRANCH   1  19
TORSDOF 7
ENDMDL
MODEL 8
REMARK VINA RESULT:      -6.9      3.443      8.859
REMARK  7 active torsions:
REMARK  status: ('A' for Active; 'I' for Inactive)
REMARK    1  A    between atoms: S_2  and  C_3 
REMARK    2  A    between atoms: C_3  and  C_4 
REMARK    3  A    between atoms: C_4  and  C_5 
REMARK    4  A    between atoms: C_5  and  N_6 
REMARK    5  A    between atoms: C_5  and  C_10 
REMARK       I    between atoms: N_6  and  C_7 
REMARK       I    between atoms: C_7  and  N_8 
REMARK       I    between atoms: C_10  and  N_11 
REMARK    6  A    between atoms: N_11  and  N_12 
REMARK       I    between atoms: N_12  and  C_13 
REMARK    7  A    between atoms: C_13  and  C_14 
ROOT
HETATM    1  C   UNL     1      42.022 -14.669   3.517  1.00  0.00     0.259 C 
HETATM    2  N   UNL     1      42.945 -13.648   3.577  1.00  0.00    -0.265 N 
HETATM    3  O   UNL     1      41.358 -15.017   4.497  1.00  0.00    -0.269 OA
HETATM    4  H   UNL     1      43.403 -13.251   2.752  1.00  0.00     0.190 HD
ENDROOT
BRANCH   2   5
HETATM    5  N   UNL     1      43.103 -12.969   4.788  1.00  0.00    -0.263 N 
HETATM    6  C   UNL     1      43.501 -11.642   4.791  1.00  0.00     0.278 C 
HETATM    7  O   UNL     1      43.722 -11.065   3.725  1.00  0.00    -0.265 OA
HETATM    8  H   UNL     1      42.807 -13.452   5.634  1.00  0.00     0.190 HD
BRANCH   6   9
HETATM    9  C   UNL     1      43.637 -11.024   6.105  1.00  0.00     0.097 A 
HETATM   10  S   UNL     1      42.283 -10.319   6.886  1.00  0.00    -0.082 SA
HETATM   11  C   UNL     1      43.179  -9.904   8.289  1.00  0.00     0.017 A 
HETATM   12  C   UNL     1      44.518 -10.279   8.168  1.00  0.00     0.004 A 
HETATM   13  C   UNL     1      42.686  -9.267   9.444  1.00  0.00     0.020 A 
HETATM   14  C   UNL     1      44.765 -10.918   6.897  1.00  0.00     0.068 A 
HETATM   15  C   UNL     1      45.380  -9.994   9.259  1.00  0.00     0.014 A 
HETATM   16 CL   UNL     1      46.337 -11.482   6.477  1.00  0.00    -0.082 Cl
HETATM   17  C   UNL     1      44.896  -9.365  10.411  1.00  0.00     0.001 A 
HETATM   18  C   UNL     1      43.560  -9.006  10.500  1.00  0.00     0.001 A 
ENDBRANCH   6   9
ENDBRANCH   2   5
BRANCH   1  19
HETATM   19  C   UNL     1      41.875 -15.326   2.135  1.00  0.00     0.180 C 
BRANCH  19  20
HETATM   20  C   UNL     1      42.956 -16.386   1.872  1.00  0.00     0.045 C 
BRANCH  20  21
HETATM   21  C   UNL     1      42.630 -17.826   2.275  1.00  0.00     0.076 C 
BRANCH  21  22
HETATM   22  S   UNL     1      43.965 -18.615   3.228  1.00  0.00    -0.173 SA
HETATM   23  C   UNL     1      43.683 -20.332   2.729  1.00  0.00     0.089 C 
ENDBRANCH  21  22
ENDBRANCH  20  21
ENDBRANCH  19  20
BRANCH  19  24
HETATM   24  N   UNL     1      41.969 -14.239   1.160  1.00  0.00    -0.330 N 
HETATM   25  C   UNL     1      40.905 -13.806   0.440  1.00  0.00     0.314 C 
HETATM   26  N   UNL     1      41.225 -12.798  -0.408  1.00  0.00    -0.352 N 
HETATM   27  O   UNL     1      39.769 -14.247   0.519  1.00  0.00    -0.248 OA
HETATM   28  H   UNL     1      41.917 -12.135  -0.090  1.00  0.00     0.160 HD
HETATM   29  H   UNL     1      40.417 -12.385  -0.856  1.00  0.00     0.160 HD
HETATM   30  H   UNL     1      42.898 -13.951   0.875  1.00  0.00     0.165 HD
ENDBRANCH  19  24
ENDBRANCH   1  19
TORSDOF 7
ENDMDL
MODEL 9
REMARK VINA RESULT:      -6.7      2.341      3.526
REMARK  7 active torsions:
REMARK  status: ('A' for Active; 'I' for Inactive)
REMARK    1  A    between atoms: S_2  and  C_3 
REMARK    2  A    between atoms: C_3  and  C_4 
REMARK    3  A    between atoms: C_4  and  C_5 
REMARK    4  A    between atoms: C_5  and  N_6 
REMARK    5  A    between atoms: C_5  and  C_10 
REMARK       I    between atoms: N_6  and  C_7 
REMARK       I    between atoms: C_7  and  N_8 
REMARK       I    between atoms: C_10  and  N_11 
REMARK    6  A    between atoms: N_11  and  N_12 
REMARK       I    between atoms: N_12  and  C_13 
REMARK    7  A    between atoms: C_13  and  C_14 
ROOT
HETATM    1  C   UNL     1      41.025  -9.862   7.974  1.00  0.00     0.259 C 
HETATM    2  N   UNL     1      42.204 -10.524   7.705  1.00  0.00    -0.265 N 
HETATM    3  O   UNL     1      40.001 -10.043   7.309  1.00  0.00    -0.269 OA
HETATM    4  H   UNL     1      43.019 -10.497   8.323  1.00  0.00     0.190 HD
ENDROOT
BRANCH   2   5
HETATM    5  N   UNL     1      42.218 -11.452   6.662  1.00  0.00    -0.263 N 
HETATM    6  C   UNL     1      43.144 -12.484   6.666  1.00  0.00     0.278 C 
HETATM    7  O   UNL     1      43.955 -12.576   7.588  1.00  0.00    -0.265 OA
HETATM    8  H   UNL     1      41.464 -11.398   5.980  1.00  0.00     0.190 HD
BRANCH   6   9
HETATM    9  C   UNL     1      43.077 -13.399   5.532  1.00  0.00     0.097 A 
HETATM   10  S   UNL     1      43.218 -12.816   3.926  1.00  0.00    -0.082 SA
HETATM   11  C   UNL     1      43.110 -14.384   3.239  1.00  0.00     0.017 A 
HETATM   12  C   UNL     1      42.945 -15.362   4.222  1.00  0.00     0.004 A 
HETATM   13  C   UNL     1      43.172 -14.709   1.870  1.00  0.00     0.020 A 
HETATM   14  C   UNL     1      42.922 -14.773   5.540  1.00  0.00     0.068 A 
HETATM   15  C   UNL     1      42.840 -16.711   3.794  1.00  0.00     0.014 A 
HETATM   16 CL   UNL     1      42.727 -15.749   6.945  1.00  0.00    -0.082 Cl
HETATM   17  C   UNL     1      42.904 -17.041   2.436  1.00  0.00     0.001 A 
HETATM   18  C   UNL     1      43.069 -16.047   1.484  1.00  0.00     0.001 A 
ENDBRANCH   6   9
ENDBRANCH   2   5
BRANCH   1  19
HETATM   19  C   UNL     1      41.082  -8.900   9.171  1.00  0.00     0.180 C 
BRANCH  19  20
HETATM   20  C   UNL     1      42.507  -8.395   9.449  1.00  0.00     0.045 C 
BRANCH  20  21
HETATM   21  C   UNL     1      43.108  -8.728  10.816  1.00  0.00     0.076 C 
BRANCH  21  22
HETATM   22  S   UNL     1      44.184 -10.196  10.779  1.00  0.00    -0.173 SA
HETATM   23  C   UNL     1      45.346  -9.655   9.502  1.00  0.00     0.089 C 
ENDBRANCH  21  22
ENDBRANCH  20  21
ENDBRANCH  19  20
BRANCH  19  24
HETATM   24  N   UNL     1      40.568  -9.650  10.317  1.00  0.00    -0.330 N 
HETATM   25  C   UNL     1      39.554  -9.196  11.095  1.00  0.00     0.314 C 
HETATM   26  N   UNL     1      39.250 -10.049  12.103  1.00  0.00    -0.352 N 
HETATM   27  O   UNL     1      38.956  -8.143  10.936  1.00  0.00    -0.248 OA
HETATM   28  H   UNL     1      39.325 -11.036  11.906  1.00  0.00     0.160 HD
HETATM   29  H   UNL     1      38.416  -9.780  12.611  1.00  0.00     0.160 HD
HETATM   30  H   UNL     1      41.126 -10.427  10.651  1.00  0.00     0.165 HD
ENDBRANCH  19  24
ENDBRANCH   1  19
TORSDOF 7
ENDMDL
MODEL 10
REMARK VINA RESULT:      -6.6      6.420      9.384
REMARK  7 active torsions:
REMARK  status: ('A' for Active; 'I' for Inactive)
REMARK    1  A    between atoms: S_2  and  C_3 
REMARK    2  A    between atoms: C_3  and  C_4 
REMARK    3  A    between atoms: C_4  and  C_5 
REMARK    4  A    between atoms: C_5  and  N_6 
REMARK    5  A    between atoms: C_5  and  C_10 
REMARK       I    between atoms: N_6  and  C_7 
REMARK       I    between atoms: C_7  and  N_8 
REMARK       I    between atoms: C_10  and  N_11 
REMARK    6  A    between atoms: N_11  and  N_12 
REMARK       I    between atoms: N_12  and  C_13 
REMARK    7  A    between atoms: C_13  and  C_14 
ROOT
HETATM    1  C   UNL     1      42.849 -15.376   2.123  1.00  0.00     0.259 C 
HETATM    2  N   UNL     1      41.683 -14.670   1.919  1.00  0.00    -0.265 N 
HETATM    3  O   UNL     1      43.912 -15.065   1.578  1.00  0.00    -0.269 OA
HETATM    4  H   UNL     1      40.830 -14.821   2.463  1.00  0.00     0.190 HD
ENDROOT
BRANCH   2   5
HETATM    5  N   UNL     1      41.726 -13.546   1.089  1.00  0.00    -0.263 N 
HETATM    6  C   UNL     1      40.684 -13.294   0.211  1.00  0.00     0.278 C 
HETATM    7  O   UNL     1      39.725 -14.065   0.160  1.00  0.00    -0.265 OA
HETATM    8  H   UNL     1      42.484 -12.884   1.242  1.00  0.00     0.190 HD
BRANCH   6   9
HETATM    9  C   UNL     1      40.824 -12.097  -0.610  1.00  0.00     0.097 A 
HETATM   10  S   UNL     1      41.290 -10.603   0.090  1.00  0.00    -0.082 SA
HETATM   11  C   UNL     1      41.289  -9.780  -1.416  1.00  0.00     0.017 A 
HETATM   12  C   UNL     1      40.916 -10.629  -2.460  1.00  0.00     0.004 A 
HETATM   13  C   UNL     1      41.613  -8.427  -1.636  1.00  0.00     0.020 A 
HETATM   14  C   UNL     1      40.645 -11.961  -1.975  1.00  0.00     0.068 A 
HETATM   15  C   UNL     1      40.871 -10.078  -3.768  1.00  0.00     0.014 A 
HETATM   16 CL   UNL     1      40.160 -13.216  -3.049  1.00  0.00    -0.082 Cl
HETATM   17  C   UNL     1      41.195  -8.737  -3.994  1.00  0.00     0.001 A 
HETATM   18  C   UNL     1      41.563  -7.920  -2.935  1.00  0.00     0.001 A 
ENDBRANCH   6   9
ENDBRANCH   2   5
BRANCH   1  19
HETATM   19  C   UNL     1      42.725 -16.564   3.090  1.00  0.00     0.180 C 
BRANCH  19  20
HETATM   20  C   UNL     1      42.920 -17.915   2.386  1.00  0.00     0.045 C 
BRANCH  20  21
HETATM   21  C   UNL     1      44.068 -18.798   2.882  1.00  0.00     0.076 C 
BRANCH  21  22
HETATM   22  S   UNL     1      44.183 -18.858   4.698  1.00  0.00    -0.173 SA
HETATM   23  C   UNL     1      44.203 -20.655   4.914  1.00  0.00     0.089 C 
ENDBRANCH  21  22
ENDBRANCH  20  21
ENDBRANCH  19  20
BRANCH  19  24
HETATM   24  N   UNL     1      41.385 -16.473   3.670  1.00  0.00    -0.330 N 
HETATM   25  C   UNL     1      41.170 -16.343   5.002  1.00  0.00     0.314 C 
HETATM   26  N   UNL     1      39.853 -16.288   5.315  1.00  0.00    -0.352 N 
HETATM   27  O   UNL     1      42.040 -16.280   5.857  1.00  0.00    -0.248 OA
HETATM   28  H   UNL     1      39.247 -15.811   4.663  1.00  0.00     0.160 HD
HETATM   29  H   UNL     1      39.685 -16.066   6.288  1.00  0.00     0.160 HD
HETATM   30  H   UNL     1      40.604 -16.720   3.074  1.00  0.00     0.165 HD
ENDBRANCH  19  24
ENDBRANCH   1  19
TORSDOF 7
ENDMDL
