MODEL 1
REMARK VINA RESULT:      -9.2      0.000      0.000
REMARK  6 active torsions:
REMARK  status: ('A' for Active; 'I' for Inactive)
REMARK    1  A    between atoms: C_7  and  C_8 
REMARK    2  A    between atoms: N_9  and  N_10 
REMARK       I    between atoms: N_10  and  C_11 
REMARK    3  A    between atoms: C_11  and  C_12 
REMARK    4  A    between atoms: C_12  and  N_13 
REMARK       I    between atoms: N_13  and  C_14 
REMARK    5  A    between atoms: C_14  and  C_15 
REMARK    6  A    between atoms: C_16  and  C_17 
ROOT
HETATM    1  N   UNL     1      44.187 -12.061   6.908  1.00  0.00    -0.246 N 
HETATM    2  C   UNL     1      45.314 -11.314   6.596  1.00  0.00     0.255 C 
HETATM    3  O   UNL     1      45.718 -11.056   5.464  1.00  0.00    -0.270 OA
HETATM    4  H   UNL     1      43.980 -12.269   7.888  1.00  0.00     0.192 HD
ENDROOT
BRANCH   1   5
HETATM    5  N   UNL     1      43.420 -12.587   5.912  1.00  0.00    -0.184 NA
HETATM    6  C   UNL     1      42.812 -13.692   6.198  1.00  0.00     0.153 C 
BRANCH   6   7
HETATM    7  C   UNL     1      41.965 -14.332   5.206  1.00  0.00     0.018 A 
HETATM    8  C   UNL     1      40.647 -13.970   4.954  1.00  0.00     0.018 A 
HETATM    9  C   UNL     1      39.787 -12.921   5.561  1.00  0.00     0.069 C 
HETATM   10  N   UNL     1      40.175 -14.788   3.956  1.00  0.00    -0.358 N 
HETATM   11  H   UNL     1      39.244 -14.752   3.565  1.00  0.00     0.166 HD
HETATM   12  C   UNL     1      41.144 -15.672   3.551  1.00  0.00     0.043 A 
HETATM   13  C   UNL     1      42.282 -15.412   4.315  1.00  0.00     0.004 A 
HETATM   14  C   UNL     1      41.096 -16.671   2.571  1.00  0.00     0.030 A 
HETATM   15  C   UNL     1      43.431 -16.200   4.082  1.00  0.00     0.014 A 
HETATM   16  C   UNL     1      43.401 -17.204   3.107  1.00  0.00     0.001 A 
HETATM   17  C   UNL     1      42.248 -17.433   2.362  1.00  0.00     0.002 A 
ENDBRANCH   6   7
ENDBRANCH   1   5
BRANCH   2  18
HETATM   18  C   UNL     1      46.030 -10.783   7.837  1.00  0.00     0.227 C 
BRANCH  18  19
HETATM   19  N   UNL     1      45.107 -10.226   8.813  1.00  0.00    -0.349 N 
HETATM   20  C   UNL     1      44.959  -8.875   8.971  1.00  0.00     0.241 C 
HETATM   21  O   UNL     1      45.524  -8.053   8.258  1.00  0.00    -0.269 OA
HETATM   22  H   UNL     1      44.539 -10.875   9.342  1.00  0.00     0.163 HD
BRANCH  20  23
HETATM   23  C   UNL     1      44.025  -8.510  10.061  1.00  0.00     0.075 C 
HETATM   24  C   UNL     1      44.082  -9.159  11.233  1.00  0.00     0.017 C 
BRANCH  24  25
HETATM   25  C   UNL     1      43.208  -8.883  12.385  1.00  0.00    -0.036 A 
HETATM   26  C   UNL     1      43.399  -7.787  13.237  1.00  0.00     0.011 A 
HETATM   27  C   UNL     1      42.527  -7.552  14.303  1.00  0.00     0.001 A 
HETATM   28  C   UNL     1      41.444  -8.401  14.521  1.00  0.00     0.000 A 
HETATM   29  C   UNL     1      41.231  -9.482  13.670  1.00  0.00     0.001 A 
HETATM   30  C   UNL     1      42.105  -9.719  12.605  1.00  0.00     0.011 A 
ENDBRANCH  24  25
ENDBRANCH  20  23
ENDBRANCH  18  19
ENDBRANCH   2  18
TORSDOF 6
ENDMDL
MODEL 2
REMARK VINA RESULT:      -8.8      1.345      2.016
REMARK  6 active torsions:
REMARK  status: ('A' for Active; 'I' for Inactive)
REMARK    1  A    between atoms: C_7  and  C_8 
REMARK    2  A    between atoms: N_9  and  N_10 
REMARK       I    between atoms: N_10  and  C_11 
REMARK    3  A    between atoms: C_11  and  C_12 
REMARK    4  A    between atoms: C_12  and  N_13 
REMARK       I    between atoms: N_13  and  C_14 
REMARK    5  A    between atoms: C_14  and  C_15 
REMARK    6  A    between atoms: C_16  and  C_17 
ROOT
HETATM    1  N   UNL     1      44.279 -12.320   7.213  1.00  0.00    -0.246 N 
HETATM    2  C   UNL     1      45.146 -11.381   6.671  1.00  0.00     0.255 C 
HETATM    3  O   UNL     1      45.337 -11.183   5.473  1.00  0.00    -0.270 OA
HETATM    4  H   UNL     1      44.246 -12.444   8.228  1.00  0.00     0.192 HD
ENDROOT
BRANCH   1   5
HETATM    5  N   UNL     1      43.550 -13.129   6.393  1.00  0.00    -0.184 NA
HETATM    6  C   UNL     1      44.038 -14.309   6.192  1.00  0.00     0.153 C 
BRANCH   6   7
HETATM    7  C   UNL     1      43.334 -15.249   5.338  1.00  0.00     0.018 A 
HETATM    8  C   UNL     1      42.941 -16.522   5.733  1.00  0.00     0.018 A 
HETATM    9  C   UNL     1      43.103 -17.239   7.024  1.00  0.00     0.069 C 
HETATM   10  N   UNL     1      42.304 -17.111   4.667  1.00  0.00    -0.358 N 
HETATM   11  H   UNL     1      41.909 -18.041   4.666  1.00  0.00     0.166 HD
HETATM   12  C   UNL     1      42.270 -16.261   3.590  1.00  0.00     0.043 A 
HETATM   13  C   UNL     1      42.907 -15.082   3.976  1.00  0.00     0.004 A 
HETATM   14  C   UNL     1      41.725 -16.450   2.314  1.00  0.00     0.030 A 
HETATM   15  C   UNL     1      43.002 -14.038   3.029  1.00  0.00     0.014 A 
HETATM   16  C   UNL     1      42.463 -14.209   1.748  1.00  0.00     0.001 A 
HETATM   17  C   UNL     1      41.833 -15.399   1.399  1.00  0.00     0.002 A 
ENDBRANCH   6   7
ENDBRANCH   1   5
BRANCH   2  18
HETATM   18  C   UNL     1      45.853 -10.548   7.739  1.00  0.00     0.227 C 
BRANCH  18  19
HETATM   19  N   UNL     1      44.931 -10.037   8.741  1.00  0.00    -0.349 N 
HETATM   20  C   UNL     1      44.789  -8.694   8.966  1.00  0.00     0.241 C 
HETATM   21  O   UNL     1      45.357  -7.840   8.294  1.00  0.00    -0.269 OA
HETATM   22  H   UNL     1      44.361 -10.708   9.239  1.00  0.00     0.163 HD
BRANCH  20  23
HETATM   23  C   UNL     1      43.856  -8.380  10.073  1.00  0.00     0.075 C 
HETATM   24  C   UNL     1      44.023  -8.962  11.270  1.00  0.00     0.017 C 
BRANCH  24  25
HETATM   25  C   UNL     1      43.162  -8.726  12.441  1.00  0.00    -0.036 A 
HETATM   26  C   UNL     1      42.100  -9.574  12.786  1.00  0.00     0.011 A 
HETATM   27  C   UNL     1      41.327  -9.322  13.922  1.00  0.00     0.001 A 
HETATM   28  C   UNL     1      41.615  -8.228  14.735  1.00  0.00     0.000 A 
HETATM   29  C   UNL     1      42.678  -7.389  14.416  1.00  0.00     0.001 A 
HETATM   30  C   UNL     1      43.450  -7.640  13.277  1.00  0.00     0.011 A 
ENDBRANCH  24  25
ENDBRANCH  20  23
ENDBRANCH  18  19
ENDBRANCH   2  18
TORSDOF 6
ENDMDL
MODEL 3
REMARK VINA RESULT:      -8.7      1.919      2.531
REMARK  6 active torsions:
REMARK  status: ('A' for Active; 'I' for Inactive)
REMARK    1  A    between atoms: C_7  and  C_8 
REMARK    2  A    between atoms: N_9  and  N_10 
REMARK       I    between atoms: N_10  and  C_11 
REMARK    3  A    between atoms: C_11  and  C_12 
REMARK    4  A    between atoms: C_12  and  N_13 
REMARK       I    between atoms: N_13  and  C_14 
REMARK    5  A    between atoms: C_14  and  C_15 
REMARK    6  A    between atoms: C_16  and  C_17 
ROOT
HETATM    1  N   UNL     1      42.953 -12.713   6.830  1.00  0.00    -0.246 N 
HETATM    2  C   UNL     1      43.872 -11.744   7.206  1.00  0.00     0.255 C 
HETATM    3  O   UNL     1      45.053 -11.940   7.488  1.00  0.00    -0.270 OA
HETATM    4  H   UNL     1      41.976 -12.446   6.680  1.00  0.00     0.192 HD
ENDROOT
BRANCH   1   5
HETATM    5  N   UNL     1      43.332 -14.020   6.752  1.00  0.00    -0.184 NA
HETATM    6  C   UNL     1      42.929 -14.658   5.702  1.00  0.00     0.153 C 
BRANCH   6   7
HETATM    7  C   UNL     1      43.284 -16.055   5.522  1.00  0.00     0.018 A 
HETATM    8  C   UNL     1      43.701 -16.894   6.548  1.00  0.00     0.018 A 
HETATM    9  C   UNL     1      43.892 -16.644   8.000  1.00  0.00     0.069 C 
HETATM   10  N   UNL     1      43.942 -18.131   6.002  1.00  0.00    -0.358 N 
HETATM   11  H   UNL     1      44.257 -18.943   6.514  1.00  0.00     0.166 HD
HETATM   12  C   UNL     1      43.694 -18.124   4.651  1.00  0.00     0.043 A 
HETATM   13  C   UNL     1      43.278 -16.836   4.317  1.00  0.00     0.004 A 
HETATM   14  C   UNL     1      43.806 -19.158   3.712  1.00  0.00     0.030 A 
HETATM   15  C   UNL     1      42.959 -16.572   2.966  1.00  0.00     0.014 A 
HETATM   16  C   UNL     1      43.065 -17.592   2.013  1.00  0.00     0.001 A 
HETATM   17  C   UNL     1      43.483 -18.866   2.384  1.00  0.00     0.002 A 
ENDBRANCH   6   7
ENDBRANCH   1   5
BRANCH   2  18
HETATM   18  C   UNL     1      43.276 -10.337   7.208  1.00  0.00     0.227 C 
BRANCH  18  19
HETATM   19  N   UNL     1      42.757  -9.958   8.512  1.00  0.00    -0.349 N 
HETATM   20  C   UNL     1      43.548  -9.356   9.452  1.00  0.00     0.241 C 
HETATM   21  O   UNL     1      44.709  -9.024   9.235  1.00  0.00    -0.269 OA
HETATM   22  H   UNL     1      41.773 -10.113   8.687  1.00  0.00     0.163 HD
BRANCH  20  23
HETATM   23  C   UNL     1      42.853  -9.113  10.737  1.00  0.00     0.075 C 
HETATM   24  C   UNL     1      43.516  -8.548  11.757  1.00  0.00     0.017 C 
BRANCH  24  25
HETATM   25  C   UNL     1      42.930  -8.259  13.076  1.00  0.00    -0.036 A 
HETATM   26  C   UNL     1      43.358  -7.193  13.880  1.00  0.00     0.011 A 
HETATM   27  C   UNL     1      42.752  -6.942  15.114  1.00  0.00     0.001 A 
HETATM   28  C   UNL     1      41.701  -7.745  15.553  1.00  0.00     0.000 A 
HETATM   29  C   UNL     1      41.253  -8.795  14.757  1.00  0.00     0.001 A 
HETATM   30  C   UNL     1      41.861  -9.047  13.523  1.00  0.00     0.011 A 
ENDBRANCH  24  25
ENDBRANCH  20  23
ENDBRANCH  18  19
ENDBRANCH   2  18
TORSDOF 6
ENDMDL
MODEL 4
REMARK VINA RESULT:      -8.4      5.989      9.635
REMARK  6 active torsions:
REMARK  status: ('A' for Active; 'I' for Inactive)
REMARK    1  A    between atoms: C_7  and  C_8 
REMARK    2  A    between atoms: N_9  and  N_10 
REMARK       I    between atoms: N_10  and  C_11 
REMARK    3  A    between atoms: C_11  and  C_12 
REMARK    4  A    between atoms: C_12  and  N_13 
REMARK       I    between atoms: N_13  and  C_14 
REMARK    5  A    between atoms: C_14  and  C_15 
REMARK    6  A    between atoms: C_16  and  C_17 
ROOT
HETATM    1  N   UNL     1      41.421 -14.037   3.959  1.00  0.00    -0.246 N 
HETATM    2  C   UNL     1      41.657 -12.872   4.673  1.00  0.00     0.255 C 
HETATM    3  O   UNL     1      42.132 -12.803   5.806  1.00  0.00    -0.270 OA
HETATM    4  H   UNL     1      40.961 -13.981   3.047  1.00  0.00     0.192 HD
ENDROOT
BRANCH   1   5
HETATM    5  N   UNL     1      41.718 -15.248   4.510  1.00  0.00    -0.184 NA
HETATM    6  C   UNL     1      42.855 -15.758   4.165  1.00  0.00     0.153 C 
BRANCH   6   7
HETATM    7  C   UNL     1      43.266 -17.043   4.701  1.00  0.00     0.018 A 
HETATM    8  C   UNL     1      43.558 -17.274   6.040  1.00  0.00     0.018 A 
HETATM    9  C   UNL     1      43.538 -16.367   7.216  1.00  0.00     0.069 C 
HETATM   10  N   UNL     1      43.904 -18.598   6.168  1.00  0.00    -0.358 N 
HETATM   11  H   UNL     1      44.165 -19.050   7.033  1.00  0.00     0.166 HD
HETATM   12  C   UNL     1      43.847 -19.236   4.954  1.00  0.00     0.043 A 
HETATM   13  C   UNL     1      43.449 -18.289   4.011  1.00  0.00     0.004 A 
HETATM   14  C   UNL     1      44.115 -20.571   4.628  1.00  0.00     0.030 A 
HETATM   15  C   UNL     1      43.314 -18.707   2.668  1.00  0.00     0.014 A 
HETATM   16  C   UNL     1      43.579 -20.037   2.322  1.00  0.00     0.001 A 
HETATM   17  C   UNL     1      43.972 -20.955   3.292  1.00  0.00     0.002 A 
ENDBRANCH   6   7
ENDBRANCH   1   5
BRANCH   2  18
HETATM   18  C   UNL     1      41.293 -11.614   3.885  1.00  0.00     0.227 C 
BRANCH  18  19
HETATM   19  N   UNL     1      40.817 -11.920   2.546  1.00  0.00    -0.349 N 
HETATM   20  C   UNL     1      41.329 -11.291   1.443  1.00  0.00     0.241 C 
HETATM   21  O   UNL     1      42.265 -10.500   1.498  1.00  0.00    -0.269 OA
HETATM   22  H   UNL     1      40.124 -12.650   2.450  1.00  0.00     0.163 HD
BRANCH  20  23
HETATM   23  C   UNL     1      40.665 -11.689   0.179  1.00  0.00     0.075 C 
HETATM   24  C   UNL     1      39.804 -12.717   0.175  1.00  0.00     0.017 C 
BRANCH  24  25
HETATM   25  C   UNL     1      39.086 -13.200  -1.016  1.00  0.00    -0.036 A 
HETATM   26  C   UNL     1      37.918 -12.592  -1.497  1.00  0.00     0.011 A 
HETATM   27  C   UNL     1      37.287 -13.073  -2.648  1.00  0.00     0.001 A 
HETATM   28  C   UNL     1      37.824 -14.156  -3.340  1.00  0.00     0.000 A 
HETATM   29  C   UNL     1      38.994 -14.757  -2.884  1.00  0.00     0.001 A 
HETATM   30  C   UNL     1      39.624 -14.278  -1.732  1.00  0.00     0.011 A 
ENDBRANCH  24  25
ENDBRANCH  20  23
ENDBRANCH  18  19
ENDBRANCH   2  18
TORSDOF 6
ENDMDL
MODEL 5
REMARK VINA RESULT:      -8.4      3.374      9.744
REMARK  6 active torsions:
REMARK  status: ('A' for Active; 'I' for Inactive)
REMARK    1  A    between atoms: C_7  and  C_8 
REMARK    2  A    between atoms: N_9  and  N_10 
REMARK       I    between atoms: N_10  and  C_11 
REMARK    3  A    between atoms: C_11  and  C_12 
REMARK    4  A    between atoms: C_12  and  N_13 
REMARK       I    between atoms: N_13  and  C_14 
REMARK    5  A    between atoms: C_14  and  C_15 
REMARK    6  A    between atoms: C_16  and  C_17 
ROOT
HETATM    1  N   UNL     1      42.385 -11.379   3.091  1.00  0.00    -0.246 N 
HETATM    2  C   UNL     1      41.215 -11.997   2.673  1.00  0.00     0.255 C 
HETATM    3  O   UNL     1      40.134 -11.966   3.258  1.00  0.00    -0.270 OA
HETATM    4  H   UNL     1      43.246 -11.524   2.559  1.00  0.00     0.192 HD
ENDROOT
BRANCH   1   5
HETATM    5  N   UNL     1      42.402 -10.663   4.251  1.00  0.00    -0.184 NA
HETATM    6  C   UNL     1      42.456 -11.359   5.339  1.00  0.00     0.153 C 
BRANCH   6   7
HETATM    7  C   UNL     1      42.483 -10.690   6.628  1.00  0.00     0.018 A 
HETATM    8  C   UNL     1      41.368 -10.138   7.246  1.00  0.00     0.018 A 
HETATM    9  C   UNL     1      39.946 -10.072   6.820  1.00  0.00     0.069 C 
HETATM   10  N   UNL     1      41.778  -9.600   8.442  1.00  0.00    -0.358 N 
HETATM   11  H   UNL     1      41.178  -9.132   9.106  1.00  0.00     0.166 HD
HETATM   12  C   UNL     1      43.126  -9.785   8.622  1.00  0.00     0.043 A 
HETATM   13  C   UNL     1      43.600 -10.467   7.502  1.00  0.00     0.004 A 
HETATM   14  C   UNL     1      43.951  -9.402   9.687  1.00  0.00     0.030 A 
HETATM   15  C   UNL     1      44.977 -10.780   7.449  1.00  0.00     0.014 A 
HETATM   16  C   UNL     1      45.818 -10.404   8.504  1.00  0.00     0.001 A 
HETATM   17  C   UNL     1      45.308  -9.726   9.607  1.00  0.00     0.002 A 
ENDBRANCH   6   7
ENDBRANCH   1   5
BRANCH   2  18
HETATM   18  C   UNL     1      41.379 -12.726   1.341  1.00  0.00     0.227 C 
BRANCH  18  19
HETATM   19  N   UNL     1      41.656 -14.143   1.516  1.00  0.00    -0.349 N 
HETATM   20  C   UNL     1      42.889 -14.589   1.907  1.00  0.00     0.241 C 
HETATM   21  O   UNL     1      43.807 -13.835   2.211  1.00  0.00    -0.269 OA
HETATM   22  H   UNL     1      40.889 -14.789   1.383  1.00  0.00     0.163 HD
BRANCH  20  23
HETATM   23  C   UNL     1      42.989 -16.067   1.960  1.00  0.00     0.075 C 
HETATM   24  C   UNL     1      43.467 -16.663   3.062  1.00  0.00     0.017 C 
BRANCH  24  25
HETATM   25  C   UNL     1      43.610 -18.118   3.229  1.00  0.00    -0.036 A 
HETATM   26  C   UNL     1      44.058 -18.705   4.421  1.00  0.00     0.011 A 
HETATM   27  C   UNL     1      44.153 -20.095   4.539  1.00  0.00     0.001 A 
HETATM   28  C   UNL     1      43.787 -20.914   3.474  1.00  0.00     0.000 A 
HETATM   29  C   UNL     1      43.321 -20.345   2.292  1.00  0.00     0.001 A 
HETATM   30  C   UNL     1      43.229 -18.955   2.172  1.00  0.00     0.011 A 
ENDBRANCH  24  25
ENDBRANCH  20  23
ENDBRANCH  18  19
ENDBRANCH   2  18
TORSDOF 6
ENDMDL
MODEL 6
REMARK VINA RESULT:      -8.4      2.009      2.936
REMARK  6 active torsions:
REMARK  status: ('A' for Active; 'I' for Inactive)
REMARK    1  A    between atoms: C_7  and  C_8 
REMARK    2  A    between atoms: N_9  and  N_10 
REMARK       I    between atoms: N_10  and  C_11 
REMARK    3  A    between atoms: C_11  and  C_12 
REMARK    4  A    between atoms: C_12  and  N_13 
REMARK       I    between atoms: N_13  and  C_14 
REMARK    5  A    between atoms: C_14  and  C_15 
REMARK    6  A    between atoms: C_16  and  C_17 
ROOT
HETATM    1  N   UNL     1      43.051 -12.887   5.562  1.00  0.00    -0.246 N 
HETATM    2  C   UNL     1      43.666 -12.207   6.604  1.00  0.00     0.255 C 
HETATM    3  O   UNL     1      44.632 -12.604   7.253  1.00  0.00    -0.270 OA
HETATM    4  H   UNL     1      42.211 -12.491   5.132  1.00  0.00     0.192 HD
ENDROOT
BRANCH   1   5
HETATM    5  N   UNL     1      43.511 -14.112   5.180  1.00  0.00    -0.184 NA
HETATM    6  C   UNL     1      42.705 -14.809   4.448  1.00  0.00     0.153 C 
BRANCH   6   7
HETATM    7  C   UNL     1      43.103 -16.127   3.985  1.00  0.00     0.018 A 
HETATM    8  C   UNL     1      43.366 -16.442   2.658  1.00  0.00     0.018 A 
HETATM    9  C   UNL     1      43.327 -15.609   1.428  1.00  0.00     0.069 C 
HETATM   10  N   UNL     1      43.713 -17.771   2.606  1.00  0.00    -0.358 N 
HETATM   11  H   UNL     1      43.960 -18.276   1.767  1.00  0.00     0.166 HD
HETATM   12  C   UNL     1      43.684 -18.331   3.859  1.00  0.00     0.043 A 
HETATM   13  C   UNL     1      43.305 -17.326   4.749  1.00  0.00     0.004 A 
HETATM   14  C   UNL     1      43.965 -19.642   4.264  1.00  0.00     0.030 A 
HETATM   15  C   UNL     1      43.202 -17.658   6.119  1.00  0.00     0.014 A 
HETATM   16  C   UNL     1      43.478 -18.963   6.542  1.00  0.00     0.001 A 
HETATM   17  C   UNL     1      43.855 -19.940   5.625  1.00  0.00     0.002 A 
ENDBRANCH   6   7
ENDBRANCH   1   5
BRANCH   2  18
HETATM   18  C   UNL     1      43.035 -10.842   6.869  1.00  0.00     0.227 C 
BRANCH  18  19
HETATM   19  N   UNL     1      42.946 -10.539   8.289  1.00  0.00    -0.349 N 
HETATM   20  C   UNL     1      43.889  -9.774   8.919  1.00  0.00     0.241 C 
HETATM   21  O   UNL     1      44.814  -9.229   8.325  1.00  0.00    -0.269 OA
HETATM   22  H   UNL     1      42.135 -10.877   8.789  1.00  0.00     0.163 HD
BRANCH  20  23
HETATM   23  C   UNL     1      43.658  -9.640  10.376  1.00  0.00     0.075 C 
HETATM   24  C   UNL     1      42.828  -8.691  10.835  1.00  0.00     0.017 C 
BRANCH  24  25
HETATM   25  C   UNL     1      42.522  -8.466  12.257  1.00  0.00    -0.036 A 
HETATM   26  C   UNL     1      41.538  -9.189  12.946  1.00  0.00     0.011 A 
HETATM   27  C   UNL     1      41.302  -8.956  14.303  1.00  0.00     0.001 A 
HETATM   28  C   UNL     1      42.056  -8.008  14.992  1.00  0.00     0.000 A 
HETATM   29  C   UNL     1      43.050  -7.297  14.325  1.00  0.00     0.001 A 
HETATM   30  C   UNL     1      43.285  -7.528  12.967  1.00  0.00     0.011 A 
ENDBRANCH  24  25
ENDBRANCH  20  23
ENDBRANCH  18  19
ENDBRANCH   2  18
TORSDOF 6
ENDMDL
MODEL 7
REMARK VINA RESULT:      -8.3      5.734      9.050
REMARK  6 active torsions:
REMARK  status: ('A' for Active; 'I' for Inactive)
REMARK    1  A    between atoms: C_7  and  C_8 
REMARK    2  A    between atoms: N_9  and  N_10 
REMARK       I    between atoms: N_10  and  C_11 
REMARK    3  A    between atoms: C_11  and  C_12 
REMARK    4  A    between atoms: C_12  and  N_13 
REMARK       I    between atoms: N_13  and  C_14 
REMARK    5  A    between atoms: C_14  and  C_15 
REMARK    6  A    between atoms: C_16  and  C_17 
ROOT
HETATM    1  N   UNL     1      42.147 -12.511   2.592  1.00  0.00    -0.246 N 
HETATM    2  C   UNL     1      41.952 -12.106   3.905  1.00  0.00     0.255 C 
HETATM    3  O   UNL     1      41.027 -11.406   4.314  1.00  0.00    -0.270 OA
HETATM    4  H   UNL     1      42.988 -13.040   2.351  1.00  0.00     0.192 HD
ENDROOT
BRANCH   1   5
HETATM    5  N   UNL     1      41.270 -12.127   1.621  1.00  0.00    -0.184 NA
HETATM    6  C   UNL     1      40.274 -12.926   1.418  1.00  0.00     0.153 C 
BRANCH   6   7
HETATM    7  C   UNL     1      39.281 -12.605   0.408  1.00  0.00     0.018 A 
HETATM    8  C   UNL     1      38.416 -11.519   0.480  1.00  0.00     0.018 A 
HETATM    9  C   UNL     1      38.261 -10.459   1.509  1.00  0.00     0.069 C 
HETATM   10  N   UNL     1      37.630 -11.537  -0.647  1.00  0.00    -0.358 N 
HETATM   11  H   UNL     1      36.910 -10.864  -0.866  1.00  0.00     0.166 HD
HETATM   12  C   UNL     1      37.956 -12.602  -1.450  1.00  0.00     0.043 A 
HETATM   13  C   UNL     1      38.990 -13.292  -0.818  1.00  0.00     0.004 A 
HETATM   14  C   UNL     1      37.416 -12.997  -2.681  1.00  0.00     0.030 A 
HETATM   15  C   UNL     1      39.506 -14.442  -1.456  1.00  0.00     0.014 A 
HETATM   16  C   UNL     1      38.979 -14.853  -2.686  1.00  0.00     0.001 A 
HETATM   17  C   UNL     1      37.948 -14.137  -3.288  1.00  0.00     0.002 A 
ENDBRANCH   6   7
ENDBRANCH   1   5
BRANCH   2  18
HETATM   18  C   UNL     1      43.014 -12.657   4.854  1.00  0.00     0.227 C 
BRANCH  18  19
HETATM   19  N   UNL     1      43.089 -14.108   4.819  1.00  0.00    -0.349 N 
HETATM   20  C   UNL     1      43.328 -14.841   5.950  1.00  0.00     0.241 C 
HETATM   21  O   UNL     1      43.413 -14.340   7.066  1.00  0.00    -0.269 OA
HETATM   22  H   UNL     1      42.911 -14.565   3.935  1.00  0.00     0.163 HD
BRANCH  20  23
HETATM   23  C   UNL     1      43.436 -16.297   5.695  1.00  0.00     0.075 C 
HETATM   24  C   UNL     1      43.521 -16.747   4.434  1.00  0.00     0.017 C 
BRANCH  24  25
HETATM   25  C   UNL     1      43.633 -18.166   4.060  1.00  0.00    -0.036 A 
HETATM   26  C   UNL     1      43.451 -18.622   2.747  1.00  0.00     0.011 A 
HETATM   27  C   UNL     1      43.594 -19.978   2.437  1.00  0.00     0.001 A 
HETATM   28  C   UNL     1      43.934 -20.891   3.433  1.00  0.00     0.000 A 
HETATM   29  C   UNL     1      44.137 -20.449   4.737  1.00  0.00     0.001 A 
HETATM   30  C   UNL     1      43.993 -19.094   5.048  1.00  0.00     0.011 A 
ENDBRANCH  24  25
ENDBRANCH  20  23
ENDBRANCH  18  19
ENDBRANCH   2  18
TORSDOF 6
ENDMDL
MODEL 8
REMARK VINA RESULT:      -8.0      5.916      9.374
REMARK  6 active torsions:
REMARK  status: ('A' for Active; 'I' for Inactive)
REMARK    1  A    between atoms: C_7  and  C_8 
REMARK    2  A    between atoms: N_9  and  N_10 
REMARK       I    between atoms: N_10  and  C_11 
REMARK    3  A    between atoms: C_11  and  C_12 
REMARK    4  A    between atoms: C_12  and  N_13 
REMARK       I    between atoms: N_13  and  C_14 
REMARK    5  A    between atoms: C_14  and  C_15 
REMARK    6  A    between atoms: C_16  and  C_17 
ROOT
HETATM    1  N   UNL     1      42.122 -12.579   4.036  1.00  0.00    -0.246 N 
HETATM    2  C   UNL     1      42.794 -11.444   3.604  1.00  0.00     0.255 C 
HETATM    3  O   UNL     1      44.005 -11.352   3.410  1.00  0.00    -0.270 OA
HETATM    4  H   UNL     1      41.119 -12.524   4.227  1.00  0.00     0.192 HD
ENDROOT
BRANCH   1   5
HETATM    5  N   UNL     1      42.813 -13.726   4.289  1.00  0.00    -0.184 NA
HETATM    6  C   UNL     1      42.122 -14.697   4.790  1.00  0.00     0.153 C 
BRANCH   6   7
HETATM    7  C   UNL     1      42.764 -15.964   5.091  1.00  0.00     0.018 A 
HETATM    8  C   UNL     1      43.211 -16.333   6.354  1.00  0.00     0.018 A 
HETATM    9  C   UNL     1      43.171 -15.615   7.654  1.00  0.00     0.069 C 
HETATM   10  N   UNL     1      43.755 -17.591   6.252  1.00  0.00    -0.358 N 
HETATM   11  H   UNL     1      44.159 -18.115   7.016  1.00  0.00     0.166 HD
HETATM   12  C   UNL     1      43.676 -18.052   4.961  1.00  0.00     0.043 A 
HETATM   13  C   UNL     1      43.058 -17.056   4.206  1.00  0.00     0.004 A 
HETATM   14  C   UNL     1      44.102 -19.270   4.415  1.00  0.00     0.030 A 
HETATM   15  C   UNL     1      42.859 -17.296   2.828  1.00  0.00     0.014 A 
HETATM   16  C   UNL     1      43.279 -18.506   2.264  1.00  0.00     0.001 A 
HETATM   17  C   UNL     1      43.891 -19.479   3.050  1.00  0.00     0.002 A 
ENDBRANCH   6   7
ENDBRANCH   1   5
BRANCH   2  18
HETATM   18  C   UNL     1      41.854 -10.267   3.343  1.00  0.00     0.227 C 
BRANCH  18  19
HETATM   19  N   UNL     1      41.812  -9.894   1.938  1.00  0.00    -0.349 N 
HETATM   20  C   UNL     1      41.347 -10.754   0.981  1.00  0.00     0.241 C 
HETATM   21  O   UNL     1      40.864 -11.850   1.246  1.00  0.00    -0.269 OA
HETATM   22  H   UNL     1      42.097  -8.954   1.696  1.00  0.00     0.163 HD
BRANCH  20  23
HETATM   23  C   UNL     1      41.450 -10.214  -0.394  1.00  0.00     0.075 C 
HETATM   24  C   UNL     1      41.915  -8.971  -0.589  1.00  0.00     0.017 C 
BRANCH  24  25
HETATM   25  C   UNL     1      42.063  -8.331  -1.906  1.00  0.00    -0.036 A 
HETATM   26  C   UNL     1      42.987  -7.305  -2.152  1.00  0.00     0.011 A 
HETATM   27  C   UNL     1      43.108  -6.747  -3.428  1.00  0.00     0.001 A 
HETATM   28  C   UNL     1      42.319  -7.217  -4.475  1.00  0.00     0.000 A 
HETATM   29  C   UNL     1      41.411  -8.248  -4.249  1.00  0.00     0.001 A 
HETATM   30  C   UNL     1      41.288  -8.805  -2.973  1.00  0.00     0.011 A 
ENDBRANCH  24  25
ENDBRANCH  20  23
ENDBRANCH  18  19
ENDBRANCH   2  18
TORSDOF 6
ENDMDL
MODEL 9
REMARK VINA RESULT:      -7.8      6.514     10.216
REMARK  6 active torsions:
REMARK  status: ('A' for Active; 'I' for Inactive)
REMARK    1  A    between atoms: C_7  and  C_8 
REMARK    2  A    between atoms: N_9  and  N_10 
REMARK       I    between atoms: N_10  and  C_11 
REMARK    3  A    between atoms: C_11  and  C_12 
REMARK    4  A    between atoms: C_12  and  N_13 
REMARK       I    between atoms: N_13  and  C_14 
REMARK    5  A    between atoms: C_14  and  C_15 
REMARK    6  A    between atoms: C_16  and  C_17 
ROOT
HETATM    1  N   UNL     1      40.205 -14.376   2.668  1.00  0.00    -0.246 N 
HETATM    2  C   UNL     1      40.202 -14.082   1.312  1.00  0.00     0.255 C 
HETATM    3  O   UNL     1      40.772 -14.726   0.433  1.00  0.00    -0.270 OA
HETATM    4  H   UNL     1      39.750 -13.734   3.321  1.00  0.00     0.192 HD
ENDROOT
BRANCH   1   5
HETATM    5  N   UNL     1      40.887 -15.463   3.130  1.00  0.00    -0.184 NA
HETATM    6  C   UNL     1      42.077 -15.228   3.578  1.00  0.00     0.153 C 
BRANCH   6   7
HETATM    7  C   UNL     1      42.885 -16.318   4.097  1.00  0.00     0.018 A 
HETATM    8  C   UNL     1      43.584 -16.270   5.296  1.00  0.00     0.018 A 
HETATM    9  C   UNL     1      43.706 -15.196   6.315  1.00  0.00     0.069 C 
HETATM   10  N   UNL     1      44.223 -17.476   5.455  1.00  0.00    -0.358 N 
HETATM   11  H   UNL     1      44.807 -17.728   6.240  1.00  0.00     0.166 HD
HETATM   12  C   UNL     1      43.961 -18.309   4.394  1.00  0.00     0.043 A 
HETATM   13  C   UNL     1      43.123 -17.613   3.524  1.00  0.00     0.004 A 
HETATM   14  C   UNL     1      44.401 -19.615   4.148  1.00  0.00     0.030 A 
HETATM   15  C   UNL     1      42.706 -18.266   2.342  1.00  0.00     0.014 A 
HETATM   16  C   UNL     1      43.136 -19.571   2.078  1.00  0.00     0.001 A 
HETATM   17  C   UNL     1      43.971 -20.235   2.972  1.00  0.00     0.002 A 
ENDBRANCH   6   7
ENDBRANCH   1   5
BRANCH   2  18
HETATM   18  C   UNL     1      39.363 -12.850   0.980  1.00  0.00     0.227 C 
BRANCH  18  19
HETATM   19  N   UNL     1      40.045 -11.946   0.067  1.00  0.00    -0.349 N 
HETATM   20  C   UNL     1      39.799 -11.967  -1.280  1.00  0.00     0.241 C 
HETATM   21  O   UNL     1      38.943 -12.680  -1.792  1.00  0.00    -0.269 OA
HETATM   22  H   UNL     1      40.676 -11.265   0.467  1.00  0.00     0.163 HD
BRANCH  20  23
HETATM   23  C   UNL     1      40.643 -11.020  -2.045  1.00  0.00     0.075 C 
HETATM   24  C   UNL     1      40.821  -9.770  -1.591  1.00  0.00     0.017 C 
BRANCH  24  25
HETATM   25  C   UNL     1      41.637  -8.746  -2.264  1.00  0.00    -0.036 A 
HETATM   26  C   UNL     1      41.465  -8.404  -3.613  1.00  0.00     0.011 A 
HETATM   27  C   UNL     1      42.247  -7.405  -4.200  1.00  0.00     0.001 A 
HETATM   28  C   UNL     1      43.199  -6.727  -3.443  1.00  0.00     0.000 A 
HETATM   29  C   UNL     1      43.367  -7.043  -2.098  1.00  0.00     0.001 A 
HETATM   30  C   UNL     1      42.586  -8.043  -1.511  1.00  0.00     0.011 A 
ENDBRANCH  24  25
ENDBRANCH  20  23
ENDBRANCH  18  19
ENDBRANCH   2  18
TORSDOF 6
ENDMDL
MODEL 10
REMARK VINA RESULT:      -7.8      5.347      9.316
REMARK  6 active torsions:
REMARK  status: ('A' for Active; 'I' for Inactive)
REMARK    1  A    between atoms: C_7  and  C_8 
REMARK    2  A    between atoms: N_9  and  N_10 
REMARK       I    between atoms: N_10  and  C_11 
REMARK    3  A    between atoms: C_11  and  C_12 
REMARK    4  A    between atoms: C_12  and  N_13 
REMARK       I    between atoms: N_13  and  C_14 
REMARK    5  A    between atoms: C_14  and  C_15 
REMARK    6  A    between atoms: C_16  and  C_17 
ROOT
HETATM    1  N   UNL     1      41.101 -12.774   3.286  1.00  0.00    -0.246 N 
HETATM    2  C   UNL     1      40.834 -12.023   4.422  1.00  0.00     0.255 C 
HETATM    3  O   UNL     1      40.158 -10.996   4.466  1.00  0.00    -0.270 OA
HETATM    4  H   UNL     1      41.731 -13.577   3.354  1.00  0.00     0.192 HD
ENDROOT
BRANCH   1   5
HETATM    5  N   UNL     1      40.601 -12.387   2.079  1.00  0.00    -0.184 NA
HETATM    6  C   UNL     1      41.324 -12.690   1.050  1.00  0.00     0.153 C 
BRANCH   6   7
HETATM    7  C   UNL     1      40.876 -12.327  -0.283  1.00  0.00     0.018 A 
HETATM    8  C   UNL     1      40.120 -13.152  -1.106  1.00  0.00     0.018 A 
HETATM    9  C   UNL     1      39.589 -14.524  -0.894  1.00  0.00     0.069 C 
HETATM   10  N   UNL     1      39.887 -12.473  -2.277  1.00  0.00    -0.358 N 
HETATM   11  H   UNL     1      39.360 -12.829  -3.062  1.00  0.00     0.166 HD
HETATM   12  C   UNL     1      40.469 -11.230  -2.242  1.00  0.00     0.043 A 
HETATM   13  C   UNL     1      41.098 -11.105  -1.004  1.00  0.00     0.004 A 
HETATM   14  C   UNL     1      40.482 -10.217  -3.210  1.00  0.00     0.030 A 
HETATM   15  C   UNL     1      41.776  -9.898  -0.723  1.00  0.00     0.014 A 
HETATM   16  C   UNL     1      41.800  -8.874  -1.678  1.00  0.00     0.001 A 
HETATM   17  C   UNL     1      41.160  -9.034  -2.903  1.00  0.00     0.002 A 
ENDBRANCH   6   7
ENDBRANCH   1   5
BRANCH   2  18
HETATM   18  C   UNL     1      41.450 -12.625   5.684  1.00  0.00     0.227 C 
BRANCH  18  19
HETATM   19  N   UNL     1      41.878 -14.001   5.489  1.00  0.00    -0.349 N 
HETATM   20  C   UNL     1      43.131 -14.420   5.847  1.00  0.00     0.241 C 
HETATM   21  O   UNL     1      43.937 -13.698   6.424  1.00  0.00    -0.269 OA
HETATM   22  H   UNL     1      41.200 -14.654   5.119  1.00  0.00     0.163 HD
BRANCH  20  23
HETATM   23  C   UNL     1      43.396 -15.836   5.503  1.00  0.00     0.075 C 
HETATM   24  C   UNL     1      43.102 -16.290   4.276  1.00  0.00     0.017 C 
BRANCH  24  25
HETATM   25  C   UNL     1      43.323 -17.673   3.822  1.00  0.00    -0.036 A 
HETATM   26  C   UNL     1      43.011 -18.105   2.525  1.00  0.00     0.011 A 
HETATM   27  C   UNL     1      43.263 -19.423   2.133  1.00  0.00     0.001 A 
HETATM   28  C   UNL     1      43.844 -20.319   3.027  1.00  0.00     0.000 A 
HETATM   29  C   UNL     1      44.176 -19.899   4.312  1.00  0.00     0.001 A 
HETATM   30  C   UNL     1      43.922 -18.581   4.705  1.00  0.00     0.011 A 
ENDBRANCH  24  25
ENDBRANCH  20  23
ENDBRANCH  18  19
ENDBRANCH   2  18
TORSDOF 6
ENDMDL
