MODEL 1
REMARK VINA RESULT:      -9.6      0.000      0.000
REMARK  9 active torsions:
REMARK  status: ('A' for Active; 'I' for Inactive)
REMARK    1  A    between atoms: C_6  and  O_7 
REMARK    2  A    between atoms: O_7  and  C_8 
REMARK    3  A    between atoms: C_8  and  C_9 
REMARK       I    between atoms: C_9  and  N_10 
REMARK    4  A    between atoms: N_10  and  C_11 
REMARK    5  A    between atoms: C_11  and  N_12 
REMARK    6  A    between atoms: N_12  and  C_13 
REMARK    7  A    between atoms: C_15  and  O_16 
REMARK    8  A    between atoms: C_17  and  C_18 
REMARK    9  A    between atoms: C_25  and  C_26 
ROOT
HETATM    1  C   UNL     1      43.663 -10.547   7.526  1.00  0.00     0.036 A 
HETATM    2  C   UNL     1      42.504  -9.813   7.770  1.00  0.00     0.067 A 
HETATM    3  C   UNL     1      42.219  -9.326   9.051  1.00  0.00     0.082 A 
HETATM    4  C   UNL     1      43.093  -9.539  10.123  1.00  0.00     0.050 A 
HETATM    5  C   UNL     1      44.291 -10.221   9.861  1.00  0.00     0.021 A 
HETATM    6  C   UNL     1      44.572 -10.714   8.577  1.00  0.00     0.030 A 
ENDROOT
BRANCH   1   7
HETATM    7  N   UNL     1      44.004 -11.121   6.280  1.00  0.00    -0.333 N 
HETATM    8  H   UNL     1      44.998 -11.327   6.164  1.00  0.00     0.168 HD
BRANCH   7   9
HETATM    9  C   UNL     1      43.235 -11.552   5.224  1.00  0.00     0.178 C 
HETATM   10  S   UNL     1      42.532 -10.688   3.975  1.00  0.00    -0.040 SA
BRANCH   9  11
HETATM   11  N   UNL     1      42.975 -12.909   5.204  1.00  0.00    -0.302 N 
HETATM   12  C   UNL     1      41.859 -13.627   5.610  1.00  0.00     0.248 C 
HETATM   13  O   UNL     1      40.901 -13.114   6.187  1.00  0.00    -0.271 OA
HETATM   14  H   UNL     1      43.704 -13.431   4.737  1.00  0.00     0.171 HD
BRANCH  12  15
HETATM   15  C   UNL     1      41.968 -15.134   5.348  1.00  0.00     0.278 C 
BRANCH  15  16
HETATM   16  O   UNL     1      43.301 -15.533   5.022  1.00  0.00    -0.342 OA
BRANCH  16  17
HETATM   17  C   UNL     1      43.409 -16.647   4.237  1.00  0.00     0.069 A 
HETATM   18  C   UNL     1      43.883 -17.800   4.865  1.00  0.00     0.044 A 
HETATM   19  C   UNL     1      43.957 -19.019   4.174  1.00  0.00    -0.053 A 
HETATM   20  C   UNL     1      43.586 -19.061   2.816  1.00  0.00    -0.056 A 
HETATM   21  C   UNL     1      44.382 -20.258   4.915  1.00  0.00     0.049 C 
HETATM   22  C   UNL     1      43.634 -20.342   2.030  1.00  0.00     0.049 C 
HETATM   23  C   UNL     1      43.182 -17.875   2.179  1.00  0.00     0.010 A 
HETATM   24  C   UNL     1      43.096 -16.673   2.884  1.00  0.00     0.037 A 
ENDBRANCH  16  17
ENDBRANCH  15  16
ENDBRANCH  12  15
ENDBRANCH   9  11
ENDBRANCH   7   9
ENDBRANCH   1   7
BRANCH   3  25
HETATM   25  O   UNL     1      41.071  -8.601   9.234  1.00  0.00    -0.360 OA
HETATM   26  H   UNL     1      40.566  -8.577   8.405  1.00  0.00     0.217 HD
ENDBRANCH   3  25
BRANCH   4  27
HETATM   27  C   UNL     1      42.757  -9.102  11.474  1.00  0.00     0.183 A 
HETATM   28  O   UNL     1      43.564  -8.134  12.026  1.00  0.00    -0.289 OA
HETATM   29  C   UNL     1      43.007  -7.904  13.252  1.00  0.00     0.106 A 
HETATM   30  C   UNL     1      41.923  -8.751  13.389  1.00  0.00     0.094 A 
HETATM   31  C   UNL     1      43.416  -6.992  14.213  1.00  0.00     0.040 A 
HETATM   32  N   UNL     1      41.783  -9.516  12.265  1.00  0.00    -0.221 NA
HETATM   33  C   UNL     1      41.169  -8.713  14.569  1.00  0.00     0.042 A 
HETATM   34  C   UNL     1      41.535  -7.803  15.582  1.00  0.00    -0.052 A 
HETATM   35  C   UNL     1      42.648  -6.958  15.389  1.00  0.00     0.010 A 
BRANCH  34  36
HETATM   36  C   UNL     1      40.705  -7.754  16.855  1.00  0.00     0.010 C 
HETATM   37  C   UNL     1      41.586  -7.681  18.104  1.00  0.00     0.015 C 
HETATM   38  C   UNL     1      39.700  -6.600  16.823  1.00  0.00     0.015 C 
ENDBRANCH  34  36
ENDBRANCH   4  27
TORSDOF 9
ENDMDL
MODEL 2
REMARK VINA RESULT:      -9.4      1.863     12.137
REMARK  9 active torsions:
REMARK  status: ('A' for Active; 'I' for Inactive)
REMARK    1  A    between atoms: C_6  and  O_7 
REMARK    2  A    between atoms: O_7  and  C_8 
REMARK    3  A    between atoms: C_8  and  C_9 
REMARK       I    between atoms: C_9  and  N_10 
REMARK    4  A    between atoms: N_10  and  C_11 
REMARK    5  A    between atoms: C_11  and  N_12 
REMARK    6  A    between atoms: N_12  and  C_13 
REMARK    7  A    between atoms: C_15  and  O_16 
REMARK    8  A    between atoms: C_17  and  C_18 
REMARK    9  A    between atoms: C_25  and  C_26 
ROOT
HETATM    1  C   UNL     1      43.231 -10.502   7.225  1.00  0.00     0.036 A 
HETATM    2  C   UNL     1      42.136 -10.962   6.495  1.00  0.00     0.067 A 
HETATM    3  C   UNL     1      42.160 -12.220   5.884  1.00  0.00     0.082 A 
HETATM    4  C   UNL     1      43.268 -13.067   5.999  1.00  0.00     0.050 A 
HETATM    5  C   UNL     1      44.341 -12.631   6.789  1.00  0.00     0.021 A 
HETATM    6  C   UNL     1      44.320 -11.365   7.396  1.00  0.00     0.030 A 
ENDROOT
BRANCH   1   7
HETATM    7  N   UNL     1      43.317  -9.227   7.830  1.00  0.00    -0.333 N 
HETATM    8  H   UNL     1      44.036  -8.616   7.438  1.00  0.00     0.168 HD
BRANCH   7   9
HETATM    9  C   UNL     1      42.545  -8.609   8.787  1.00  0.00     0.178 C 
HETATM   10  S   UNL     1      41.716  -7.157   8.736  1.00  0.00    -0.040 SA
BRANCH   9  11
HETATM   11  N   UNL     1      42.462  -9.277   9.994  1.00  0.00    -0.302 N 
HETATM   12  C   UNL     1      43.450  -9.651  10.896  1.00  0.00     0.248 C 
HETATM   13  O   UNL     1      44.652  -9.511  10.675  1.00  0.00    -0.271 OA
HETATM   14  H   UNL     1      41.505  -9.435  10.279  1.00  0.00     0.171 HD
BRANCH  12  15
HETATM   15  C   UNL     1      42.904 -10.330  12.158  1.00  0.00     0.278 C 
BRANCH  15  16
HETATM   16  O   UNL     1      41.520 -10.047  12.372  1.00  0.00    -0.342 OA
BRANCH  16  17
HETATM   17  C   UNL     1      41.252  -9.066  13.286  1.00  0.00     0.069 A 
HETATM   18  C   UNL     1      40.174  -8.230  12.994  1.00  0.00     0.044 A 
HETATM   19  C   UNL     1      39.761  -7.241  13.901  1.00  0.00    -0.053 A 
HETATM   20  C   UNL     1      40.478  -7.071  15.101  1.00  0.00    -0.056 A 
HETATM   21  C   UNL     1      38.535  -6.425  13.590  1.00  0.00     0.049 C 
HETATM   22  C   UNL     1      40.073  -6.036  16.115  1.00  0.00     0.049 C 
HETATM   23  C   UNL     1      41.607  -7.872  15.346  1.00  0.00     0.010 A 
HETATM   24  C   UNL     1      41.995  -8.863  14.443  1.00  0.00     0.037 A 
ENDBRANCH  16  17
ENDBRANCH  15  16
ENDBRANCH  12  15
ENDBRANCH   9  11
ENDBRANCH   7   9
ENDBRANCH   1   7
BRANCH   3  25
HETATM   25  O   UNL     1      41.052 -12.629   5.187  1.00  0.00    -0.360 OA
HETATM   26  H   UNL     1      40.787 -11.934   4.563  1.00  0.00     0.217 HD
ENDBRANCH   3  25
BRANCH   4  27
HETATM   27  C   UNL     1      43.323 -14.344   5.295  1.00  0.00     0.183 A 
HETATM   28  O   UNL     1      42.853 -14.355   4.002  1.00  0.00    -0.289 OA
HETATM   29  C   UNL     1      43.053 -15.643   3.593  1.00  0.00     0.106 A 
HETATM   30  C   UNL     1      43.601 -16.342   4.651  1.00  0.00     0.094 A 
HETATM   31  C   UNL     1      42.778 -16.190   2.348  1.00  0.00     0.040 A 
HETATM   32  N   UNL     1      43.754 -15.516   5.729  1.00  0.00    -0.221 NA
HETATM   33  C   UNL     1      43.907 -17.700   4.489  1.00  0.00     0.042 A 
HETATM   34  C   UNL     1      43.652 -18.312   3.245  1.00  0.00    -0.052 A 
HETATM   35  C   UNL     1      43.095 -17.550   2.197  1.00  0.00     0.010 A 
BRANCH  34  36
HETATM   36  C   UNL     1      44.000 -19.782   3.068  1.00  0.00     0.010 C 
HETATM   37  C   UNL     1      43.730 -20.584   4.343  1.00  0.00     0.015 C 
HETATM   38  C   UNL     1      43.267 -20.390   1.870  1.00  0.00     0.015 C 
ENDBRANCH  34  36
ENDBRANCH   4  27
TORSDOF 9
ENDMDL
MODEL 3
REMARK VINA RESULT:      -9.4      3.983     10.489
REMARK  9 active torsions:
REMARK  status: ('A' for Active; 'I' for Inactive)
REMARK    1  A    between atoms: C_6  and  O_7 
REMARK    2  A    between atoms: O_7  and  C_8 
REMARK    3  A    between atoms: C_8  and  C_9 
REMARK       I    between atoms: C_9  and  N_10 
REMARK    4  A    between atoms: N_10  and  C_11 
REMARK    5  A    between atoms: C_11  and  N_12 
REMARK    6  A    between atoms: N_12  and  C_13 
REMARK    7  A    between atoms: C_15  and  O_16 
REMARK    8  A    between atoms: C_17  and  C_18 
REMARK    9  A    between atoms: C_25  and  C_26 
ROOT
HETATM    1  C   UNL     1      39.646 -10.720   5.133  1.00  0.00     0.036 A 
HETATM    2  C   UNL     1      39.269 -11.865   5.832  1.00  0.00     0.067 A 
HETATM    3  C   UNL     1      39.970 -13.066   5.674  1.00  0.00     0.082 A 
HETATM    4  C   UNL     1      41.083 -13.154   4.830  1.00  0.00     0.050 A 
HETATM    5  C   UNL     1      41.502 -11.985   4.179  1.00  0.00     0.021 A 
HETATM    6  C   UNL     1      40.793 -10.783   4.333  1.00  0.00     0.030 A 
ENDROOT
BRANCH   1   7
HETATM    7  N   UNL     1      38.966  -9.482   5.190  1.00  0.00    -0.333 N 
HETATM    8  H   UNL     1      38.235  -9.364   4.486  1.00  0.00     0.168 HD
BRANCH   7   9
HETATM    9  C   UNL     1      39.032  -8.436   6.082  1.00  0.00     0.178 C 
HETATM   10  S   UNL     1      38.213  -6.977   6.100  1.00  0.00    -0.040 SA
BRANCH   9  11
HETATM   11  N   UNL     1      39.939  -8.601   7.112  1.00  0.00    -0.302 N 
HETATM   12  C   UNL     1      39.792  -9.168   8.371  1.00  0.00     0.248 C 
HETATM   13  O   UNL     1      38.711  -9.546   8.818  1.00  0.00    -0.271 OA
HETATM   14  H   UNL     1      40.874  -8.327   6.845  1.00  0.00     0.171 HD
BRANCH  12  15
HETATM   15  C   UNL     1      41.091  -9.200   9.185  1.00  0.00     0.278 C 
BRANCH  15  16
HETATM   16  O   UNL     1      42.084  -8.316   8.660  1.00  0.00    -0.342 OA
BRANCH  16  17
HETATM   17  C   UNL     1      43.306  -8.879   8.415  1.00  0.00     0.069 A 
HETATM   18  C   UNL     1      43.296 -10.142   7.824  1.00  0.00     0.044 A 
HETATM   19  C   UNL     1      44.492 -10.776   7.456  1.00  0.00    -0.053 A 
HETATM   20  C   UNL     1      45.718 -10.139   7.730  1.00  0.00    -0.056 A 
HETATM   21  C   UNL     1      44.432 -12.096   6.734  1.00  0.00     0.049 C 
HETATM   22  C   UNL     1      47.030 -10.767   7.346  1.00  0.00     0.049 C 
HETATM   23  C   UNL     1      45.713  -8.900   8.393  1.00  0.00     0.010 A 
HETATM   24  C   UNL     1      44.514  -8.272   8.737  1.00  0.00     0.037 A 
ENDBRANCH  16  17
ENDBRANCH  15  16
ENDBRANCH  12  15
ENDBRANCH   9  11
ENDBRANCH   7   9
ENDBRANCH   1   7
BRANCH   3  25
HETATM   25  O   UNL     1      39.564 -14.159   6.393  1.00  0.00    -0.360 OA
HETATM   26  H   UNL     1      39.671 -14.960   5.854  1.00  0.00     0.217 HD
ENDBRANCH   3  25
BRANCH   4  27
HETATM   27  C   UNL     1      41.764 -14.425   4.604  1.00  0.00     0.183 A 
HETATM   28  O   UNL     1      42.641 -14.836   5.582  1.00  0.00    -0.289 OA
HETATM   29  C   UNL     1      43.095 -16.042   5.127  1.00  0.00     0.106 A 
HETATM   30  C   UNL     1      42.499 -16.284   3.904  1.00  0.00     0.094 A 
HETATM   31  C   UNL     1      43.986 -16.903   5.751  1.00  0.00     0.040 A 
HETATM   32  N   UNL     1      41.671 -15.248   3.574  1.00  0.00    -0.221 NA
HETATM   33  C   UNL     1      42.798 -17.469   3.219  1.00  0.00     0.042 A 
HETATM   34  C   UNL     1      43.696 -18.386   3.804  1.00  0.00    -0.052 A 
HETATM   35  C   UNL     1      44.272 -18.090   5.058  1.00  0.00     0.010 A 
BRANCH  34  36
HETATM   36  C   UNL     1      44.005 -19.678   3.066  1.00  0.00     0.010 C 
HETATM   37  C   UNL     1      43.953 -20.890   3.998  1.00  0.00     0.015 C 
HETATM   38  C   UNL     1      43.080 -19.870   1.862  1.00  0.00     0.015 C 
ENDBRANCH  34  36
ENDBRANCH   4  27
TORSDOF 9
ENDMDL
MODEL 4
REMARK VINA RESULT:      -9.4      1.909      3.266
REMARK  9 active torsions:
REMARK  status: ('A' for Active; 'I' for Inactive)
REMARK    1  A    between atoms: C_6  and  O_7 
REMARK    2  A    between atoms: O_7  and  C_8 
REMARK    3  A    between atoms: C_8  and  C_9 
REMARK       I    between atoms: C_9  and  N_10 
REMARK    4  A    between atoms: N_10  and  C_11 
REMARK    5  A    between atoms: C_11  and  N_12 
REMARK    6  A    between atoms: N_12  and  C_13 
REMARK    7  A    between atoms: C_15  and  O_16 
REMARK    8  A    between atoms: C_17  and  C_18 
REMARK    9  A    between atoms: C_25  and  C_26 
ROOT
HETATM    1  C   UNL     1      42.622 -10.617   4.350  1.00  0.00     0.036 A 
HETATM    2  C   UNL     1      43.228 -11.382   5.344  1.00  0.00     0.067 A 
HETATM    3  C   UNL     1      43.047 -11.074   6.697  1.00  0.00     0.082 A 
HETATM    4  C   UNL     1      42.239 -10.005   7.100  1.00  0.00     0.050 A 
HETATM    5  C   UNL     1      41.577  -9.277   6.101  1.00  0.00     0.021 A 
HETATM    6  C   UNL     1      41.764  -9.583   4.743  1.00  0.00     0.030 A 
ENDROOT
BRANCH   1   7
HETATM    7  N   UNL     1      42.791 -10.821   2.961  1.00  0.00    -0.333 N 
HETATM    8  H   UNL     1      43.675 -10.476   2.583  1.00  0.00     0.168 HD
BRANCH   7   9
HETATM    9  C   UNL     1      42.030 -11.492   2.031  1.00  0.00     0.178 C 
HETATM   10  S   UNL     1      41.046 -10.904   0.812  1.00  0.00    -0.040 SA
BRANCH   9  11
HETATM   11  N   UNL     1      42.057 -12.870   2.135  1.00  0.00    -0.302 N 
HETATM   12  C   UNL     1      41.263 -13.742   2.869  1.00  0.00     0.248 C 
HETATM   13  O   UNL     1      40.413 -13.364   3.674  1.00  0.00    -0.271 OA
HETATM   14  H   UNL     1      42.722 -13.288   1.500  1.00  0.00     0.171 HD
BRANCH  12  15
HETATM   15  C   UNL     1      41.602 -15.220   2.642  1.00  0.00     0.278 C 
BRANCH  15  16
HETATM   16  O   UNL     1      42.997 -15.487   2.799  1.00  0.00    -0.342 OA
BRANCH  16  17
HETATM   17  C   UNL     1      43.307 -16.684   3.383  1.00  0.00     0.069 A 
HETATM   18  C   UNL     1      43.238 -17.808   2.559  1.00  0.00     0.044 A 
HETATM   19  C   UNL     1      43.613 -19.074   3.034  1.00  0.00    -0.053 A 
HETATM   20  C   UNL     1      44.022 -19.210   4.374  1.00  0.00    -0.056 A 
HETATM   21  C   UNL     1      43.615 -20.243   2.085  1.00  0.00     0.049 C 
HETATM   22  C   UNL     1      44.446 -20.541   4.933  1.00  0.00     0.049 C 
HETATM   23  C   UNL     1      44.015 -18.081   5.212  1.00  0.00     0.010 A 
HETATM   24  C   UNL     1      43.657 -16.824   4.721  1.00  0.00     0.037 A 
ENDBRANCH  16  17
ENDBRANCH  15  16
ENDBRANCH  12  15
ENDBRANCH   9  11
ENDBRANCH   7   9
ENDBRANCH   1   7
BRANCH   3  25
HETATM   25  O   UNL     1      43.657 -11.866   7.634  1.00  0.00    -0.360 OA
HETATM   26  H   UNL     1      44.281 -11.333   8.154  1.00  0.00     0.217 HD
ENDBRANCH   3  25
BRANCH   4  27
HETATM   27  C   UNL     1      42.116  -9.635   8.506  1.00  0.00     0.183 A 
HETATM   28  O   UNL     1      40.843  -9.398   8.971  1.00  0.00    -0.289 OA
HETATM   29  C   UNL     1      41.027  -9.111  10.294  1.00  0.00     0.106 A 
HETATM   30  C   UNL     1      42.384  -9.161  10.552  1.00  0.00     0.094 A 
HETATM   31  C   UNL     1      40.057  -8.821  11.242  1.00  0.00     0.040 A 
HETATM   32  N   UNL     1      43.066  -9.478   9.412  1.00  0.00    -0.221 NA
HETATM   33  C   UNL     1      42.843  -8.903  11.851  1.00  0.00     0.042 A 
HETATM   34  C   UNL     1      41.903  -8.606  12.860  1.00  0.00    -0.052 A 
HETATM   35  C   UNL     1      40.530  -8.572  12.541  1.00  0.00     0.010 A 
BRANCH  34  36
HETATM   36  C   UNL     1      42.405  -8.343  14.270  1.00  0.00     0.010 C 
HETATM   37  C   UNL     1      43.227  -7.055  14.348  1.00  0.00     0.015 C 
HETATM   38  C   UNL     1      41.253  -8.322  15.278  1.00  0.00     0.015 C 
ENDBRANCH  34  36
ENDBRANCH   4  27
TORSDOF 9
ENDMDL
MODEL 5
REMARK VINA RESULT:      -9.3      2.865      4.483
REMARK  9 active torsions:
REMARK  status: ('A' for Active; 'I' for Inactive)
REMARK    1  A    between atoms: C_6  and  O_7 
REMARK    2  A    between atoms: O_7  and  C_8 
REMARK    3  A    between atoms: C_8  and  C_9 
REMARK       I    between atoms: C_9  and  N_10 
REMARK    4  A    between atoms: N_10  and  C_11 
REMARK    5  A    between atoms: C_11  and  N_12 
REMARK    6  A    between atoms: N_12  and  C_13 
REMARK    7  A    between atoms: C_15  and  O_16 
REMARK    8  A    between atoms: C_17  and  C_18 
REMARK    9  A    between atoms: C_25  and  C_26 
ROOT
HETATM    1  C   UNL     1      40.417 -10.812   3.633  1.00  0.00     0.036 A 
HETATM    2  C   UNL     1      39.881 -11.448   4.751  1.00  0.00     0.067 A 
HETATM    3  C   UNL     1      40.298 -11.103   6.041  1.00  0.00     0.082 A 
HETATM    4  C   UNL     1      41.247 -10.098   6.257  1.00  0.00     0.050 A 
HETATM    5  C   UNL     1      41.737  -9.414   5.135  1.00  0.00     0.021 A 
HETATM    6  C   UNL     1      41.323  -9.765   3.840  1.00  0.00     0.030 A 
ENDROOT
BRANCH   1   7
HETATM    7  N   UNL     1      40.095 -11.131   2.293  1.00  0.00    -0.333 N 
HETATM    8  H   UNL     1      40.838 -10.936   1.619  1.00  0.00     0.168 HD
BRANCH   7   9
HETATM    9  C   UNL     1      39.004 -11.752   1.732  1.00  0.00     0.178 C 
HETATM   10  S   UNL     1      37.488 -11.148   1.360  1.00  0.00    -0.040 SA
BRANCH   9  11
HETATM   11  N   UNL     1      39.171 -13.097   1.459  1.00  0.00    -0.302 N 
HETATM   12  C   UNL     1      40.293 -13.811   1.062  1.00  0.00     0.248 C 
HETATM   13  O   UNL     1      41.366 -13.279   0.779  1.00  0.00    -0.271 OA
HETATM   14  H   UNL     1      38.342 -13.636   1.669  1.00  0.00     0.171 HD
BRANCH  12  15
HETATM   15  C   UNL     1      40.046 -15.319   0.928  1.00  0.00     0.278 C 
BRANCH  15  16
HETATM   16  O   UNL     1      39.819 -15.946   2.191  1.00  0.00    -0.342 OA
BRANCH  16  17
HETATM   17  C   UNL     1      40.941 -16.263   2.905  1.00  0.00     0.069 A 
HETATM   18  C   UNL     1      40.884 -16.027   4.279  1.00  0.00     0.044 A 
HETATM   19  C   UNL     1      41.949 -16.390   5.118  1.00  0.00    -0.053 A 
HETATM   20  C   UNL     1      43.105 -16.960   4.550  1.00  0.00    -0.056 A 
HETATM   21  C   UNL     1      41.808 -16.206   6.605  1.00  0.00     0.049 C 
HETATM   22  C   UNL     1      44.271 -17.379   5.402  1.00  0.00     0.049 C 
HETATM   23  C   UNL     1      43.176 -17.122   3.156  1.00  0.00     0.010 A 
HETATM   24  C   UNL     1      42.101 -16.773   2.335  1.00  0.00     0.037 A 
ENDBRANCH  16  17
ENDBRANCH  15  16
ENDBRANCH  12  15
ENDBRANCH   9  11
ENDBRANCH   7   9
ENDBRANCH   1   7
BRANCH   3  25
HETATM   25  O   UNL     1      39.730 -11.752   7.106  1.00  0.00    -0.360 OA
HETATM   26  H   UNL     1      40.232 -12.560   7.300  1.00  0.00     0.217 HD
ENDBRANCH   3  25
BRANCH   4  27
HETATM   27  C   UNL     1      41.740  -9.795   7.596  1.00  0.00     0.183 A 
HETATM   28  O   UNL     1      43.065 -10.077   7.843  1.00  0.00    -0.289 OA
HETATM   29  C   UNL     1      43.249  -9.671   9.134  1.00  0.00     0.106 A 
HETATM   30  C   UNL     1      42.039  -9.197   9.605  1.00  0.00     0.094 A 
HETATM   31  C   UNL     1      44.422  -9.704   9.875  1.00  0.00     0.040 A 
HETATM   32  N   UNL     1      41.087  -9.294   8.631  1.00  0.00    -0.221 NA
HETATM   33  C   UNL     1      41.958  -8.714  10.918  1.00  0.00     0.042 A 
HETATM   34  C   UNL     1      43.118  -8.719  11.719  1.00  0.00    -0.052 A 
HETATM   35  C   UNL     1      44.329  -9.211  11.186  1.00  0.00     0.010 A 
BRANCH  34  36
HETATM   36  C   UNL     1      43.029  -8.179  13.138  1.00  0.00     0.010 C 
HETATM   37  C   UNL     1      42.598  -6.711  13.159  1.00  0.00     0.015 C 
HETATM   38  C   UNL     1      42.105  -9.037  14.005  1.00  0.00     0.015 C 
ENDBRANCH  34  36
ENDBRANCH   4  27
TORSDOF 9
ENDMDL
MODEL 6
REMARK VINA RESULT:      -9.2      2.381      3.807
REMARK  9 active torsions:
REMARK  status: ('A' for Active; 'I' for Inactive)
REMARK    1  A    between atoms: C_6  and  O_7 
REMARK    2  A    between atoms: O_7  and  C_8 
REMARK    3  A    between atoms: C_8  and  C_9 
REMARK       I    between atoms: C_9  and  N_10 
REMARK    4  A    between atoms: N_10  and  C_11 
REMARK    5  A    between atoms: C_11  and  N_12 
REMARK    6  A    between atoms: N_12  and  C_13 
REMARK    7  A    between atoms: C_15  and  O_16 
REMARK    8  A    between atoms: C_17  and  C_18 
REMARK    9  A    between atoms: C_25  and  C_26 
ROOT
HETATM    1  C   UNL     1      42.640  -9.519  10.952  1.00  0.00     0.036 A 
HETATM    2  C   UNL     1      41.342  -9.502  11.460  1.00  0.00     0.067 A 
HETATM    3  C   UNL     1      41.054  -8.863  12.671  1.00  0.00     0.082 A 
HETATM    4  C   UNL     1      42.049  -8.203  13.403  1.00  0.00     0.050 A 
HETATM    5  C   UNL     1      43.340  -8.165  12.857  1.00  0.00     0.021 A 
HETATM    6  C   UNL     1      43.629  -8.812  11.646  1.00  0.00     0.030 A 
ENDROOT
BRANCH   1   7
HETATM    7  N   UNL     1      43.032 -10.183   9.767  1.00  0.00    -0.333 N 
HETATM    8  H   UNL     1      43.451 -11.104   9.913  1.00  0.00     0.168 HD
BRANCH   7   9
HETATM    9  C   UNL     1      42.864  -9.869   8.439  1.00  0.00     0.178 C 
HETATM   10  S   UNL     1      42.540  -8.400   7.707  1.00  0.00    -0.040 SA
BRANCH   9  11
HETATM   11  N   UNL     1      42.947 -10.940   7.568  1.00  0.00    -0.302 N 
HETATM   12  C   UNL     1      43.986 -11.825   7.311  1.00  0.00     0.248 C 
HETATM   13  O   UNL     1      45.110 -11.703   7.796  1.00  0.00    -0.271 OA
HETATM   14  H   UNL     1      42.063 -11.136   7.118  1.00  0.00     0.171 HD
BRANCH  12  15
HETATM   15  C   UNL     1      43.624 -12.919   6.300  1.00  0.00     0.278 C 
BRANCH  15  16
HETATM   16  O   UNL     1      43.588 -14.218   6.895  1.00  0.00    -0.342 OA
BRANCH  16  17
HETATM   17  C   UNL     1      43.614 -15.269   6.021  1.00  0.00     0.069 A 
HETATM   18  C   UNL     1      42.822 -15.141   4.878  1.00  0.00     0.044 A 
HETATM   19  C   UNL     1      42.836 -16.124   3.877  1.00  0.00    -0.053 A 
HETATM   20  C   UNL     1      43.631 -17.273   4.056  1.00  0.00    -0.056 A 
HETATM   21  C   UNL     1      42.041 -15.901   2.618  1.00  0.00     0.049 C 
HETATM   22  C   UNL     1      43.693 -18.352   3.010  1.00  0.00     0.049 C 
HETATM   23  C   UNL     1      44.364 -17.421   5.246  1.00  0.00     0.010 A 
HETATM   24  C   UNL     1      44.355 -16.426   6.225  1.00  0.00     0.037 A 
ENDBRANCH  16  17
ENDBRANCH  15  16
ENDBRANCH  12  15
ENDBRANCH   9  11
ENDBRANCH   7   9
ENDBRANCH   1   7
BRANCH   3  25
HETATM   25  O   UNL     1      39.759  -8.866  13.120  1.00  0.00    -0.360 OA
HETATM   26  H   UNL     1      39.604  -9.659  13.660  1.00  0.00     0.217 HD
ENDBRANCH   3  25
BRANCH   4  27
HETATM   27  C   UNL     1      41.764  -7.607  14.704  1.00  0.00     0.183 A 
HETATM   28  O   UNL     1      41.093  -8.398  15.609  1.00  0.00    -0.289 OA
HETATM   29  C   UNL     1      40.996  -7.609  16.721  1.00  0.00     0.106 A 
HETATM   30  C   UNL     1      41.580  -6.391  16.427  1.00  0.00     0.094 A 
HETATM   31  C   UNL     1      40.428  -7.934  17.944  1.00  0.00     0.040 A 
HETATM   32  N   UNL     1      42.049  -6.394  15.144  1.00  0.00    -0.221 NA
HETATM   33  C   UNL     1      41.613  -5.394  17.411  1.00  0.00     0.042 A 
HETATM   34  C   UNL     1      41.054  -5.666  18.677  1.00  0.00    -0.052 A 
HETATM   35  C   UNL     1      40.474  -6.928  18.923  1.00  0.00     0.010 A 
BRANCH  34  36
HETATM   36  C   UNL     1      41.107  -4.587  19.746  1.00  0.00     0.010 C 
HETATM   37  C   UNL     1      40.477  -5.059  21.059  1.00  0.00     0.015 C 
HETATM   38  C   UNL     1      42.537  -4.089  19.969  1.00  0.00     0.015 C 
ENDBRANCH  34  36
ENDBRANCH   4  27
TORSDOF 9
ENDMDL
MODEL 7
REMARK VINA RESULT:      -9.0      3.200     10.573
REMARK  9 active torsions:
REMARK  status: ('A' for Active; 'I' for Inactive)
REMARK    1  A    between atoms: C_6  and  O_7 
REMARK    2  A    between atoms: O_7  and  C_8 
REMARK    3  A    between atoms: C_8  and  C_9 
REMARK       I    between atoms: C_9  and  N_10 
REMARK    4  A    between atoms: N_10  and  C_11 
REMARK    5  A    between atoms: C_11  and  N_12 
REMARK    6  A    between atoms: N_12  and  C_13 
REMARK    7  A    between atoms: C_15  and  O_16 
REMARK    8  A    between atoms: C_17  and  C_18 
REMARK    9  A    between atoms: C_25  and  C_26 
ROOT
HETATM    1  C   UNL     1      41.285  -9.488   5.780  1.00  0.00     0.036 A 
HETATM    2  C   UNL     1      42.083  -9.706   4.659  1.00  0.00     0.067 A 
HETATM    3  C   UNL     1      42.330 -11.002   4.195  1.00  0.00     0.082 A 
HETATM    4  C   UNL     1      41.771 -12.121   4.823  1.00  0.00     0.050 A 
HETATM    5  C   UNL     1      40.915 -11.897   5.911  1.00  0.00     0.021 A 
HETATM    6  C   UNL     1      40.673 -10.595   6.380  1.00  0.00     0.030 A 
ENDROOT
BRANCH   1   7
HETATM    7  N   UNL     1      41.025  -8.221   6.350  1.00  0.00    -0.333 N 
HETATM    8  H   UNL     1      41.427  -7.433   5.839  1.00  0.00     0.168 HD
BRANCH   7   9
HETATM    9  C   UNL     1      40.244  -7.833   7.415  1.00  0.00     0.178 C 
HETATM   10  S   UNL     1      38.747  -7.086   7.443  1.00  0.00    -0.040 SA
BRANCH   9  11
HETATM   11  N   UNL     1      40.793  -8.070   8.661  1.00  0.00    -0.302 N 
HETATM   12  C   UNL     1      40.459  -8.996   9.641  1.00  0.00     0.248 C 
HETATM   13  O   UNL     1      39.478  -9.733   9.565  1.00  0.00    -0.271 OA
HETATM   14  H   UNL     1      41.623  -7.517   8.824  1.00  0.00     0.171 HD
BRANCH  12  15
HETATM   15  C   UNL     1      41.383  -8.955  10.864  1.00  0.00     0.278 C 
BRANCH  15  16
HETATM   16  O   UNL     1      42.235 -10.099  10.941  1.00  0.00    -0.342 OA
BRANCH  16  17
HETATM   17  C   UNL     1      43.404 -10.013  10.236  1.00  0.00     0.069 A 
HETATM   18  C   UNL     1      43.495 -10.809   9.094  1.00  0.00     0.044 A 
HETATM   19  C   UNL     1      44.617 -10.739   8.253  1.00  0.00    -0.053 A 
HETATM   20  C   UNL     1      45.679  -9.881   8.599  1.00  0.00    -0.056 A 
HETATM   21  C   UNL     1      44.632 -11.543   6.981  1.00  0.00     0.049 C 
HETATM   22  C   UNL     1      46.900  -9.757   7.729  1.00  0.00     0.049 C 
HETATM   23  C   UNL     1      45.604  -9.142   9.792  1.00  0.00     0.010 A 
HETATM   24  C   UNL     1      44.474  -9.208  10.609  1.00  0.00     0.037 A 
ENDBRANCH  16  17
ENDBRANCH  15  16
ENDBRANCH  12  15
ENDBRANCH   9  11
ENDBRANCH   7   9
ENDBRANCH   1   7
BRANCH   3  25
HETATM   25  O   UNL     1      43.113 -11.159   3.081  1.00  0.00    -0.360 OA
HETATM   26  H   UNL     1      43.925 -10.636   3.179  1.00  0.00     0.217 HD
ENDBRANCH   3  25
BRANCH   4  27
HETATM   27  C   UNL     1      42.094 -13.476   4.388  1.00  0.00     0.183 A 
HETATM   28  O   UNL     1      41.396 -13.957   3.304  1.00  0.00    -0.289 OA
HETATM   29  C   UNL     1      41.918 -15.204   3.108  1.00  0.00     0.106 A 
HETATM   30  C   UNL     1      42.871 -15.422   4.085  1.00  0.00     0.094 A 
HETATM   31  C   UNL     1      41.585 -16.117   2.118  1.00  0.00     0.040 A 
HETATM   32  N   UNL     1      42.965 -14.329   4.899  1.00  0.00    -0.221 NA
HETATM   33  C   UNL     1      43.564 -16.640   4.105  1.00  0.00     0.042 A 
HETATM   34  C   UNL     1      43.272 -17.607   3.121  1.00  0.00    -0.052 A 
HETATM   35  C   UNL     1      42.291 -17.331   2.145  1.00  0.00     0.010 A 
BRANCH  34  36
HETATM   36  C   UNL     1      44.037 -18.921   3.138  1.00  0.00     0.010 C 
HETATM   37  C   UNL     1      44.159 -19.487   4.555  1.00  0.00     0.015 C 
HETATM   38  C   UNL     1      43.410 -19.945   2.189  1.00  0.00     0.015 C 
ENDBRANCH  34  36
ENDBRANCH   4  27
TORSDOF 9
ENDMDL
MODEL 8
REMARK VINA RESULT:      -9.0      1.780      2.359
REMARK  9 active torsions:
REMARK  status: ('A' for Active; 'I' for Inactive)
REMARK    1  A    between atoms: C_6  and  O_7 
REMARK    2  A    between atoms: O_7  and  C_8 
REMARK    3  A    between atoms: C_8  and  C_9 
REMARK       I    between atoms: C_9  and  N_10 
REMARK    4  A    between atoms: N_10  and  C_11 
REMARK    5  A    between atoms: C_11  and  N_12 
REMARK    6  A    between atoms: N_12  and  C_13 
REMARK    7  A    between atoms: C_15  and  O_16 
REMARK    8  A    between atoms: C_17  and  C_18 
REMARK    9  A    between atoms: C_25  and  C_26 
ROOT
HETATM    1  C   UNL     1      40.826 -10.396   5.322  1.00  0.00     0.036 A 
HETATM    2  C   UNL     1      39.767  -9.862   6.052  1.00  0.00     0.067 A 
HETATM    3  C   UNL     1      39.947  -9.441   7.374  1.00  0.00     0.082 A 
HETATM    4  C   UNL     1      41.195  -9.521   8.002  1.00  0.00     0.050 A 
HETATM    5  C   UNL     1      42.275  -9.998   7.245  1.00  0.00     0.021 A 
HETATM    6  C   UNL     1      42.092 -10.426   5.920  1.00  0.00     0.030 A 
ENDROOT
BRANCH   1   7
HETATM    7  N   UNL     1      40.725 -10.894   4.003  1.00  0.00    -0.333 N 
HETATM    8  H   UNL     1      41.167 -10.310   3.291  1.00  0.00     0.168 HD
BRANCH   7   9
HETATM    9  C   UNL     1      40.229 -12.076   3.501  1.00  0.00     0.178 C 
HETATM   10  S   UNL     1      39.101 -12.350   2.296  1.00  0.00    -0.040 SA
BRANCH   9  11
HETATM   11  N   UNL     1      40.716 -13.219   4.106  1.00  0.00    -0.302 N 
HETATM   12  C   UNL     1      42.013 -13.697   4.238  1.00  0.00     0.248 C 
HETATM   13  O   UNL     1      42.984 -13.168   3.699  1.00  0.00    -0.271 OA
HETATM   14  H   UNL     1      39.993 -13.730   4.594  1.00  0.00     0.171 HD
BRANCH  12  15
HETATM   15  C   UNL     1      42.110 -14.995   5.050  1.00  0.00     0.278 C 
BRANCH  15  16
HETATM   16  O   UNL     1      43.407 -15.589   4.970  1.00  0.00    -0.342 OA
BRANCH  16  17
HETATM   17  C   UNL     1      43.493 -16.719   4.205  1.00  0.00     0.069 A 
HETATM   18  C   UNL     1      43.943 -17.870   4.854  1.00  0.00     0.044 A 
HETATM   19  C   UNL     1      43.993 -19.102   4.186  1.00  0.00    -0.053 A 
HETATM   20  C   UNL     1      43.622 -19.160   2.828  1.00  0.00    -0.056 A 
HETATM   21  C   UNL     1      44.392 -20.336   4.949  1.00  0.00     0.049 C 
HETATM   22  C   UNL     1      43.645 -20.457   2.065  1.00  0.00     0.049 C 
HETATM   23  C   UNL     1      43.243 -17.979   2.169  1.00  0.00     0.010 A 
HETATM   24  C   UNL     1      43.181 -16.762   2.852  1.00  0.00     0.037 A 
ENDBRANCH  16  17
ENDBRANCH  15  16
ENDBRANCH  12  15
ENDBRANCH   9  11
ENDBRANCH   7   9
ENDBRANCH   1   7
BRANCH   3  25
HETATM   25  O   UNL     1      38.874  -8.912   8.043  1.00  0.00    -0.360 OA
HETATM   26  H   UNL     1      39.170  -8.543   8.892  1.00  0.00     0.217 HD
ENDBRANCH   3  25
BRANCH   4  27
HETATM   27  C   UNL     1      41.363  -9.158   9.405  1.00  0.00     0.183 A 
HETATM   28  O   UNL     1      42.656  -9.032   9.858  1.00  0.00    -0.289 OA
HETATM   29  C   UNL     1      42.510  -8.663  11.165  1.00  0.00     0.106 A 
HETATM   30  C   UNL     1      41.157  -8.612  11.441  1.00  0.00     0.094 A 
HETATM   31  C   UNL     1      43.510  -8.376  12.083  1.00  0.00     0.040 A 
HETATM   32  N   UNL     1      40.439  -8.941  10.326  1.00  0.00    -0.221 NA
HETATM   33  C   UNL     1      40.733  -8.253  12.727  1.00  0.00     0.042 A 
HETATM   34  C   UNL     1      41.704  -7.946  13.703  1.00  0.00    -0.052 A 
HETATM   35  C   UNL     1      43.073  -8.011  13.366  1.00  0.00     0.010 A 
BRANCH  34  36
HETATM   36  C   UNL     1      41.240  -7.542  15.093  1.00  0.00     0.010 C 
HETATM   37  C   UNL     1      42.370  -6.901  15.903  1.00  0.00     0.015 C 
HETATM   38  C   UNL     1      40.019  -6.621  15.029  1.00  0.00     0.015 C 
ENDBRANCH  34  36
ENDBRANCH   4  27
TORSDOF 9
ENDMDL
MODEL 9
REMARK VINA RESULT:      -8.9      3.211     11.057
REMARK  9 active torsions:
REMARK  status: ('A' for Active; 'I' for Inactive)
REMARK    1  A    between atoms: C_6  and  O_7 
REMARK    2  A    between atoms: O_7  and  C_8 
REMARK    3  A    between atoms: C_8  and  C_9 
REMARK       I    between atoms: C_9  and  N_10 
REMARK    4  A    between atoms: N_10  and  C_11 
REMARK    5  A    between atoms: C_11  and  N_12 
REMARK    6  A    between atoms: N_12  and  C_13 
REMARK    7  A    between atoms: C_15  and  O_16 
REMARK    8  A    between atoms: C_17  and  C_18 
REMARK    9  A    between atoms: C_25  and  C_26 
ROOT
HETATM    1  C   UNL     1      39.955 -10.253   6.868  1.00  0.00     0.036 A 
HETATM    2  C   UNL     1      41.316 -10.434   6.631  1.00  0.00     0.067 A 
HETATM    3  C   UNL     1      41.786 -11.588   5.995  1.00  0.00     0.082 A 
HETATM    4  C   UNL     1      40.911 -12.588   5.558  1.00  0.00     0.050 A 
HETATM    5  C   UNL     1      39.536 -12.374   5.738  1.00  0.00     0.021 A 
HETATM    6  C   UNL     1      39.066 -11.219   6.382  1.00  0.00     0.030 A 
ENDROOT
BRANCH   1   7
HETATM    7  N   UNL     1      39.397  -9.147   7.549  1.00  0.00    -0.333 N 
HETATM    8  H   UNL     1      39.069  -9.349   8.495  1.00  0.00     0.168 HD
BRANCH   7   9
HETATM    9  C   UNL     1      39.300  -7.815   7.216  1.00  0.00     0.178 C 
HETATM   10  S   UNL     1      38.438  -7.065   5.993  1.00  0.00    -0.040 SA
BRANCH   9  11
HETATM   11  N   UNL     1      40.057  -6.960   7.995  1.00  0.00    -0.302 N 
HETATM   12  C   UNL     1      40.020  -6.699   9.358  1.00  0.00     0.248 C 
HETATM   13  O   UNL     1      39.165  -7.163  10.110  1.00  0.00    -0.271 OA
HETATM   14  H   UNL     1      40.806  -6.528   7.471  1.00  0.00     0.171 HD
BRANCH  12  15
HETATM   15  C   UNL     1      41.097  -5.711   9.824  1.00  0.00     0.278 C 
BRANCH  15  16
HETATM   16  O   UNL     1      41.975  -6.282  10.796  1.00  0.00    -0.342 OA
BRANCH  16  17
HETATM   17  C   UNL     1      42.869  -7.200  10.318  1.00  0.00     0.069 A 
HETATM   18  C   UNL     1      42.995  -8.378  11.055  1.00  0.00     0.044 A 
HETATM   19  C   UNL     1      43.824  -9.420  10.612  1.00  0.00    -0.053 A 
HETATM   20  C   UNL     1      44.566  -9.249   9.428  1.00  0.00    -0.056 A 
HETATM   21  C   UNL     1      43.858 -10.710  11.387  1.00  0.00     0.049 C 
HETATM   22  C   UNL     1      45.460 -10.337   8.900  1.00  0.00     0.049 C 
HETATM   23  C   UNL     1      44.484  -8.028   8.737  1.00  0.00     0.010 A 
HETATM   24  C   UNL     1      43.642  -7.006   9.180  1.00  0.00     0.037 A 
ENDBRANCH  16  17
ENDBRANCH  15  16
ENDBRANCH  12  15
ENDBRANCH   9  11
ENDBRANCH   7   9
ENDBRANCH   1   7
BRANCH   3  25
HETATM   25  O   UNL     1      43.134 -11.710   5.776  1.00  0.00    -0.360 OA
HETATM   26  H   UNL     1      43.621 -11.290   6.503  1.00  0.00     0.217 HD
ENDBRANCH   3  25
BRANCH   4  27
HETATM   27  C   UNL     1      41.408 -13.827   4.968  1.00  0.00     0.183 A 
HETATM   28  O   UNL     1      40.778 -14.260   3.824  1.00  0.00    -0.289 OA
HETATM   29  C   UNL     1      41.458 -15.397   3.488  1.00  0.00     0.106 A 
HETATM   30  C   UNL     1      42.432 -15.605   4.446  1.00  0.00     0.094 A 
HETATM   31  C   UNL     1      41.247 -16.219   2.391  1.00  0.00     0.040 A 
HETATM   32  N   UNL     1      42.383 -14.616   5.387  1.00  0.00    -0.221 NA
HETATM   33  C   UNL     1      43.278 -16.716   4.332  1.00  0.00     0.042 A 
HETATM   34  C   UNL     1      43.114 -17.587   3.235  1.00  0.00    -0.052 A 
HETATM   35  C   UNL     1      42.106 -17.325   2.284  1.00  0.00     0.010 A 
BRANCH  34  36
HETATM   36  C   UNL     1      44.044 -18.783   3.106  1.00  0.00     0.010 C 
HETATM   37  C   UNL     1      44.405 -19.370   4.472  1.00  0.00     0.015 C 
HETATM   38  C   UNL     1      43.454 -19.854   2.185  1.00  0.00     0.015 C 
ENDBRANCH  34  36
ENDBRANCH   4  27
TORSDOF 9
ENDMDL
MODEL 10
REMARK VINA RESULT:      -8.9      1.340      2.105
REMARK  9 active torsions:
REMARK  status: ('A' for Active; 'I' for Inactive)
REMARK    1  A    between atoms: C_6  and  O_7 
REMARK    2  A    between atoms: O_7  and  C_8 
REMARK    3  A    between atoms: C_8  and  C_9 
REMARK       I    between atoms: C_9  and  N_10 
REMARK    4  A    between atoms: N_10  and  C_11 
REMARK    5  A    between atoms: C_11  and  N_12 
REMARK    6  A    between atoms: N_12  and  C_13 
REMARK    7  A    between atoms: C_15  and  O_16 
REMARK    8  A    between atoms: C_17  and  C_18 
REMARK    9  A    between atoms: C_25  and  C_26 
ROOT
HETATM    1  C   UNL     1      43.690 -10.527   7.504  1.00  0.00     0.036 A 
HETATM    2  C   UNL     1      44.223 -10.991   8.706  1.00  0.00     0.067 A 
HETATM    3  C   UNL     1      43.783 -10.477   9.931  1.00  0.00     0.082 A 
HETATM    4  C   UNL     1      42.783  -9.501   9.996  1.00  0.00     0.050 A 
HETATM    5  C   UNL     1      42.201  -9.084   8.790  1.00  0.00     0.021 A 
HETATM    6  C   UNL     1      42.647  -9.595   7.561  1.00  0.00     0.030 A 
ENDROOT
BRANCH   1   7
HETATM    7  N   UNL     1      44.109 -10.948   6.222  1.00  0.00    -0.333 N 
HETATM    8  H   UNL     1      45.068 -10.691   5.981  1.00  0.00     0.168 HD
BRANCH   7   9
HETATM    9  C   UNL     1      43.503 -11.732   5.267  1.00  0.00     0.178 C 
HETATM   10  S   UNL     1      43.614 -11.684   3.598  1.00  0.00    -0.040 SA
BRANCH   9  11
HETATM   11  N   UNL     1      42.642 -12.695   5.759  1.00  0.00    -0.302 N 
HETATM   12  C   UNL     1      41.255 -12.737   5.801  1.00  0.00     0.248 C 
HETATM   13  O   UNL     1      40.541 -11.794   5.463  1.00  0.00    -0.271 OA
HETATM   14  H   UNL     1      43.130 -13.527   6.058  1.00  0.00     0.171 HD
BRANCH  12  15
HETATM   15  C   UNL     1      40.698 -14.041   6.387  1.00  0.00     0.278 C 
BRANCH  15  16
HETATM   16  O   UNL     1      40.431 -15.018   5.380  1.00  0.00    -0.342 OA
BRANCH  16  17
HETATM   17  C   UNL     1      41.410 -15.953   5.189  1.00  0.00     0.069 A 
HETATM   18  C   UNL     1      41.728 -16.251   3.863  1.00  0.00     0.044 A 
HETATM   19  C   UNL     1      42.772 -17.135   3.552  1.00  0.00    -0.053 A 
HETATM   20  C   UNL     1      43.477 -17.758   4.600  1.00  0.00    -0.056 A 
HETATM   21  C   UNL     1      43.144 -17.354   2.110  1.00  0.00     0.049 C 
HETATM   22  C   UNL     1      44.613 -18.704   4.326  1.00  0.00     0.049 C 
HETATM   23  C   UNL     1      43.096 -17.504   5.929  1.00  0.00     0.010 A 
HETATM   24  C   UNL     1      42.066 -16.608   6.224  1.00  0.00     0.037 A 
ENDBRANCH  16  17
ENDBRANCH  15  16
ENDBRANCH  12  15
ENDBRANCH   9  11
ENDBRANCH   7   9
ENDBRANCH   1   7
BRANCH   3  25
HETATM   25  O   UNL     1      44.333 -10.976  11.083  1.00  0.00    -0.360 OA
HETATM   26  H   UNL     1      44.615 -11.894  10.937  1.00  0.00     0.217 HD
ENDBRANCH   3  25
BRANCH   4  27
HETATM   27  C   UNL     1      42.382  -8.909  11.268  1.00  0.00     0.183 A 
HETATM   28  O   UNL     1      43.387  -8.371  12.040  1.00  0.00    -0.289 OA
HETATM   29  C   UNL     1      42.730  -7.873  13.129  1.00  0.00     0.106 A 
HETATM   30  C   UNL     1      41.385  -8.155  12.977  1.00  0.00     0.094 A 
HETATM   31  C   UNL     1      43.273  -7.196  14.212  1.00  0.00     0.040 A 
HETATM   32  N   UNL     1      41.177  -8.824  11.805  1.00  0.00    -0.221 NA
HETATM   33  C   UNL     1      40.484  -7.745  13.969  1.00  0.00     0.042 A 
HETATM   34  C   UNL     1      40.977  -7.049  15.092  1.00  0.00    -0.052 A 
HETATM   35  C   UNL     1      42.359  -6.785  15.194  1.00  0.00     0.010 A 
BRANCH  34  36
HETATM   36  C   UNL     1      39.993  -6.592  16.157  1.00  0.00     0.010 C 
HETATM   37  C   UNL     1      40.635  -5.605  17.135  1.00  0.00     0.015 C 
HETATM   38  C   UNL     1      38.726  -6.002  15.533  1.00  0.00     0.015 C 
ENDBRANCH  34  36
ENDBRANCH   4  27
TORSDOF 9
ENDMDL
