MODEL 1
REMARK VINA RESULT:      -7.9      0.000      0.000
REMARK  3 active torsions:
REMARK  status: ('A' for Active; 'I' for Inactive)
REMARK    1  A    between atoms: C_10  and  C_11 
REMARK    2  A    between atoms: C_11  and  C_12 
REMARK    3  A    between atoms: C_13  and  O_14 
ROOT
HETATM    1  C   UNL     1      40.825 -15.911   2.905  1.00  0.00     0.196 C 
HETATM    2  O   UNL     1      39.797 -16.036   3.567  1.00  0.00    -0.286 OA
ENDROOT
BRANCH   1   3
HETATM    3  C   UNL     1      40.826 -14.991   1.750  1.00  0.00     0.034 A 
HETATM    4  C   UNL     1      41.515 -13.783   1.866  1.00  0.00     0.134 A 
HETATM    5  N   UNL     1      41.611 -12.831   0.902  1.00  0.00    -0.240 NA
HETATM    6  C   UNL     1      40.932 -13.159  -0.215  1.00  0.00     0.155 A 
HETATM    7  N   UNL     1      40.830 -12.407  -1.349  1.00  0.00    -0.260 N 
HETATM    8  C   UNL     1      40.192 -14.306  -0.452  1.00  0.00     0.038 A 
HETATM    9  N   UNL     1      40.085 -12.980  -2.316  1.00  0.00    -0.177 NA
HETATM   10  H   UNL     1      41.248 -11.500  -1.516  1.00  0.00     0.191 HD
HETATM   11  C   UNL     1      39.687 -14.138  -1.768  1.00  0.00     0.065 A 
HETATM   12  C   UNL     1      38.824 -15.071  -2.536  1.00  0.00     0.073 C 
HETATM   13  C   UNL     1      40.121 -15.266   0.571  1.00  0.00     0.034 A 
ENDBRANCH   1   3
BRANCH   1  14
HETATM   14  C   UNL     1      42.009 -16.718   3.293  1.00  0.00     0.051 A 
HETATM   15  C   UNL     1      42.790 -16.317   4.392  1.00  0.00     0.101 A 
HETATM   16  C   UNL     1      43.898 -17.082   4.777  1.00  0.00     0.069 A 
HETATM   17 CL   UNL     1      44.870 -16.642   6.135  1.00  0.00    -0.081 Cl
HETATM   18  C   UNL     1      44.248 -18.226   4.059  1.00  0.00     0.050 A 
HETATM   19  C   UNL     1      43.494 -18.597   2.949  1.00  0.00     0.036 A 
HETATM   20 CL   UNL     1      43.932 -19.996   2.050  1.00  0.00    -0.084 Cl
HETATM   21  C   UNL     1      42.383 -17.849   2.556  1.00  0.00     0.042 A 
BRANCH  15  22
HETATM   22  O   UNL     1      42.490 -15.186   5.109  1.00  0.00    -0.358 OA
HETATM   23  H   UNL     1      41.995 -14.565   4.529  1.00  0.00     0.218 HD
ENDBRANCH  15  22
ENDBRANCH   1  14
TORSDOF 3
ENDMDL
MODEL 2
REMARK VINA RESULT:      -7.7      4.535      6.775
REMARK  3 active torsions:
REMARK  status: ('A' for Active; 'I' for Inactive)
REMARK    1  A    between atoms: C_10  and  C_11 
REMARK    2  A    between atoms: C_11  and  C_12 
REMARK    3  A    between atoms: C_13  and  O_14 
ROOT
HETATM    1  C   UNL     1      43.029 -14.814   2.554  1.00  0.00     0.196 C 
HETATM    2  O   UNL     1      43.903 -14.304   1.856  1.00  0.00    -0.286 OA
ENDROOT
BRANCH   1   3
HETATM    3  C   UNL     1      43.296 -16.114   3.202  1.00  0.00     0.034 A 
HETATM    4  C   UNL     1      43.582 -16.126   4.568  1.00  0.00     0.134 A 
HETATM    5  N   UNL     1      43.852 -17.231   5.309  1.00  0.00    -0.240 NA
HETATM    6  C   UNL     1      43.844 -18.359   4.575  1.00  0.00     0.155 A 
HETATM    7  N   UNL     1      44.087 -19.623   5.030  1.00  0.00    -0.260 N 
HETATM    8  C   UNL     1      43.602 -18.486   3.216  1.00  0.00     0.038 A 
HETATM    9  N   UNL     1      44.015 -20.569   4.073  1.00  0.00    -0.177 NA
HETATM   10  H   UNL     1      44.307 -19.894   5.980  1.00  0.00     0.191 HD
HETATM   11  C   UNL     1      43.725 -19.877   2.960  1.00  0.00     0.065 A 
HETATM   12  C   UNL     1      43.564 -20.579   1.663  1.00  0.00     0.073 C 
HETATM   13  C   UNL     1      43.324 -17.318   2.487  1.00  0.00     0.034 A 
ENDBRANCH   1   3
BRANCH   1  14
HETATM   14  C   UNL     1      41.732 -14.102   2.683  1.00  0.00     0.051 A 
HETATM   15  C   UNL     1      41.045 -13.702   1.523  1.00  0.00     0.101 A 
HETATM   16  C   UNL     1      39.812 -13.046   1.634  1.00  0.00     0.069 A 
HETATM   17 CL   UNL     1      38.921 -12.558   0.238  1.00  0.00    -0.081 Cl
HETATM   18  C   UNL     1      39.276 -12.762   2.890  1.00  0.00     0.050 A 
HETATM   19  C   UNL     1      39.979 -13.127   4.035  1.00  0.00     0.036 A 
HETATM   20 CL   UNL     1      39.330 -12.764   5.586  1.00  0.00    -0.084 Cl
HETATM   21  C   UNL     1      41.206 -13.787   3.942  1.00  0.00     0.042 A 
BRANCH  15  22
HETATM   22  O   UNL     1      41.552 -13.942   0.271  1.00  0.00    -0.358 OA
HETATM   23  H   UNL     1      41.929 -13.107  -0.084  1.00  0.00     0.218 HD
ENDBRANCH  15  22
ENDBRANCH   1  14
TORSDOF 3
ENDMDL
MODEL 3
REMARK VINA RESULT:      -7.5      5.089      6.716
REMARK  3 active torsions:
REMARK  status: ('A' for Active; 'I' for Inactive)
REMARK    1  A    between atoms: C_10  and  C_11 
REMARK    2  A    between atoms: C_11  and  C_12 
REMARK    3  A    between atoms: C_13  and  O_14 
ROOT
HETATM    1  C   UNL     1      42.911 -14.997   3.286  1.00  0.00     0.196 C 
HETATM    2  O   UNL     1      42.908 -14.757   2.081  1.00  0.00    -0.286 OA
ENDROOT
BRANCH   1   3
HETATM    3  C   UNL     1      43.270 -16.353   3.747  1.00  0.00     0.034 A 
HETATM    4  C   UNL     1      43.665 -16.519   5.074  1.00  0.00     0.134 A 
HETATM    5  N   UNL     1      44.027 -17.694   5.651  1.00  0.00    -0.240 NA
HETATM    6  C   UNL     1      43.995 -18.725   4.785  1.00  0.00     0.155 A 
HETATM    7  N   UNL     1      44.312 -20.023   5.060  1.00  0.00    -0.260 N 
HETATM    8  C   UNL     1      43.648 -18.695   3.443  1.00  0.00     0.038 A 
HETATM    9  N   UNL     1      44.192 -20.849   4.001  1.00  0.00    -0.177 NA
HETATM   10  H   UNL     1      44.616 -20.399   5.950  1.00  0.00     0.191 HD
HETATM   11  C   UNL     1      43.793 -20.039   3.008  1.00  0.00     0.065 A 
HETATM   12  C   UNL     1      43.550 -20.585   1.649  1.00  0.00     0.073 C 
HETATM   13  C   UNL     1      43.277 -17.460   2.887  1.00  0.00     0.034 A 
ENDBRANCH   1   3
BRANCH   1  14
HETATM   14  C   UNL     1      42.524 -13.907   4.218  1.00  0.00     0.051 A 
HETATM   15  C   UNL     1      41.163 -13.666   4.472  1.00  0.00     0.101 A 
HETATM   16  C   UNL     1      40.788 -12.653   5.363  1.00  0.00     0.069 A 
HETATM   17 CL   UNL     1      39.129 -12.338   5.726  1.00  0.00    -0.081 Cl
HETATM   18  C   UNL     1      41.758 -11.862   5.979  1.00  0.00     0.050 A 
HETATM   19  C   UNL     1      43.103 -12.080   5.694  1.00  0.00     0.036 A 
HETATM   20 CL   UNL     1      44.303 -11.096   6.437  1.00  0.00    -0.084 Cl
HETATM   21  C   UNL     1      43.494 -13.090   4.813  1.00  0.00     0.042 A 
BRANCH  15  22
HETATM   22  O   UNL     1      40.179 -14.408   3.868  1.00  0.00    -0.358 OA
HETATM   23  H   UNL     1      39.303 -14.049   4.135  1.00  0.00     0.218 HD
ENDBRANCH  15  22
ENDBRANCH   1  14
TORSDOF 3
ENDMDL
MODEL 4
REMARK VINA RESULT:      -7.4      4.011      6.283
REMARK  3 active torsions:
REMARK  status: ('A' for Active; 'I' for Inactive)
REMARK    1  A    between atoms: C_10  and  C_11 
REMARK    2  A    between atoms: C_11  and  C_12 
REMARK    3  A    between atoms: C_13  and  O_14 
ROOT
HETATM    1  C   UNL     1      40.515 -14.421   2.567  1.00  0.00     0.196 C 
HETATM    2  O   UNL     1      39.707 -13.916   3.343  1.00  0.00    -0.286 OA
ENDROOT
BRANCH   1   3
HETATM    3  C   UNL     1      41.557 -15.321   3.103  1.00  0.00     0.034 A 
HETATM    4  C   UNL     1      42.333 -14.872   4.171  1.00  0.00     0.134 A 
HETATM    5  N   UNL     1      43.329 -15.571   4.775  1.00  0.00    -0.240 NA
HETATM    6  C   UNL     1      43.525 -16.778   4.211  1.00  0.00     0.155 A 
HETATM    7  N   UNL     1      44.455 -17.704   4.586  1.00  0.00    -0.260 N 
HETATM    8  C   UNL     1      42.847 -17.334   3.138  1.00  0.00     0.038 A 
HETATM    9  N   UNL     1      44.431 -18.830   3.843  1.00  0.00    -0.177 NA
HETATM   10  H   UNL     1      45.127 -17.620   5.337  1.00  0.00     0.191 HD
HETATM   11  C   UNL     1      43.454 -18.604   2.952  1.00  0.00     0.065 A 
HETATM   12  C   UNL     1      43.117 -19.631   1.935  1.00  0.00     0.073 C 
HETATM   13  C   UNL     1      41.822 -16.578   2.545  1.00  0.00     0.034 A 
ENDBRANCH   1   3
BRANCH   1  14
HETATM   14  C   UNL     1      40.413 -14.075   1.127  1.00  0.00     0.051 A 
HETATM   15  C   UNL     1      40.939 -12.852   0.672  1.00  0.00     0.101 A 
HETATM   16  C   UNL     1      40.865 -12.524  -0.688  1.00  0.00     0.069 A 
HETATM   17 CL   UNL     1      41.519 -11.046  -1.296  1.00  0.00    -0.081 Cl
HETATM   18  C   UNL     1      40.248 -13.392  -1.589  1.00  0.00     0.050 A 
HETATM   19  C   UNL     1      39.696 -14.583  -1.126  1.00  0.00     0.036 A 
HETATM   20 CL   UNL     1      38.919 -15.648  -2.231  1.00  0.00    -0.084 Cl
HETATM   21  C   UNL     1      39.767 -14.928   0.224  1.00  0.00     0.042 A 
BRANCH  15  22
HETATM   22  O   UNL     1      41.533 -11.963   1.532  1.00  0.00    -0.358 OA
HETATM   23  H   UNL     1      42.293 -11.540   1.074  1.00  0.00     0.218 HD
ENDBRANCH  15  22
ENDBRANCH   1  14
TORSDOF 3
ENDMDL
MODEL 5
REMARK VINA RESULT:      -7.3      4.148      6.537
REMARK  3 active torsions:
REMARK  status: ('A' for Active; 'I' for Inactive)
REMARK    1  A    between atoms: C_10  and  C_11 
REMARK    2  A    between atoms: C_11  and  C_12 
REMARK    3  A    between atoms: C_13  and  O_14 
ROOT
HETATM    1  C   UNL     1      40.386 -15.402   1.441  1.00  0.00     0.196 C 
HETATM    2  O   UNL     1      39.568 -16.188   0.967  1.00  0.00    -0.286 OA
ENDROOT
BRANCH   1   3
HETATM    3  C   UNL     1      41.448 -15.920   2.327  1.00  0.00     0.034 A 
HETATM    4  C   UNL     1      41.968 -15.071   3.304  1.00  0.00     0.134 A 
HETATM    5  N   UNL     1      42.944 -15.391   4.192  1.00  0.00    -0.240 NA
HETATM    6  C   UNL     1      43.403 -16.645   4.023  1.00  0.00     0.155 A 
HETATM    7  N   UNL     1      44.386 -17.252   4.751  1.00  0.00    -0.260 N 
HETATM    8  C   UNL     1      42.996 -17.579   3.083  1.00  0.00     0.038 A 
HETATM    9  N   UNL     1      44.647 -18.517   4.363  1.00  0.00    -0.177 NA
HETATM   10  H   UNL     1      44.908 -16.851   5.519  1.00  0.00     0.191 HD
HETATM   11  C   UNL     1      43.804 -18.718   3.339  1.00  0.00     0.065 A 
HETATM   12  C   UNL     1      43.790 -20.020   2.626  1.00  0.00     0.073 C 
HETATM   13  C   UNL     1      41.981 -17.208   2.186  1.00  0.00     0.034 A 
ENDBRANCH   1   3
BRANCH   1  14
HETATM   14  C   UNL     1      40.242 -13.960   1.115  1.00  0.00     0.051 A 
HETATM   15  C   UNL     1      39.407 -13.152   1.907  1.00  0.00     0.101 A 
HETATM   16  C   UNL     1      39.280 -11.787   1.619  1.00  0.00     0.069 A 
HETATM   17 CL   UNL     1      38.286 -10.752   2.579  1.00  0.00    -0.081 Cl
HETATM   18  C   UNL     1      39.955 -11.231   0.532  1.00  0.00     0.050 A 
HETATM   19  C   UNL     1      40.750 -12.044  -0.271  1.00  0.00     0.036 A 
HETATM   20 CL   UNL     1      41.571 -11.366  -1.622  1.00  0.00    -0.084 Cl
HETATM   21  C   UNL     1      40.893 -13.404   0.006  1.00  0.00     0.042 A 
BRANCH  15  22
HETATM   22  O   UNL     1      38.709 -13.668   2.970  1.00  0.00    -0.358 OA
HETATM   23  H   UNL     1      37.904 -13.123   3.114  1.00  0.00     0.218 HD
ENDBRANCH  15  22
ENDBRANCH   1  14
TORSDOF 3
ENDMDL
MODEL 6
REMARK VINA RESULT:      -7.3      3.942      6.659
REMARK  3 active torsions:
REMARK  status: ('A' for Active; 'I' for Inactive)
REMARK    1  A    between atoms: C_10  and  C_11 
REMARK    2  A    between atoms: C_11  and  C_12 
REMARK    3  A    between atoms: C_13  and  O_14 
ROOT
HETATM    1  C   UNL     1      40.112 -15.254   2.172  1.00  0.00     0.196 C 
HETATM    2  O   UNL     1      39.008 -15.391   2.693  1.00  0.00    -0.286 OA
ENDROOT
BRANCH   1   3
HETATM    3  C   UNL     1      41.285 -15.898   2.798  1.00  0.00     0.034 A 
HETATM    4  C   UNL     1      41.961 -15.207   3.803  1.00  0.00     0.134 A 
HETATM    5  N   UNL     1      43.053 -15.655   4.475  1.00  0.00    -0.240 NA
HETATM    6  C   UNL     1      43.459 -16.866   4.049  1.00  0.00     0.155 A 
HETATM    7  N   UNL     1      44.527 -17.573   4.519  1.00  0.00    -0.260 N 
HETATM    8  C   UNL     1      42.898 -17.646   3.049  1.00  0.00     0.038 A 
HETATM    9  N   UNL     1      44.704 -18.762   3.907  1.00  0.00    -0.177 NA
HETATM   10  H   UNL     1      45.166 -17.292   5.251  1.00  0.00     0.191 HD
HETATM   11  C   UNL     1      43.714 -18.807   3.004  1.00  0.00     0.065 A 
HETATM   12  C   UNL     1      43.569 -19.983   2.110  1.00  0.00     0.073 C 
HETATM   13  C   UNL     1      41.767 -17.146   2.382  1.00  0.00     0.034 A 
ENDBRANCH   1   3
BRANCH   1  14
HETATM   14  C   UNL     1      40.210 -14.421   0.947  1.00  0.00     0.051 A 
HETATM   15  C   UNL     1      39.691 -14.911  -0.265  1.00  0.00     0.101 A 
HETATM   16  C   UNL     1      39.761 -14.124  -1.422  1.00  0.00     0.069 A 
HETATM   17 CL   UNL     1      39.116 -14.674  -2.927  1.00  0.00    -0.081 Cl
HETATM   18  C   UNL     1      40.368 -12.869  -1.384  1.00  0.00     0.050 A 
HETATM   19  C   UNL     1      40.913 -12.405  -0.191  1.00  0.00     0.036 A 
HETATM   20 CL   UNL     1      41.678 -10.865  -0.144  1.00  0.00    -0.084 Cl
HETATM   21  C   UNL     1      40.846 -13.174   0.973  1.00  0.00     0.042 A 
BRANCH  15  22
HETATM   22  O   UNL     1      39.108 -16.150  -0.347  1.00  0.00    -0.358 OA
HETATM   23  H   UNL     1      39.087 -16.429  -1.289  1.00  0.00     0.218 HD
ENDBRANCH  15  22
ENDBRANCH   1  14
TORSDOF 3
ENDMDL
MODEL 7
REMARK VINA RESULT:      -7.2      1.644      2.044
REMARK  3 active torsions:
REMARK  status: ('A' for Active; 'I' for Inactive)
REMARK    1  A    between atoms: C_10  and  C_11 
REMARK    2  A    between atoms: C_11  and  C_12 
REMARK    3  A    between atoms: C_13  and  O_14 
ROOT
HETATM    1  C   UNL     1      42.672 -15.021   3.002  1.00  0.00     0.196 C 
HETATM    2  O   UNL     1      43.193 -14.023   3.496  1.00  0.00    -0.286 OA
ENDROOT
BRANCH   1   3
HETATM    3  C   UNL     1      41.683 -14.851   1.919  1.00  0.00     0.034 A 
HETATM    4  C   UNL     1      40.702 -15.829   1.758  1.00  0.00     0.134 A 
HETATM    5  N   UNL     1      39.726 -15.823   0.814  1.00  0.00    -0.240 NA
HETATM    6  C   UNL     1      39.807 -14.757  -0.005  1.00  0.00     0.155 A 
HETATM    7  N   UNL     1      38.979 -14.477  -1.052  1.00  0.00    -0.260 N 
HETATM    8  C   UNL     1      40.739 -13.732   0.028  1.00  0.00     0.038 A 
HETATM    9  N   UNL     1      39.294 -13.339  -1.705  1.00  0.00    -0.177 NA
HETATM   10  H   UNL     1      38.188 -15.025  -1.365  1.00  0.00     0.191 HD
HETATM   11  C   UNL     1      40.374 -12.884  -1.052  1.00  0.00     0.065 A 
HETATM   12  C   UNL     1      41.033 -11.626  -1.482  1.00  0.00     0.073 C 
HETATM   13  C   UNL     1      41.730 -13.775   1.022  1.00  0.00     0.034 A 
ENDBRANCH   1   3
BRANCH   1  14
HETATM   14  C   UNL     1      43.050 -16.350   3.546  1.00  0.00     0.051 A 
HETATM   15  C   UNL     1      43.134 -16.529   4.939  1.00  0.00     0.101 A 
HETATM   16  C   UNL     1      43.470 -17.783   5.462  1.00  0.00     0.069 A 
HETATM   17 CL   UNL     1      43.561 -18.055   7.165  1.00  0.00    -0.081 Cl
HETATM   18  C   UNL     1      43.750 -18.850   4.608  1.00  0.00     0.050 A 
HETATM   19  C   UNL     1      43.702 -18.658   3.231  1.00  0.00     0.036 A 
HETATM   20 CL   UNL     1      44.064 -19.966   2.174  1.00  0.00    -0.084 Cl
HETATM   21  C   UNL     1      43.362 -17.415   2.693  1.00  0.00     0.042 A 
BRANCH  15  22
HETATM   22  O   UNL     1      42.888 -15.497   5.809  1.00  0.00    -0.358 OA
HETATM   23  H   UNL     1      42.357 -14.811   5.346  1.00  0.00     0.218 HD
ENDBRANCH  15  22
ENDBRANCH   1  14
TORSDOF 3
ENDMDL
MODEL 8
REMARK VINA RESULT:      -7.0      2.145      2.828
REMARK  3 active torsions:
REMARK  status: ('A' for Active; 'I' for Inactive)
REMARK    1  A    between atoms: C_10  and  C_11 
REMARK    2  A    between atoms: C_11  and  C_12 
REMARK    3  A    between atoms: C_13  and  O_14 
ROOT
HETATM    1  C   UNL     1      41.629 -13.659   2.204  1.00  0.00     0.196 C 
HETATM    2  O   UNL     1      42.088 -12.548   2.462  1.00  0.00    -0.286 OA
ENDROOT
BRANCH   1   3
HETATM    3  C   UNL     1      40.931 -13.865   0.919  1.00  0.00     0.034 A 
HETATM    4  C   UNL     1      40.172 -15.024   0.756  1.00  0.00     0.134 A 
HETATM    5  N   UNL     1      39.474 -15.363  -0.358  1.00  0.00    -0.240 NA
HETATM    6  C   UNL     1      39.605 -14.455  -1.344  1.00  0.00     0.155 A 
HETATM    7  N   UNL     1      39.036 -14.517  -2.583  1.00  0.00    -0.260 N 
HETATM    8  C   UNL     1      40.342 -13.281  -1.324  1.00  0.00     0.038 A 
HETATM    9  N   UNL     1      39.338 -13.468  -3.374  1.00  0.00    -0.177 NA
HETATM   10  H   UNL     1      38.435 -15.250  -2.938  1.00  0.00     0.191 HD
HETATM   11  C   UNL     1      40.142 -12.713  -2.610  1.00  0.00     0.065 A 
HETATM   12  C   UNL     1      40.702 -11.444  -3.139  1.00  0.00     0.073 C 
HETATM   13  C   UNL     1      41.047 -12.967  -0.150  1.00  0.00     0.034 A 
ENDBRANCH   1   3
BRANCH   1  14
HETATM   14  C   UNL     1      41.781 -14.732   3.219  1.00  0.00     0.051 A 
HETATM   15  C   UNL     1      40.926 -14.753   4.335  1.00  0.00     0.101 A 
HETATM   16  C   UNL     1      41.049 -15.772   5.288  1.00  0.00     0.069 A 
HETATM   17 CL   UNL     1      40.005 -15.853   6.662  1.00  0.00    -0.081 Cl
HETATM   18  C   UNL     1      42.033 -16.750   5.150  1.00  0.00     0.050 A 
HETATM   19  C   UNL     1      42.901 -16.702   4.063  1.00  0.00     0.036 A 
HETATM   20 CL   UNL     1      44.128 -17.897   3.899  1.00  0.00    -0.084 Cl
HETATM   21  C   UNL     1      42.788 -15.698   3.101  1.00  0.00     0.042 A 
BRANCH  15  22
HETATM   22  O   UNL     1      39.961 -13.795   4.517  1.00  0.00    -0.358 OA
HETATM   23  H   UNL     1      39.131 -14.233   4.811  1.00  0.00     0.218 HD
ENDBRANCH  15  22
ENDBRANCH   1  14
TORSDOF 3
ENDMDL
MODEL 9
REMARK VINA RESULT:      -7.0      1.921      2.293
REMARK  3 active torsions:
REMARK  status: ('A' for Active; 'I' for Inactive)
REMARK    1  A    between atoms: C_10  and  C_11 
REMARK    2  A    between atoms: C_11  and  C_12 
REMARK    3  A    between atoms: C_13  and  O_14 
ROOT
HETATM    1  C   UNL     1      42.647 -13.485   2.830  1.00  0.00     0.196 C 
HETATM    2  O   UNL     1      43.546 -12.652   2.926  1.00  0.00    -0.286 OA
ENDROOT
BRANCH   1   3
HETATM    3  C   UNL     1      41.450 -13.159   2.029  1.00  0.00     0.034 A 
HETATM    4  C   UNL     1      40.397 -12.490   2.655  1.00  0.00     0.134 A 
HETATM    5  N   UNL     1      39.232 -12.121   2.063  1.00  0.00    -0.240 NA
HETATM    6  C   UNL     1      39.168 -12.495   0.771  1.00  0.00     0.155 A 
HETATM    7  N   UNL     1      38.127 -12.278  -0.084  1.00  0.00    -0.260 N 
HETATM    8  C   UNL     1      40.125 -13.181   0.038  1.00  0.00     0.038 A 
HETATM    9  N   UNL     1      38.333 -12.763  -1.325  1.00  0.00    -0.177 NA
HETATM   10  H   UNL     1      37.257 -11.807   0.127  1.00  0.00     0.191 HD
HETATM   11  C   UNL     1      39.550 -13.322  -1.252  1.00  0.00     0.065 A 
HETATM   12  C   UNL     1      40.143 -13.981  -2.443  1.00  0.00     0.073 C 
HETATM   13  C   UNL     1      41.317 -13.541   0.688  1.00  0.00     0.034 A 
ENDBRANCH   1   3
BRANCH   1  14
HETATM   14  C   UNL     1      42.805 -14.773   3.553  1.00  0.00     0.051 A 
HETATM   15  C   UNL     1      42.604 -14.814   4.944  1.00  0.00     0.101 A 
HETATM   16  C   UNL     1      42.733 -16.027   5.632  1.00  0.00     0.069 A 
HETATM   17 CL   UNL     1      42.471 -16.130   7.336  1.00  0.00    -0.081 Cl
HETATM   18  C   UNL     1      43.087 -17.190   4.948  1.00  0.00     0.050 A 
HETATM   19  C   UNL     1      43.322 -17.136   3.577  1.00  0.00     0.036 A 
HETATM   20 CL   UNL     1      43.776 -18.564   2.733  1.00  0.00    -0.084 Cl
HETATM   21  C   UNL     1      43.192 -15.936   2.876  1.00  0.00     0.042 A 
BRANCH  15  22
HETATM   22  O   UNL     1      42.278 -13.686   5.654  1.00  0.00    -0.358 OA
HETATM   23  H   UNL     1      42.635 -13.772   6.566  1.00  0.00     0.218 HD
ENDBRANCH  15  22
ENDBRANCH   1  14
TORSDOF 3
ENDMDL
MODEL 10
REMARK VINA RESULT:      -7.0      1.394      2.405
REMARK  3 active torsions:
REMARK  status: ('A' for Active; 'I' for Inactive)
REMARK    1  A    between atoms: C_10  and  C_11 
REMARK    2  A    between atoms: C_11  and  C_12 
REMARK    3  A    between atoms: C_13  and  O_14 
ROOT
HETATM    1  C   UNL     1      40.456 -15.538   2.592  1.00  0.00     0.196 C 
HETATM    2  O   UNL     1      39.393 -16.080   2.886  1.00  0.00    -0.286 OA
ENDROOT
BRANCH   1   3
HETATM    3  C   UNL     1      40.513 -14.677   1.393  1.00  0.00     0.034 A 
HETATM    4  C   UNL     1      41.204 -13.467   1.480  1.00  0.00     0.134 A 
HETATM    5  N   UNL     1      41.347 -12.565   0.476  1.00  0.00    -0.240 NA
HETATM    6  C   UNL     1      40.716 -12.944  -0.652  1.00  0.00     0.155 A 
HETATM    7  N   UNL     1      40.668 -12.248  -1.825  1.00  0.00    -0.260 N 
HETATM    8  C   UNL     1      39.979 -14.098  -0.865  1.00  0.00     0.038 A 
HETATM    9  N   UNL     1      39.962 -12.865  -2.794  1.00  0.00    -0.177 NA
HETATM   10  H   UNL     1      41.098 -11.352  -2.018  1.00  0.00     0.191 HD
HETATM   11  C   UNL     1      39.533 -13.993  -2.209  1.00  0.00     0.065 A 
HETATM   12  C   UNL     1      38.700 -14.959  -2.967  1.00  0.00     0.073 C 
HETATM   13  C   UNL     1      39.859 -15.007   0.200  1.00  0.00     0.034 A 
ENDBRANCH   1   3
BRANCH   1  14
HETATM   14  C   UNL     1      41.639 -15.805   3.449  1.00  0.00     0.051 A 
HETATM   15  C   UNL     1      42.394 -16.973   3.241  1.00  0.00     0.101 A 
HETATM   16  C   UNL     1      43.522 -17.225   4.032  1.00  0.00     0.069 A 
HETATM   17 CL   UNL     1      44.493 -18.633   3.796  1.00  0.00    -0.081 Cl
HETATM   18  C   UNL     1      43.885 -16.335   5.043  1.00  0.00     0.050 A 
HETATM   19  C   UNL     1      43.112 -15.200   5.269  1.00  0.00     0.036 A 
HETATM   20 CL   UNL     1      43.546 -14.110   6.527  1.00  0.00    -0.084 Cl
HETATM   21  C   UNL     1      41.988 -14.931   4.486  1.00  0.00     0.042 A 
BRANCH  15  22
HETATM   22  O   UNL     1      42.054 -17.883   2.271  1.00  0.00    -0.358 OA
HETATM   23  H   UNL     1      41.902 -18.756   2.696  1.00  0.00     0.218 HD
ENDBRANCH  15  22
ENDBRANCH   1  14
TORSDOF 3
ENDMDL
