MODEL 1
REMARK VINA RESULT:      -8.9      0.000      0.000
REMARK  7 active torsions:
REMARK  status: ('A' for Active; 'I' for Inactive)
REMARK    1  A    between atoms: C_4  and  C_5 
REMARK    2  A    between atoms: C_8  and  C_9 
REMARK    3  A    between atoms: C_9  and  C_10 
REMARK       I    between atoms: C_10  and  N_11 
REMARK    4  A    between atoms: N_11  and  N_12 
REMARK       I    between atoms: N_12  and  C_13 
REMARK    5  A    between atoms: C_13  and  C_14 
REMARK    6  A    between atoms: C_14  and  C_15 
REMARK    7  A    between atoms: C_16  and  O_17 
ROOT
HETATM    1  C   UNL     1      41.881 -11.872   5.897  1.00  0.00     0.241 C 
HETATM    2  N   UNL     1      42.707 -12.487   6.815  1.00  0.00    -0.267 N 
HETATM    3  O   UNL     1      41.851 -10.646   5.761  1.00  0.00    -0.271 OA
HETATM    4  H   UNL     1      42.567 -13.453   7.119  1.00  0.00     0.190 HD
ENDROOT
BRANCH   1   5
HETATM    5  C   UNL     1      41.033 -12.815   5.071  1.00  0.00     0.164 C 
BRANCH   5   6
HETATM    6  C   UNL     1      41.839 -13.682   4.160  1.00  0.00     0.051 A 
HETATM    7  C   UNL     1      42.444 -13.338   2.967  1.00  0.00     0.079 A 
HETATM    8  S   UNL     1      43.282 -14.678   2.314  1.00  0.00    -0.079 SA
HETATM    9  C   UNL     1      42.813 -15.634   3.671  1.00  0.00     0.108 A 
HETATM   10  N   UNL     1      42.071 -14.994   4.556  1.00  0.00    -0.244 NA
BRANCH   9  11
HETATM   11  C   UNL     1      43.281 -17.023   3.826  1.00  0.00     0.000 A 
HETATM   12  C   UNL     1      43.162 -17.907   2.739  1.00  0.00     0.021 A 
HETATM   13  C   UNL     1      43.583 -19.242   2.831  1.00  0.00    -0.061 A 
HETATM   14  C   UNL     1      43.401 -20.183   1.678  1.00  0.00     0.048 C 
HETATM   15  C   UNL     1      44.127 -19.700   4.035  1.00  0.00     0.007 A 
HETATM   16  C   UNL     1      44.267 -18.835   5.118  1.00  0.00     0.001 A 
HETATM   17  C   UNL     1      43.851 -17.506   5.013  1.00  0.00     0.014 A 
ENDBRANCH   9  11
ENDBRANCH   5   6
ENDBRANCH   1   5
BRANCH   2  18
HETATM   18  N   UNL     1      43.438 -11.670   7.686  1.00  0.00    -0.267 N 
HETATM   19  C   UNL     1      44.781 -11.477   7.431  1.00  0.00     0.240 C 
HETATM   20  O   UNL     1      45.320 -11.906   6.411  1.00  0.00    -0.272 OA
HETATM   21  H   UNL     1      43.001 -11.452   8.582  1.00  0.00     0.190 HD
BRANCH  19  22
HETATM   22  C   UNL     1      45.509 -10.667   8.484  1.00  0.00     0.146 C 
BRANCH  22  23
HETATM   23  C   UNL     1      44.726  -9.529   9.112  1.00  0.00    -0.016 A 
HETATM   24  C   UNL     1      44.084  -9.744  10.349  1.00  0.00     0.074 A 
HETATM   25  C   UNL     1      43.342  -8.715  10.941  1.00  0.00     0.037 A 
HETATM   26  C   UNL     1      43.240  -7.470  10.317  1.00  0.00     0.003 A 
HETATM   27  C   UNL     1      43.873  -7.248   9.100  1.00  0.00     0.001 A 
HETATM   28  C   UNL     1      44.609  -8.270   8.499  1.00  0.00     0.010 A 
BRANCH  24  29
HETATM   29  O   UNL     1      44.230 -10.998  10.886  1.00  0.00    -0.355 OA
HETATM   30  C   UNL     1      43.567 -11.258  12.118  1.00  0.00     0.210 C 
ENDBRANCH  24  29
ENDBRANCH  22  23
ENDBRANCH  19  22
ENDBRANCH   2  18
TORSDOF 7
ENDMDL
MODEL 2
REMARK VINA RESULT:      -8.8      1.304      2.002
REMARK  7 active torsions:
REMARK  status: ('A' for Active; 'I' for Inactive)
REMARK    1  A    between atoms: C_4  and  C_5 
REMARK    2  A    between atoms: C_8  and  C_9 
REMARK    3  A    between atoms: C_9  and  C_10 
REMARK       I    between atoms: C_10  and  N_11 
REMARK    4  A    between atoms: N_11  and  N_12 
REMARK       I    between atoms: N_12  and  C_13 
REMARK    5  A    between atoms: C_13  and  C_14 
REMARK    6  A    between atoms: C_14  and  C_15 
REMARK    7  A    between atoms: C_16  and  O_17 
ROOT
HETATM    1  C   UNL     1      42.409 -11.565   5.271  1.00  0.00     0.241 C 
HETATM    2  N   UNL     1      42.296 -11.313   6.623  1.00  0.00    -0.267 N 
HETATM    3  O   UNL     1      43.240 -10.990   4.565  1.00  0.00    -0.271 OA
HETATM    4  H   UNL     1      41.470 -11.576   7.164  1.00  0.00     0.190 HD
ENDROOT
BRANCH   1   5
HETATM    5  C   UNL     1      41.447 -12.603   4.735  1.00  0.00     0.164 C 
BRANCH   5   6
HETATM    6  C   UNL     1      42.099 -13.593   3.826  1.00  0.00     0.051 A 
HETATM    7  C   UNL     1      42.559 -13.395   2.538  1.00  0.00     0.079 A 
HETATM    8  S   UNL     1      43.259 -14.832   1.928  1.00  0.00    -0.079 SA
HETATM    9  C   UNL     1      42.933 -15.628   3.423  1.00  0.00     0.108 A 
HETATM   10  N   UNL     1      42.332 -14.870   4.322  1.00  0.00    -0.244 NA
BRANCH   9  11
HETATM   11  C   UNL     1      43.367 -17.015   3.661  1.00  0.00     0.000 A 
HETATM   12  C   UNL     1      43.250 -17.954   2.620  1.00  0.00     0.021 A 
HETATM   13  C   UNL     1      43.640 -19.290   2.791  1.00  0.00    -0.061 A 
HETATM   14  C   UNL     1      43.460 -20.288   1.687  1.00  0.00     0.048 C 
HETATM   15  C   UNL     1      44.150 -19.695   4.029  1.00  0.00     0.007 A 
HETATM   16  C   UNL     1      44.287 -18.776   5.067  1.00  0.00     0.001 A 
HETATM   17  C   UNL     1      43.902 -17.446   4.884  1.00  0.00     0.014 A 
ENDBRANCH   9  11
ENDBRANCH   5   6
ENDBRANCH   1   5
BRANCH   2  18
HETATM   18  N   UNL     1      43.081 -10.286   7.163  1.00  0.00    -0.267 N 
HETATM   19  C   UNL     1      44.145 -10.631   7.971  1.00  0.00     0.240 C 
HETATM   20  O   UNL     1      44.486 -11.802   8.138  1.00  0.00    -0.272 OA
HETATM   21  H   UNL     1      42.691  -9.344   7.122  1.00  0.00     0.190 HD
BRANCH  19  22
HETATM   22  C   UNL     1      44.867  -9.454   8.593  1.00  0.00     0.146 C 
BRANCH  22  23
HETATM   23  C   UNL     1      44.156  -8.764   9.742  1.00  0.00    -0.016 A 
HETATM   24  C   UNL     1      43.429  -7.583   9.483  1.00  0.00     0.074 A 
HETATM   25  C   UNL     1      42.778  -6.919  10.529  1.00  0.00     0.037 A 
HETATM   26  C   UNL     1      42.837  -7.422  11.830  1.00  0.00     0.003 A 
HETATM   27  C   UNL     1      43.549  -8.587  12.093  1.00  0.00     0.001 A 
HETATM   28  C   UNL     1      44.206  -9.253  11.058  1.00  0.00     0.010 A 
BRANCH  24  29
HETATM   29  O   UNL     1      43.431  -7.156   8.179  1.00  0.00    -0.355 OA
HETATM   30  C   UNL     1      42.165  -6.952   7.561  1.00  0.00     0.210 C 
ENDBRANCH  24  29
ENDBRANCH  22  23
ENDBRANCH  19  22
ENDBRANCH   2  18
TORSDOF 7
ENDMDL
MODEL 3
REMARK VINA RESULT:      -8.7      2.950      9.577
REMARK  7 active torsions:
REMARK  status: ('A' for Active; 'I' for Inactive)
REMARK    1  A    between atoms: C_4  and  C_5 
REMARK    2  A    between atoms: C_8  and  C_9 
REMARK    3  A    between atoms: C_9  and  C_10 
REMARK       I    between atoms: C_10  and  N_11 
REMARK    4  A    between atoms: N_11  and  N_12 
REMARK       I    between atoms: N_12  and  C_13 
REMARK    5  A    between atoms: C_13  and  C_14 
REMARK    6  A    between atoms: C_14  and  C_15 
REMARK    7  A    between atoms: C_16  and  O_17 
ROOT
HETATM    1  C   UNL     1      44.162 -12.129   6.887  1.00  0.00     0.241 C 
HETATM    2  N   UNL     1      43.381 -12.992   7.628  1.00  0.00    -0.267 N 
HETATM    3  O   UNL     1      44.030 -12.011   5.667  1.00  0.00    -0.271 OA
HETATM    4  H   UNL     1      43.636 -13.291   8.572  1.00  0.00     0.190 HD
ENDROOT
BRANCH   1   5
HETATM    5  C   UNL     1      45.175 -11.340   7.688  1.00  0.00     0.164 C 
BRANCH   5   6
HETATM    6  C   UNL     1      44.578 -10.165   8.392  1.00  0.00     0.051 A 
HETATM    7  C   UNL     1      44.414  -8.878   7.917  1.00  0.00     0.079 A 
HETATM    8  S   UNL     1      43.648  -7.902   9.094  1.00  0.00    -0.079 SA
HETATM    9  C   UNL     1      43.555  -9.255  10.160  1.00  0.00     0.108 A 
HETATM   10  N   UNL     1      44.070 -10.368   9.670  1.00  0.00    -0.244 NA
BRANCH   9  11
HETATM   11  C   UNL     1      42.887  -9.153  11.469  1.00  0.00     0.000 A 
HETATM   12  C   UNL     1      41.718  -9.900  11.698  1.00  0.00     0.021 A 
HETATM   13  C   UNL     1      41.036  -9.837  12.922  1.00  0.00    -0.061 A 
HETATM   14  C   UNL     1      39.763 -10.602  13.130  1.00  0.00     0.048 C 
HETATM   15  C   UNL     1      41.530  -9.005  13.932  1.00  0.00     0.007 A 
HETATM   16  C   UNL     1      42.695  -8.269  13.729  1.00  0.00     0.001 A 
HETATM   17  C   UNL     1      43.371  -8.344  12.508  1.00  0.00     0.014 A 
ENDBRANCH   9  11
ENDBRANCH   5   6
ENDBRANCH   1   5
BRANCH   2  18
HETATM   18  N   UNL     1      42.499 -13.832   6.936  1.00  0.00    -0.267 N 
HETATM   19  C   UNL     1      42.456 -15.166   7.285  1.00  0.00     0.240 C 
HETATM   20  O   UNL     1      43.082 -15.610   8.248  1.00  0.00    -0.272 OA
HETATM   21  H   UNL     1      42.109 -13.466   6.067  1.00  0.00     0.190 HD
BRANCH  19  22
HETATM   22  C   UNL     1      41.553 -16.013   6.413  1.00  0.00     0.146 C 
BRANCH  22  23
HETATM   23  C   UNL     1      42.186 -16.599   5.165  1.00  0.00    -0.016 A 
HETATM   24  C   UNL     1      41.631 -16.285   3.906  1.00  0.00     0.074 A 
HETATM   25  C   UNL     1      42.187 -16.826   2.741  1.00  0.00     0.037 A 
HETATM   26  C   UNL     1      43.295 -17.670   2.814  1.00  0.00     0.003 A 
HETATM   27  C   UNL     1      43.851 -17.982   4.050  1.00  0.00     0.001 A 
HETATM   28  C   UNL     1      43.300 -17.453   5.218  1.00  0.00     0.010 A 
BRANCH  24  29
HETATM   29  O   UNL     1      40.538 -15.454   3.928  1.00  0.00    -0.355 OA
HETATM   30  C   UNL     1      40.670 -14.192   3.285  1.00  0.00     0.210 C 
ENDBRANCH  24  29
ENDBRANCH  22  23
ENDBRANCH  19  22
ENDBRANCH   2  18
TORSDOF 7
ENDMDL
MODEL 4
REMARK VINA RESULT:      -8.6      1.771      2.685
REMARK  7 active torsions:
REMARK  status: ('A' for Active; 'I' for Inactive)
REMARK    1  A    between atoms: C_4  and  C_5 
REMARK    2  A    between atoms: C_8  and  C_9 
REMARK    3  A    between atoms: C_9  and  C_10 
REMARK       I    between atoms: C_10  and  N_11 
REMARK    4  A    between atoms: N_11  and  N_12 
REMARK       I    between atoms: N_12  and  C_13 
REMARK    5  A    between atoms: C_13  and  C_14 
REMARK    6  A    between atoms: C_14  and  C_15 
REMARK    7  A    between atoms: C_16  and  O_17 
ROOT
HETATM    1  C   UNL     1      43.399 -11.555   5.182  1.00  0.00     0.241 C 
HETATM    2  N   UNL     1      42.854 -11.026   6.335  1.00  0.00    -0.267 N 
HETATM    3  O   UNL     1      44.545 -11.285   4.816  1.00  0.00    -0.271 OA
HETATM    4  H   UNL     1      41.849 -11.029   6.519  1.00  0.00     0.190 HD
ENDROOT
BRANCH   1   5
HETATM    5  C   UNL     1      42.487 -12.493   4.420  1.00  0.00     0.164 C 
BRANCH   5   6
HETATM    6  C   UNL     1      42.484 -13.882   4.970  1.00  0.00     0.051 A 
HETATM    7  C   UNL     1      42.066 -14.307   6.216  1.00  0.00     0.079 A 
HETATM    8  S   UNL     1      42.233 -16.003   6.354  1.00  0.00    -0.079 SA
HETATM    9  C   UNL     1      42.827 -16.079   4.737  1.00  0.00     0.108 A 
HETATM   10  N   UNL     1      42.904 -14.908   4.131  1.00  0.00    -0.244 NA
BRANCH   9  11
HETATM   11  C   UNL     1      43.146 -17.368   4.100  1.00  0.00     0.000 A 
HETATM   12  C   UNL     1      43.633 -18.420   4.896  1.00  0.00     0.021 A 
HETATM   13  C   UNL     1      43.961 -19.667   4.343  1.00  0.00    -0.061 A 
HETATM   14  C   UNL     1      44.527 -20.760   5.199  1.00  0.00     0.048 C 
HETATM   15  C   UNL     1      43.803 -19.861   2.966  1.00  0.00     0.007 A 
HETATM   16  C   UNL     1      43.307 -18.836   2.164  1.00  0.00     0.001 A 
HETATM   17  C   UNL     1      42.978 -17.600   2.727  1.00  0.00     0.014 A 
ENDBRANCH   9  11
ENDBRANCH   5   6
ENDBRANCH   1   5
BRANCH   2  18
HETATM   18  N   UNL     1      43.603 -10.067   7.030  1.00  0.00    -0.267 N 
HETATM   19  C   UNL     1      44.278 -10.463   8.167  1.00  0.00     0.240 C 
HETATM   20  O   UNL     1      44.331 -11.641   8.519  1.00  0.00    -0.272 OA
HETATM   21  H   UNL     1      43.423  -9.091   6.795  1.00  0.00     0.190 HD
BRANCH  19  22
HETATM   22  C   UNL     1      44.970  -9.337   8.907  1.00  0.00     0.146 C 
BRANCH  22  23
HETATM   23  C   UNL     1      44.152  -8.638   9.977  1.00  0.00    -0.016 A 
HETATM   24  C   UNL     1      43.389  -7.505   9.621  1.00  0.00     0.074 A 
HETATM   25  C   UNL     1      42.640  -6.833  10.593  1.00  0.00     0.037 A 
HETATM   26  C   UNL     1      42.634  -7.281  11.915  1.00  0.00     0.003 A 
HETATM   27  C   UNL     1      43.379  -8.398  12.274  1.00  0.00     0.001 A 
HETATM   28  C   UNL     1      44.135  -9.072  11.313  1.00  0.00     0.010 A 
BRANCH  24  29
HETATM   29  O   UNL     1      43.460  -7.130   8.303  1.00  0.00    -0.355 OA
HETATM   30  C   UNL     1      42.248  -6.721   7.679  1.00  0.00     0.210 C 
ENDBRANCH  24  29
ENDBRANCH  22  23
ENDBRANCH  19  22
ENDBRANCH   2  18
TORSDOF 7
ENDMDL
MODEL 5
REMARK VINA RESULT:      -8.6      1.805      2.329
REMARK  7 active torsions:
REMARK  status: ('A' for Active; 'I' for Inactive)
REMARK    1  A    between atoms: C_4  and  C_5 
REMARK    2  A    between atoms: C_8  and  C_9 
REMARK    3  A    between atoms: C_9  and  C_10 
REMARK       I    between atoms: C_10  and  N_11 
REMARK    4  A    between atoms: N_11  and  N_12 
REMARK       I    between atoms: N_12  and  C_13 
REMARK    5  A    between atoms: C_13  and  C_14 
REMARK    6  A    between atoms: C_14  and  C_15 
REMARK    7  A    between atoms: C_16  and  O_17 
ROOT
HETATM    1  C   UNL     1      39.950 -12.572   5.081  1.00  0.00     0.241 C 
HETATM    2  N   UNL     1      41.162 -11.915   5.026  1.00  0.00    -0.267 N 
HETATM    3  O   UNL     1      39.433 -12.904   6.150  1.00  0.00    -0.271 OA
HETATM    4  H   UNL     1      41.720 -11.860   4.172  1.00  0.00     0.190 HD
ENDROOT
BRANCH   1   5
HETATM    5  C   UNL     1      39.309 -12.836   3.735  1.00  0.00     0.164 C 
BRANCH   5   6
HETATM    6  C   UNL     1      40.052 -13.845   2.922  1.00  0.00     0.051 A 
HETATM    7  C   UNL     1      40.090 -13.972   1.546  1.00  0.00     0.079 A 
HETATM    8  S   UNL     1      41.112 -15.268   1.096  1.00  0.00    -0.079 SA
HETATM    9  C   UNL     1      41.466 -15.569   2.757  1.00  0.00     0.108 A 
HETATM   10  N   UNL     1      40.854 -14.756   3.599  1.00  0.00    -0.244 NA
BRANCH   9  11
HETATM   11  C   UNL     1      42.429 -16.610   3.156  1.00  0.00     0.000 A 
HETATM   12  C   UNL     1      42.523 -17.783   2.387  1.00  0.00     0.021 A 
HETATM   13  C   UNL     1      43.416 -18.811   2.724  1.00  0.00    -0.061 A 
HETATM   14  C   UNL     1      43.466 -20.076   1.921  1.00  0.00     0.048 C 
HETATM   15  C   UNL     1      44.225 -18.663   3.856  1.00  0.00     0.007 A 
HETATM   16  C   UNL     1      44.156 -17.502   4.622  1.00  0.00     0.001 A 
HETATM   17  C   UNL     1      43.268 -16.481   4.273  1.00  0.00     0.014 A 
ENDBRANCH   9  11
ENDBRANCH   5   6
ENDBRANCH   1   5
BRANCH   2  18
HETATM   18  N   UNL     1      41.862 -11.735   6.227  1.00  0.00    -0.267 N 
HETATM   19  C   UNL     1      43.062 -12.396   6.391  1.00  0.00     0.240 C 
HETATM   20  O   UNL     1      43.582 -13.042   5.481  1.00  0.00    -0.272 OA
HETATM   21  H   UNL     1      41.342 -11.316   6.999  1.00  0.00     0.190 HD
BRANCH  19  22
HETATM   22  C   UNL     1      43.690 -12.224   7.758  1.00  0.00     0.146 C 
BRANCH  22  23
HETATM   23  C   UNL     1      44.469 -10.941   7.980  1.00  0.00    -0.016 A 
HETATM   24  C   UNL     1      43.798  -9.818   8.507  1.00  0.00     0.074 A 
HETATM   25  C   UNL     1      44.490  -8.618   8.705  1.00  0.00     0.037 A 
HETATM   26  C   UNL     1      45.847  -8.526   8.393  1.00  0.00     0.003 A 
HETATM   27  C   UNL     1      46.518  -9.629   7.877  1.00  0.00     0.001 A 
HETATM   28  C   UNL     1      45.835 -10.828   7.670  1.00  0.00     0.010 A 
BRANCH  24  29
HETATM   29  O   UNL     1      42.464  -9.994   8.777  1.00  0.00    -0.355 OA
HETATM   30  C   UNL     1      41.770  -8.898   9.362  1.00  0.00     0.210 C 
ENDBRANCH  24  29
ENDBRANCH  22  23
ENDBRANCH  19  22
ENDBRANCH   2  18
TORSDOF 7
ENDMDL
MODEL 6
REMARK VINA RESULT:      -8.6      2.852      9.549
REMARK  7 active torsions:
REMARK  status: ('A' for Active; 'I' for Inactive)
REMARK    1  A    between atoms: C_4  and  C_5 
REMARK    2  A    between atoms: C_8  and  C_9 
REMARK    3  A    between atoms: C_9  and  C_10 
REMARK       I    between atoms: C_10  and  N_11 
REMARK    4  A    between atoms: N_11  and  N_12 
REMARK       I    between atoms: N_12  and  C_13 
REMARK    5  A    between atoms: C_13  and  C_14 
REMARK    6  A    between atoms: C_14  and  C_15 
REMARK    7  A    between atoms: C_16  and  O_17 
ROOT
HETATM    1  C   UNL     1      42.824 -11.572   5.981  1.00  0.00     0.241 C 
HETATM    2  N   UNL     1      42.033 -12.366   6.787  1.00  0.00    -0.267 N 
HETATM    3  O   UNL     1      43.345 -12.000   4.949  1.00  0.00    -0.271 OA
HETATM    4  H   UNL     1      41.809 -12.118   7.752  1.00  0.00     0.190 HD
ENDROOT
BRANCH   1   5
HETATM    5  C   UNL     1      42.988 -10.145   6.460  1.00  0.00     0.164 C 
BRANCH   5   6
HETATM    6  C   UNL     1      43.596 -10.050   7.821  1.00  0.00     0.051 A 
HETATM    7  C   UNL     1      44.931 -10.126   8.168  1.00  0.00     0.079 A 
HETATM    8  S   UNL     1      45.121  -9.927   9.856  1.00  0.00    -0.079 SA
HETATM    9  C   UNL     1      43.417  -9.724  10.026  1.00  0.00     0.108 A 
HETATM   10  N   UNL     1      42.744  -9.806   8.892  1.00  0.00    -0.244 NA
BRANCH   9  11
HETATM   11  C   UNL     1      42.810  -9.417  11.333  1.00  0.00     0.000 A 
HETATM   12  C   UNL     1      43.364  -8.390  12.117  1.00  0.00     0.021 A 
HETATM   13  C   UNL     1      42.833  -8.059  13.372  1.00  0.00    -0.061 A 
HETATM   14  C   UNL     1      43.469  -6.995  14.217  1.00  0.00     0.048 C 
HETATM   15  C   UNL     1      41.732  -8.774  13.853  1.00  0.00     0.007 A 
HETATM   16  C   UNL     1      41.160  -9.785  13.084  1.00  0.00     0.001 A 
HETATM   17  C   UNL     1      41.692 -10.102  11.832  1.00  0.00     0.014 A 
ENDBRANCH   9  11
ENDBRANCH   5   6
ENDBRANCH   1   5
BRANCH   2  18
HETATM   18  N   UNL     1      41.928 -13.725   6.462  1.00  0.00    -0.267 N 
HETATM   19  C   UNL     1      40.668 -14.262   6.294  1.00  0.00     0.240 C 
HETATM   20  O   UNL     1      39.653 -13.565   6.312  1.00  0.00    -0.272 OA
HETATM   21  H   UNL     1      42.766 -14.291   6.594  1.00  0.00     0.190 HD
BRANCH  19  22
HETATM   22  C   UNL     1      40.651 -15.756   6.051  1.00  0.00     0.146 C 
BRANCH  22  23
HETATM   23  C   UNL     1      41.375 -16.240   4.808  1.00  0.00    -0.016 A 
HETATM   24  C   UNL     1      42.660 -16.808   4.944  1.00  0.00     0.074 A 
HETATM   25  C   UNL     1      43.354 -17.246   3.812  1.00  0.00     0.037 A 
HETATM   26  C   UNL     1      42.781 -17.133   2.544  1.00  0.00     0.003 A 
HETATM   27  C   UNL     1      41.515 -16.579   2.401  1.00  0.00     0.001 A 
HETATM   28  C   UNL     1      40.816 -16.133   3.524  1.00  0.00     0.010 A 
BRANCH  24  29
HETATM   29  O   UNL     1      43.149 -16.872   6.225  1.00  0.00    -0.355 OA
HETATM   30  C   UNL     1      44.465 -16.374   6.442  1.00  0.00     0.210 C 
ENDBRANCH  24  29
ENDBRANCH  22  23
ENDBRANCH  19  22
ENDBRANCH   2  18
TORSDOF 7
ENDMDL
MODEL 7
REMARK VINA RESULT:      -8.3      2.892      9.492
REMARK  7 active torsions:
REMARK  status: ('A' for Active; 'I' for Inactive)
REMARK    1  A    between atoms: C_4  and  C_5 
REMARK    2  A    between atoms: C_8  and  C_9 
REMARK    3  A    between atoms: C_9  and  C_10 
REMARK       I    between atoms: C_10  and  N_11 
REMARK    4  A    between atoms: N_11  and  N_12 
REMARK       I    between atoms: N_12  and  C_13 
REMARK    5  A    between atoms: C_13  and  C_14 
REMARK    6  A    between atoms: C_14  and  C_15 
REMARK    7  A    between atoms: C_16  and  O_17 
ROOT
HETATM    1  C   UNL     1      44.523 -11.613   7.237  1.00  0.00     0.241 C 
HETATM    2  N   UNL     1      44.203 -11.077   6.006  1.00  0.00    -0.267 N 
HETATM    3  O   UNL     1      44.100 -12.712   7.602  1.00  0.00    -0.271 OA
HETATM    4  H   UNL     1      44.325 -10.086   5.790  1.00  0.00     0.190 HD
ENDROOT
BRANCH   1   5
HETATM    5  C   UNL     1      45.435 -10.755   8.086  1.00  0.00     0.164 C 
BRANCH   5   6
HETATM    6  C   UNL     1      44.712  -9.659   8.799  1.00  0.00     0.051 A 
HETATM    7  C   UNL     1      44.463  -8.373   8.358  1.00  0.00     0.079 A 
HETATM    8  S   UNL     1      43.567  -7.505   9.528  1.00  0.00    -0.079 SA
HETATM    9  C   UNL     1      43.538  -8.900  10.543  1.00  0.00     0.108 A 
HETATM   10  N   UNL     1      44.165  -9.949  10.043  1.00  0.00    -0.244 NA
BRANCH   9  11
HETATM   11  C   UNL     1      42.806  -8.900  11.821  1.00  0.00     0.000 A 
HETATM   12  C   UNL     1      41.666  -9.712  11.954  1.00  0.00     0.021 A 
HETATM   13  C   UNL     1      40.925  -9.747  13.144  1.00  0.00    -0.061 A 
HETATM   14  C   UNL     1      39.683 -10.582  13.250  1.00  0.00     0.048 C 
HETATM   15  C   UNL     1      41.329  -8.949  14.219  1.00  0.00     0.007 A 
HETATM   16  C   UNL     1      42.464  -8.148  14.112  1.00  0.00     0.001 A 
HETATM   17  C   UNL     1      43.199  -8.126  12.924  1.00  0.00     0.014 A 
ENDBRANCH   9  11
ENDBRANCH   5   6
ENDBRANCH   1   5
BRANCH   2  18
HETATM   18  N   UNL     1      43.276 -11.768   5.214  1.00  0.00    -0.267 N 
HETATM   19  C   UNL     1      43.537 -11.898   3.865  1.00  0.00     0.240 C 
HETATM   20  O   UNL     1      44.599 -11.526   3.365  1.00  0.00    -0.272 OA
HETATM   21  H   UNL     1      42.358 -11.934   5.627  1.00  0.00     0.190 HD
BRANCH  19  22
HETATM   22  C   UNL     1      42.430 -12.566   3.075  1.00  0.00     0.146 C 
BRANCH  22  23
HETATM   23  C   UNL     1      42.546 -14.068   2.899  1.00  0.00    -0.016 A 
HETATM   24  C   UNL     1      41.943 -14.916   3.852  1.00  0.00     0.074 A 
HETATM   25  C   UNL     1      42.051 -16.305   3.720  1.00  0.00     0.037 A 
HETATM   26  C   UNL     1      42.746 -16.861   2.645  1.00  0.00     0.003 A 
HETATM   27  C   UNL     1      43.340 -16.033   1.699  1.00  0.00     0.001 A 
HETATM   28  C   UNL     1      43.244 -14.646   1.825  1.00  0.00     0.010 A 
BRANCH  24  29
HETATM   29  O   UNL     1      41.288 -14.285   4.880  1.00  0.00    -0.355 OA
HETATM   30  C   UNL     1      41.254 -14.955   6.135  1.00  0.00     0.210 C 
ENDBRANCH  24  29
ENDBRANCH  22  23
ENDBRANCH  19  22
ENDBRANCH   2  18
TORSDOF 7
ENDMDL
MODEL 8
REMARK VINA RESULT:      -8.3      4.432      8.032
REMARK  7 active torsions:
REMARK  status: ('A' for Active; 'I' for Inactive)
REMARK    1  A    between atoms: C_4  and  C_5 
REMARK    2  A    between atoms: C_8  and  C_9 
REMARK    3  A    between atoms: C_9  and  C_10 
REMARK       I    between atoms: C_10  and  N_11 
REMARK    4  A    between atoms: N_11  and  N_12 
REMARK       I    between atoms: N_12  and  C_13 
REMARK    5  A    between atoms: C_13  and  C_14 
REMARK    6  A    between atoms: C_14  and  C_15 
REMARK    7  A    between atoms: C_16  and  O_17 
ROOT
HETATM    1  C   UNL     1      40.207 -13.174   4.002  1.00  0.00     0.241 C 
HETATM    2  N   UNL     1      39.596 -14.223   3.344  1.00  0.00    -0.267 N 
HETATM    3  O   UNL     1      40.444 -12.101   3.443  1.00  0.00    -0.271 OA
HETATM    4  H   UNL     1      39.622 -15.182   3.696  1.00  0.00     0.190 HD
ENDROOT
BRANCH   1   5
HETATM    5  C   UNL     1      40.546 -13.444   5.452  1.00  0.00     0.164 C 
BRANCH   5   6
HETATM    6  C   UNL     1      41.723 -14.349   5.619  1.00  0.00     0.051 A 
HETATM    7  C   UNL     1      42.734 -14.271   6.558  1.00  0.00     0.079 A 
HETATM    8  S   UNL     1      43.836 -15.563   6.356  1.00  0.00    -0.079 SA
HETATM    9  C   UNL     1      42.890 -16.168   5.047  1.00  0.00     0.108 A 
HETATM   10  N   UNL     1      41.819 -15.446   4.771  1.00  0.00    -0.244 NA
BRANCH   9  11
HETATM   11  C   UNL     1      43.245 -17.425   4.365  1.00  0.00     0.000 A 
HETATM   12  C   UNL     1      43.636 -18.532   5.137  1.00  0.00     0.021 A 
HETATM   13  C   UNL     1      43.992 -19.752   4.542  1.00  0.00    -0.061 A 
HETATM   14  C   UNL     1      44.456 -20.906   5.380  1.00  0.00     0.048 C 
HETATM   15  C   UNL     1      43.961 -19.861   3.148  1.00  0.00     0.007 A 
HETATM   16  C   UNL     1      43.561 -18.779   2.367  1.00  0.00     0.001 A 
HETATM   17  C   UNL     1      43.203 -17.571   2.970  1.00  0.00     0.014 A 
ENDBRANCH   9  11
ENDBRANCH   5   6
ENDBRANCH   1   5
BRANCH   2  18
HETATM   18  N   UNL     1      39.354 -14.081   1.972  1.00  0.00    -0.267 N 
HETATM   19  C   UNL     1      40.056 -14.884   1.096  1.00  0.00     0.240 C 
HETATM   20  O   UNL     1      40.797 -15.786   1.487  1.00  0.00    -0.272 OA
HETATM   21  H   UNL     1      38.850 -13.242   1.682  1.00  0.00     0.190 HD
BRANCH  19  22
HETATM   22  C   UNL     1      39.805 -14.584  -0.367  1.00  0.00     0.146 C 
BRANCH  22  23
HETATM   23  C   UNL     1      39.899 -13.126  -0.777  1.00  0.00    -0.016 A 
HETATM   24  C   UNL     1      38.837 -12.553  -1.508  1.00  0.00     0.074 A 
HETATM   25  C   UNL     1      38.908 -11.215  -1.912  1.00  0.00     0.037 A 
HETATM   26  C   UNL     1      40.022 -10.438  -1.589  1.00  0.00     0.003 A 
HETATM   27  C   UNL     1      41.071 -10.993  -0.866  1.00  0.00     0.001 A 
HETATM   28  C   UNL     1      41.013 -12.328  -0.464  1.00  0.00     0.010 A 
BRANCH  24  29
HETATM   29  O   UNL     1      37.787 -13.391  -1.789  1.00  0.00    -0.355 OA
HETATM   30  C   UNL     1      36.934 -13.023  -2.866  1.00  0.00     0.210 C 
ENDBRANCH  24  29
ENDBRANCH  22  23
ENDBRANCH  19  22
ENDBRANCH   2  18
TORSDOF 7
ENDMDL
MODEL 9
REMARK VINA RESULT:      -8.2      1.822      2.811
REMARK  7 active torsions:
REMARK  status: ('A' for Active; 'I' for Inactive)
REMARK    1  A    between atoms: C_4  and  C_5 
REMARK    2  A    between atoms: C_8  and  C_9 
REMARK    3  A    between atoms: C_9  and  C_10 
REMARK       I    between atoms: C_10  and  N_11 
REMARK    4  A    between atoms: N_11  and  N_12 
REMARK       I    between atoms: N_12  and  C_13 
REMARK    5  A    between atoms: C_13  and  C_14 
REMARK    6  A    between atoms: C_14  and  C_15 
REMARK    7  A    between atoms: C_16  and  O_17 
ROOT
HETATM    1  C   UNL     1      40.731 -12.020   5.189  1.00  0.00     0.241 C 
HETATM    2  N   UNL     1      40.153 -11.605   6.372  1.00  0.00    -0.267 N 
HETATM    3  O   UNL     1      41.880 -11.700   4.875  1.00  0.00    -0.271 OA
HETATM    4  H   UNL     1      39.145 -11.639   6.533  1.00  0.00     0.190 HD
ENDROOT
BRANCH   1   5
HETATM    5  C   UNL     1      39.852 -12.900   4.327  1.00  0.00     0.164 C 
BRANCH   5   6
HETATM    6  C   UNL     1      40.631 -13.804   3.428  1.00  0.00     0.051 A 
HETATM    7  C   UNL     1      40.853 -13.675   2.071  1.00  0.00     0.079 A 
HETATM    8  S   UNL     1      41.837 -14.954   1.503  1.00  0.00    -0.079 SA
HETATM    9  C   UNL     1      41.933 -15.592   3.103  1.00  0.00     0.108 A 
HETATM   10  N   UNL     1      41.266 -14.897   4.006  1.00  0.00    -0.244 NA
BRANCH   9  11
HETATM   11  C   UNL     1      42.756 -16.776   3.405  1.00  0.00     0.000 A 
HETATM   12  C   UNL     1      42.748 -17.859   2.509  1.00  0.00     0.021 A 
HETATM   13  C   UNL     1      43.507 -19.014   2.748  1.00  0.00    -0.061 A 
HETATM   14  C   UNL     1      43.445 -20.180   1.807  1.00  0.00     0.048 C 
HETATM   15  C   UNL     1      44.281 -19.088   3.910  1.00  0.00     0.007 A 
HETATM   16  C   UNL     1      44.314 -18.019   4.803  1.00  0.00     0.001 A 
HETATM   17  C   UNL     1      43.560 -16.870   4.551  1.00  0.00     0.014 A 
ENDBRANCH   9  11
ENDBRANCH   5   6
ENDBRANCH   1   5
BRANCH   2  18
HETATM   18  N   UNL     1      40.870 -10.700   7.166  1.00  0.00    -0.267 N 
HETATM   19  C   UNL     1      40.161  -9.807   7.944  1.00  0.00     0.240 C 
HETATM   20  O   UNL     1      38.934  -9.856   8.042  1.00  0.00    -0.272 OA
HETATM   21  H   UNL     1      41.862 -10.595   6.955  1.00  0.00     0.190 HD
BRANCH  19  22
HETATM   22  C   UNL     1      41.018  -8.802   8.684  1.00  0.00     0.146 C 
BRANCH  22  23
HETATM   23  C   UNL     1      41.741  -9.317   9.915  1.00  0.00    -0.016 A 
HETATM   24  C   UNL     1      43.075  -9.759   9.788  1.00  0.00     0.074 A 
HETATM   25  C   UNL     1      43.758 -10.254  10.905  1.00  0.00     0.037 A 
HETATM   26  C   UNL     1      43.129 -10.307  12.150  1.00  0.00     0.003 A 
HETATM   27  C   UNL     1      41.816  -9.871  12.285  1.00  0.00     0.001 A 
HETATM   28  C   UNL     1      41.125  -9.381  11.176  1.00  0.00     0.010 A 
BRANCH  24  29
HETATM   29  O   UNL     1      43.611  -9.679   8.527  1.00  0.00    -0.355 OA
HETATM   30  C   UNL     1      44.441 -10.755   8.106  1.00  0.00     0.210 C 
ENDBRANCH  24  29
ENDBRANCH  22  23
ENDBRANCH  19  22
ENDBRANCH   2  18
TORSDOF 7
ENDMDL
MODEL 10
REMARK VINA RESULT:      -8.1      2.377      3.436
REMARK  7 active torsions:
REMARK  status: ('A' for Active; 'I' for Inactive)
REMARK    1  A    between atoms: C_4  and  C_5 
REMARK    2  A    between atoms: C_8  and  C_9 
REMARK    3  A    between atoms: C_9  and  C_10 
REMARK       I    between atoms: C_10  and  N_11 
REMARK    4  A    between atoms: N_11  and  N_12 
REMARK       I    between atoms: N_12  and  C_13 
REMARK    5  A    between atoms: C_13  and  C_14 
REMARK    6  A    between atoms: C_14  and  C_15 
REMARK    7  A    between atoms: C_16  and  O_17 
ROOT
HETATM    1  C   UNL     1      43.761 -10.968   7.638  1.00  0.00     0.241 C 
HETATM    2  N   UNL     1      42.834 -10.481   8.537  1.00  0.00    -0.267 N 
HETATM    3  O   UNL     1      44.836 -11.449   8.002  1.00  0.00    -0.271 OA
HETATM    4  H   UNL     1      42.072  -9.860   8.258  1.00  0.00     0.190 HD
ENDROOT
BRANCH   1   5
HETATM    5  C   UNL     1      43.348 -10.873   6.185  1.00  0.00     0.164 C 
BRANCH   5   6
HETATM    6  C   UNL     1      42.639 -12.093   5.696  1.00  0.00     0.051 A 
HETATM    7  C   UNL     1      41.335 -12.202   5.250  1.00  0.00     0.079 A 
HETATM    8  S   UNL     1      41.004 -13.808   4.766  1.00  0.00    -0.079 SA
HETATM    9  C   UNL     1      42.622 -14.262   5.154  1.00  0.00     0.108 A 
HETATM   10  N   UNL     1      43.365 -13.276   5.622  1.00  0.00    -0.244 NA
BRANCH   9  11
HETATM   11  C   UNL     1      43.114 -15.628   4.904  1.00  0.00     0.000 A 
HETATM   12  C   UNL     1      42.799 -16.253   3.684  1.00  0.00     0.021 A 
HETATM   13  C   UNL     1      43.234 -17.554   3.394  1.00  0.00    -0.061 A 
HETATM   14  C   UNL     1      42.845 -18.223   2.109  1.00  0.00     0.048 C 
HETATM   15  C   UNL     1      43.991 -18.245   4.346  1.00  0.00     0.007 A 
HETATM   16  C   UNL     1      44.326 -17.637   5.554  1.00  0.00     0.001 A 
HETATM   17  C   UNL     1      43.893 -16.337   5.830  1.00  0.00     0.014 A 
ENDBRANCH   9  11
ENDBRANCH   5   6
ENDBRANCH   1   5
BRANCH   2  18
HETATM   18  N   UNL     1      43.196 -10.439   9.889  1.00  0.00    -0.267 N 
HETATM   19  C   UNL     1      43.260  -9.208  10.512  1.00  0.00     0.240 C 
HETATM   20  O   UNL     1      42.905  -8.172   9.949  1.00  0.00    -0.272 OA
HETATM   21  H   UNL     1      43.614 -11.285  10.276  1.00  0.00     0.190 HD
BRANCH  19  22
HETATM   22  C   UNL     1      43.762  -9.254  11.940  1.00  0.00     0.146 C 
BRANCH  22  23
HETATM   23  C   UNL     1      42.906  -8.545  12.973  1.00  0.00    -0.016 A 
HETATM   24  C   UNL     1      41.640  -9.078  13.292  1.00  0.00     0.074 A 
HETATM   25  C   UNL     1      40.825  -8.433  14.229  1.00  0.00     0.037 A 
HETATM   26  C   UNL     1      41.260  -7.266  14.859  1.00  0.00     0.003 A 
HETATM   27  C   UNL     1      42.508  -6.735  14.553  1.00  0.00     0.001 A 
HETATM   28  C   UNL     1      43.326  -7.368  13.615  1.00  0.00     0.010 A 
BRANCH  24  29
HETATM   29  O   UNL     1      41.289 -10.222  12.620  1.00  0.00    -0.355 OA
HETATM   30  C   UNL     1      39.906 -10.417  12.348  1.00  0.00     0.210 C 
ENDBRANCH  24  29
ENDBRANCH  22  23
ENDBRANCH  19  22
ENDBRANCH   2  18
TORSDOF 7
ENDMDL
