MODEL 1
REMARK VINA RESULT:      -8.2      0.000      0.000
REMARK  6 active torsions:
REMARK  status: ('A' for Active; 'I' for Inactive)
REMARK    1  A    between atoms: C_9  and  C_10 
REMARK    2  A    between atoms: C_10  and  S_11 
REMARK    3  A    between atoms: S_11  and  C_12 
REMARK    4  A    between atoms: C_12  and  C_13 
REMARK       I    between atoms: C_13  and  N_14 
REMARK    5  A    between atoms: N_14  and  N_15 
REMARK       I    between atoms: N_15  and  C_16 
REMARK    6  A    between atoms: C_16  and  C_17 
ROOT
HETATM    1  C   UNL     1      43.488 -11.177   5.862  1.00  0.00     0.245 C 
HETATM    2  N   UNL     1      44.065 -11.698   7.002  1.00  0.00    -0.267 N 
HETATM    3  O   UNL     1      42.723 -10.211   5.896  1.00  0.00    -0.271 OA
HETATM    4  H   UNL     1      44.480 -12.633   6.983  1.00  0.00     0.190 HD
ENDROOT
BRANCH   1   5
HETATM    5  C   UNL     1      43.961 -11.788   4.554  1.00  0.00     0.178 C 
BRANCH   5   6
HETATM    6  S   UNL     1      42.581 -12.161   3.426  1.00  0.00    -0.154 SA
BRANCH   6   7
HETATM    7  C   UNL     1      41.754 -13.441   4.428  1.00  0.00     0.135 C 
BRANCH   7   8
HETATM    8  C   UNL     1      42.277 -14.792   4.085  1.00  0.00     0.062 A 
HETATM    9  C   UNL     1      41.986 -15.588   2.993  1.00  0.00     0.126 A 
HETATM   10  N   UNL     1      42.695 -16.747   3.176  1.00  0.00    -0.315 N 
HETATM   11  C   UNL     1      42.738 -17.894   2.387  1.00  0.00     0.105 A 
HETATM   12  C   UNL     1      43.410 -16.597   4.358  1.00  0.00     0.134 A 
HETATM   13  C   UNL     1      43.507 -18.932   2.768  1.00  0.00    -0.046 A 
HETATM   14  C   UNL     1      43.617 -20.212   2.002  1.00  0.00     0.049 C 
HETATM   15  C   UNL     1      44.277 -18.804   4.007  1.00  0.00     0.012 A 
HETATM   16  C   UNL     1      44.228 -17.688   4.762  1.00  0.00     0.051 A 
HETATM   17  N   UNL     1      43.181 -15.425   4.913  1.00  0.00    -0.233 NA
ENDBRANCH   7   8
ENDBRANCH   6   7
ENDBRANCH   5   6
ENDBRANCH   1   5
BRANCH   2  18
HETATM   18  N   UNL     1      43.606 -11.242   8.243  1.00  0.00    -0.262 N 
HETATM   19  C   UNL     1      44.461 -10.527   9.054  1.00  0.00     0.286 C 
HETATM   20  O   UNL     1      45.616 -10.269   8.718  1.00  0.00    -0.264 OA
HETATM   21  H   UNL     1      42.676 -11.539   8.524  1.00  0.00     0.190 HD
BRANCH  19  22
HETATM   22  C   UNL     1      43.910 -10.097  10.320  1.00  0.00     0.103 A 
HETATM   23  N   UNL     1      43.231 -10.978  11.141  1.00  0.00    -0.360 N 
HETATM   24  H   UNL     1      43.078 -11.954  10.908  1.00  0.00     0.165 HD
HETATM   25  C   UNL     1      42.822 -10.349  12.285  1.00  0.00     0.107 A 
HETATM   26  C   UNL     1      43.239  -9.047  12.197  1.00  0.00     0.028 A 
HETATM   27 BR   UNL     1      42.981  -7.693  13.463  1.00  0.00    -0.050 Br
HETATM   28  C   UNL     1      43.918  -8.872  10.974  1.00  0.00     0.055 A 
ENDBRANCH  19  22
ENDBRANCH   2  18
TORSDOF 6
ENDMDL
MODEL 2
REMARK VINA RESULT:      -8.1      1.727      2.278
REMARK  6 active torsions:
REMARK  status: ('A' for Active; 'I' for Inactive)
REMARK    1  A    between atoms: C_9  and  C_10 
REMARK    2  A    between atoms: C_10  and  S_11 
REMARK    3  A    between atoms: S_11  and  C_12 
REMARK    4  A    between atoms: C_12  and  C_13 
REMARK       I    between atoms: C_13  and  N_14 
REMARK    5  A    between atoms: N_14  and  N_15 
REMARK       I    between atoms: N_15  and  C_16 
REMARK    6  A    between atoms: C_16  and  C_17 
ROOT
HETATM    1  C   UNL     1      43.797 -10.555   7.746  1.00  0.00     0.245 C 
HETATM    2  N   UNL     1      43.624 -11.162   8.972  1.00  0.00    -0.267 N 
HETATM    3  O   UNL     1      43.598  -9.350   7.575  1.00  0.00    -0.271 OA
HETATM    4  H   UNL     1      43.545 -12.181   9.031  1.00  0.00     0.190 HD
ENDROOT
BRANCH   1   5
HETATM    5  C   UNL     1      44.375 -11.441   6.655  1.00  0.00     0.178 C 
BRANCH   5   6
HETATM    6  S   UNL     1      43.123 -12.540   5.920  1.00  0.00    -0.154 SA
BRANCH   6   7
HETATM    7  C   UNL     1      43.622 -14.095   6.729  1.00  0.00     0.135 C 
BRANCH   7   8
HETATM    8  C   UNL     1      43.536 -15.233   5.773  1.00  0.00     0.062 A 
HETATM    9  C   UNL     1      44.086 -16.497   5.872  1.00  0.00     0.126 A 
HETATM   10  N   UNL     1      43.749 -17.143   4.709  1.00  0.00    -0.315 N 
HETATM   11  C   UNL     1      44.076 -18.427   4.282  1.00  0.00     0.105 A 
HETATM   12  C   UNL     1      42.985 -16.254   3.965  1.00  0.00     0.134 A 
HETATM   13  C   UNL     1      43.639 -18.859   3.083  1.00  0.00    -0.046 A 
HETATM   14  C   UNL     1      43.940 -20.213   2.525  1.00  0.00     0.049 C 
HETATM   15  C   UNL     1      42.826 -17.946   2.275  1.00  0.00     0.012 A 
HETATM   16  C   UNL     1      42.517 -16.706   2.700  1.00  0.00     0.051 A 
HETATM   17  N   UNL     1      42.836 -15.105   4.592  1.00  0.00    -0.233 NA
ENDBRANCH   7   8
ENDBRANCH   6   7
ENDBRANCH   5   6
ENDBRANCH   1   5
BRANCH   2  18
HETATM   18  N   UNL     1      43.011 -10.427   9.993  1.00  0.00    -0.262 N 
HETATM   19  C   UNL     1      43.369 -10.667  11.302  1.00  0.00     0.286 C 
HETATM   20  O   UNL     1      44.219 -11.504  11.603  1.00  0.00    -0.264 OA
HETATM   21  H   UNL     1      42.257  -9.802   9.718  1.00  0.00     0.190 HD
BRANCH  19  22
HETATM   22  C   UNL     1      42.686  -9.868  12.295  1.00  0.00     0.103 A 
HETATM   23  N   UNL     1      41.444 -10.237  12.778  1.00  0.00    -0.360 N 
HETATM   24  H   UNL     1      40.948 -11.066  12.469  1.00  0.00     0.165 HD
HETATM   25  C   UNL     1      41.010  -9.341  13.717  1.00  0.00     0.107 A 
HETATM   26  C   UNL     1      41.982  -8.383  13.836  1.00  0.00     0.028 A 
HETATM   27 BR   UNL     1      41.964  -6.895  14.971  1.00  0.00    -0.050 Br
HETATM   28  C   UNL     1      43.034  -8.696  12.952  1.00  0.00     0.055 A 
ENDBRANCH  19  22
ENDBRANCH   2  18
TORSDOF 6
ENDMDL
MODEL 3
REMARK VINA RESULT:      -8.1      5.895      8.081
REMARK  6 active torsions:
REMARK  status: ('A' for Active; 'I' for Inactive)
REMARK    1  A    between atoms: C_9  and  C_10 
REMARK    2  A    between atoms: C_10  and  S_11 
REMARK    3  A    between atoms: S_11  and  C_12 
REMARK    4  A    between atoms: C_12  and  C_13 
REMARK       I    between atoms: C_13  and  N_14 
REMARK    5  A    between atoms: N_14  and  N_15 
REMARK       I    between atoms: N_15  and  C_16 
REMARK    6  A    between atoms: C_16  and  C_17 
ROOT
HETATM    1  C   UNL     1      40.339 -13.629   4.624  1.00  0.00     0.245 C 
HETATM    2  N   UNL     1      40.613 -14.616   3.700  1.00  0.00    -0.267 N 
HETATM    3  O   UNL     1      39.578 -12.691   4.377  1.00  0.00    -0.271 OA
HETATM    4  H   UNL     1      41.425 -15.225   3.829  1.00  0.00     0.190 HD
ENDROOT
BRANCH   1   5
HETATM    5  C   UNL     1      40.933 -13.847   6.006  1.00  0.00     0.178 C 
BRANCH   5   6
HETATM    6  S   UNL     1      42.748 -13.708   6.009  1.00  0.00    -0.154 SA
BRANCH   6   7
HETATM    7  C   UNL     1      43.129 -15.193   6.996  1.00  0.00     0.135 C 
BRANCH   7   8
HETATM    8  C   UNL     1      43.342 -16.370   6.110  1.00  0.00     0.062 A 
HETATM    9  C   UNL     1      43.330 -16.434   4.729  1.00  0.00     0.126 A 
HETATM   10  N   UNL     1      43.533 -17.754   4.415  1.00  0.00    -0.315 N 
HETATM   11  C   UNL     1      43.580 -18.370   3.167  1.00  0.00     0.105 A 
HETATM   12  C   UNL     1      43.688 -18.432   5.617  1.00  0.00     0.134 A 
HETATM   13  C   UNL     1      43.786 -19.699   3.092  1.00  0.00    -0.046 A 
HETATM   14  C   UNL     1      43.844 -20.462   1.806  1.00  0.00     0.049 C 
HETATM   15  C   UNL     1      43.958 -20.443   4.341  1.00  0.00     0.012 A 
HETATM   16  C   UNL     1      43.911 -19.835   5.543  1.00  0.00     0.051 A 
HETATM   17  N   UNL     1      43.588 -17.617   6.646  1.00  0.00    -0.233 NA
ENDBRANCH   7   8
ENDBRANCH   6   7
ENDBRANCH   5   6
ENDBRANCH   1   5
BRANCH   2  18
HETATM   18  N   UNL     1      40.173 -14.430   2.385  1.00  0.00    -0.262 N 
HETATM   19  C   UNL     1      41.099 -14.173   1.397  1.00  0.00     0.286 C 
HETATM   20  O   UNL     1      42.305 -14.110   1.633  1.00  0.00    -0.264 OA
HETATM   21  H   UNL     1      39.168 -14.409   2.236  1.00  0.00     0.190 HD
BRANCH  19  22
HETATM   22  C   UNL     1      40.562 -13.989   0.066  1.00  0.00     0.103 A 
HETATM   23  N   UNL     1      41.003 -12.961  -0.746  1.00  0.00    -0.360 N 
HETATM   24  H   UNL     1      41.709 -12.290  -0.465  1.00  0.00     0.165 HD
HETATM   25  C   UNL     1      40.366 -13.001  -1.957  1.00  0.00     0.107 A 
HETATM   26  C   UNL     1      39.502 -14.064  -1.920  1.00  0.00     0.028 A 
HETATM   27 BR   UNL     1      38.356 -14.632  -3.286  1.00  0.00    -0.050 Br
HETATM   28  C   UNL     1      39.610 -14.689  -0.662  1.00  0.00     0.055 A 
ENDBRANCH  19  22
ENDBRANCH   2  18
TORSDOF 6
ENDMDL
MODEL 4
REMARK VINA RESULT:      -7.7      5.482      7.885
REMARK  6 active torsions:
REMARK  status: ('A' for Active; 'I' for Inactive)
REMARK    1  A    between atoms: C_9  and  C_10 
REMARK    2  A    between atoms: C_10  and  S_11 
REMARK    3  A    between atoms: S_11  and  C_12 
REMARK    4  A    between atoms: C_12  and  C_13 
REMARK       I    between atoms: C_13  and  N_14 
REMARK    5  A    between atoms: N_14  and  N_15 
REMARK       I    between atoms: N_15  and  C_16 
REMARK    6  A    between atoms: C_16  and  C_17 
ROOT
HETATM    1  C   UNL     1      42.423 -11.785   3.630  1.00  0.00     0.245 C 
HETATM    2  N   UNL     1      41.084 -12.108   3.540  1.00  0.00    -0.267 N 
HETATM    3  O   UNL     1      43.069 -11.386   2.659  1.00  0.00    -0.271 OA
HETATM    4  H   UNL     1      40.644 -12.668   4.275  1.00  0.00     0.190 HD
ENDROOT
BRANCH   1   5
HETATM    5  C   UNL     1      43.011 -11.829   5.030  1.00  0.00     0.178 C 
BRANCH   5   6
HETATM    6  S   UNL     1      42.201 -13.074   6.083  1.00  0.00    -0.154 SA
BRANCH   6   7
HETATM    7  C   UNL     1      43.633 -14.172   6.351  1.00  0.00     0.135 C 
BRANCH   7   8
HETATM    8  C   UNL     1      43.547 -15.367   5.467  1.00  0.00     0.062 A 
HETATM    9  C   UNL     1      44.098 -16.622   5.645  1.00  0.00     0.126 A 
HETATM   10  N   UNL     1      43.760 -17.339   4.525  1.00  0.00    -0.315 N 
HETATM   11  C   UNL     1      44.087 -18.648   4.180  1.00  0.00     0.105 A 
HETATM   12  C   UNL     1      42.995 -16.499   3.727  1.00  0.00     0.134 A 
HETATM   13  C   UNL     1      43.649 -19.154   3.010  1.00  0.00    -0.046 A 
HETATM   14  C   UNL     1      43.950 -20.541   2.537  1.00  0.00     0.049 C 
HETATM   15  C   UNL     1      42.836 -18.294   2.147  1.00  0.00     0.012 A 
HETATM   16  C   UNL     1      42.526 -17.029   2.494  1.00  0.00     0.051 A 
HETATM   17  N   UNL     1      42.845 -15.313   4.281  1.00  0.00    -0.233 NA
ENDBRANCH   7   8
ENDBRANCH   6   7
ENDBRANCH   5   6
ENDBRANCH   1   5
BRANCH   2  18
HETATM   18  N   UNL     1      40.505 -12.176   2.268  1.00  0.00    -0.262 N 
HETATM   19  C   UNL     1      40.061 -13.392   1.797  1.00  0.00     0.286 C 
HETATM   20  O   UNL     1      40.150 -14.423   2.463  1.00  0.00    -0.264 OA
HETATM   21  H   UNL     1      40.519 -11.325   1.713  1.00  0.00     0.190 HD
BRANCH  19  22
HETATM   22  C   UNL     1      39.479 -13.377   0.473  1.00  0.00     0.103 A 
HETATM   23  N   UNL     1      38.664 -12.339   0.062  1.00  0.00    -0.360 N 
HETATM   24  H   UNL     1      38.428 -11.547   0.650  1.00  0.00     0.165 HD
HETATM   25  C   UNL     1      38.251 -12.536  -1.228  1.00  0.00     0.107 A 
HETATM   26  C   UNL     1      38.803 -13.717  -1.649  1.00  0.00     0.028 A 
HETATM   27 BR   UNL     1      38.606 -14.516  -3.330  1.00  0.00    -0.050 Br
HETATM   28  C   UNL     1      39.571 -14.257  -0.598  1.00  0.00     0.055 A 
ENDBRANCH  19  22
ENDBRANCH   2  18
TORSDOF 6
ENDMDL
MODEL 5
REMARK VINA RESULT:      -7.7      5.628      8.182
REMARK  6 active torsions:
REMARK  status: ('A' for Active; 'I' for Inactive)
REMARK    1  A    between atoms: C_9  and  C_10 
REMARK    2  A    between atoms: C_10  and  S_11 
REMARK    3  A    between atoms: S_11  and  C_12 
REMARK    4  A    between atoms: C_12  and  C_13 
REMARK       I    between atoms: C_13  and  N_14 
REMARK    5  A    between atoms: N_14  and  N_15 
REMARK       I    between atoms: N_15  and  C_16 
REMARK    6  A    between atoms: C_16  and  C_17 
ROOT
HETATM    1  C   UNL     1      40.062 -13.343   5.564  1.00  0.00     0.245 C 
HETATM    2  N   UNL     1      40.940 -13.585   4.528  1.00  0.00    -0.267 N 
HETATM    3  O   UNL     1      39.875 -14.157   6.470  1.00  0.00    -0.271 OA
HETATM    4  H   UNL     1      40.888 -13.024   3.673  1.00  0.00     0.190 HD
ENDROOT
BRANCH   1   5
HETATM    5  C   UNL     1      39.444 -11.955   5.584  1.00  0.00     0.178 C 
BRANCH   5   6
HETATM    6  S   UNL     1      40.250 -10.821   4.410  1.00  0.00    -0.154 SA
BRANCH   6   7
HETATM    7  C   UNL     1      38.831 -10.528   3.303  1.00  0.00     0.135 C 
BRANCH   7   8
HETATM    8  C   UNL     1      38.940 -11.367   2.078  1.00  0.00     0.062 A 
HETATM    9  C   UNL     1      38.286 -11.233   0.868  1.00  0.00     0.126 A 
HETATM   10  N   UNL     1      38.708 -12.285   0.097  1.00  0.00    -0.315 N 
HETATM   11  C   UNL     1      38.336 -12.640  -1.197  1.00  0.00     0.105 A 
HETATM   12  C   UNL     1      39.622 -13.000   0.860  1.00  0.00     0.134 A 
HETATM   13  C   UNL     1      38.877 -13.735  -1.766  1.00  0.00    -0.046 A 
HETATM   14  C   UNL     1      38.541 -14.211  -3.144  1.00  0.00     0.049 C 
HETATM   15  C   UNL     1      39.849 -14.508  -0.989  1.00  0.00     0.012 A 
HETATM   16  C   UNL     1      40.201 -14.153   0.262  1.00  0.00     0.051 A 
HETATM   17  N   UNL     1      39.785 -12.457   2.049  1.00  0.00    -0.233 NA
ENDBRANCH   7   8
ENDBRANCH   6   7
ENDBRANCH   5   6
ENDBRANCH   1   5
BRANCH   2  18
HETATM   18  N   UNL     1      41.472 -14.873   4.400  1.00  0.00    -0.262 N 
HETATM   19  C   UNL     1      42.484 -15.094   3.491  1.00  0.00     0.286 C 
HETATM   20  O   UNL     1      42.942 -14.192   2.791  1.00  0.00    -0.264 OA
HETATM   21  H   UNL     1      41.020 -15.611   4.933  1.00  0.00     0.190 HD
BRANCH  19  22
HETATM   22  C   UNL     1      42.976 -16.452   3.418  1.00  0.00     0.103 A 
HETATM   23  N   UNL     1      43.793 -16.971   4.405  1.00  0.00    -0.360 N 
HETATM   24  H   UNL     1      44.093 -16.442   5.217  1.00  0.00     0.165 HD
HETATM   25  C   UNL     1      44.112 -18.272   4.128  1.00  0.00     0.107 A 
HETATM   26  C   UNL     1      43.497 -18.592   2.946  1.00  0.00     0.028 A 
HETATM   27 BR   UNL     1      43.556 -20.237   2.055  1.00  0.00    -0.050 Br
HETATM   28  C   UNL     1      42.785 -17.466   2.488  1.00  0.00     0.055 A 
ENDBRANCH  19  22
ENDBRANCH   2  18
TORSDOF 6
ENDMDL
MODEL 6
REMARK VINA RESULT:      -7.3      2.104      2.270
REMARK  6 active torsions:
REMARK  status: ('A' for Active; 'I' for Inactive)
REMARK    1  A    between atoms: C_9  and  C_10 
REMARK    2  A    between atoms: C_10  and  S_11 
REMARK    3  A    between atoms: S_11  and  C_12 
REMARK    4  A    between atoms: C_12  and  C_13 
REMARK       I    between atoms: C_13  and  N_14 
REMARK    5  A    between atoms: N_14  and  N_15 
REMARK       I    between atoms: N_15  and  C_16 
REMARK    6  A    between atoms: C_16  and  C_17 
ROOT
HETATM    1  C   UNL     1      39.838 -11.133   6.778  1.00  0.00     0.245 C 
HETATM    2  N   UNL     1      40.902 -10.329   7.130  1.00  0.00    -0.267 N 
HETATM    3  O   UNL     1      38.808 -11.194   7.454  1.00  0.00    -0.271 OA
HETATM    4  H   UNL     1      41.821 -10.485   6.709  1.00  0.00     0.190 HD
ENDROOT
BRANCH   1   5
HETATM    5  C   UNL     1      39.967 -11.836   5.437  1.00  0.00     0.178 C 
BRANCH   5   6
HETATM    6  S   UNL     1      40.538 -13.556   5.609  1.00  0.00    -0.154 SA
BRANCH   6   7
HETATM    7  C   UNL     1      41.999 -13.464   4.521  1.00  0.00     0.135 C 
BRANCH   7   8
HETATM    8  C   UNL     1      42.465 -14.829   4.155  1.00  0.00     0.062 A 
HETATM    9  C   UNL     1      42.183 -15.572   3.023  1.00  0.00     0.126 A 
HETATM   10  N   UNL     1      42.821 -16.773   3.197  1.00  0.00    -0.315 N 
HETATM   11  C   UNL     1      42.838 -17.894   2.371  1.00  0.00     0.105 A 
HETATM   12  C   UNL     1      43.487 -16.701   4.414  1.00  0.00     0.134 A 
HETATM   13  C   UNL     1      43.534 -18.985   2.748  1.00  0.00    -0.046 A 
HETATM   14  C   UNL     1      43.611 -20.243   1.943  1.00  0.00     0.049 C 
HETATM   15  C   UNL     1      44.251 -18.939   4.024  1.00  0.00     0.012 A 
HETATM   16  C   UNL     1      44.226 -17.848   4.815  1.00  0.00     0.051 A 
HETATM   17  N   UNL     1      43.295 -15.537   4.999  1.00  0.00    -0.233 NA
ENDBRANCH   7   8
ENDBRANCH   6   7
ENDBRANCH   5   6
ENDBRANCH   1   5
BRANCH   2  18
HETATM   18  N   UNL     1      40.885  -9.727   8.393  1.00  0.00    -0.262 N 
HETATM   19  C   UNL     1      42.079  -9.368   8.981  1.00  0.00     0.286 C 
HETATM   20  O   UNL     1      43.162  -9.552   8.427  1.00  0.00    -0.264 OA
HETATM   21  H   UNL     1      39.984  -9.661   8.858  1.00  0.00     0.190 HD
BRANCH  19  22
HETATM   22  C   UNL     1      41.975  -8.756  10.288  1.00  0.00     0.103 A 
HETATM   23  N   UNL     1      40.753  -8.351  10.792  1.00  0.00    -0.360 N 
HETATM   24  H   UNL     1      39.879  -8.453  10.288  1.00  0.00     0.165 HD
HETATM   25  C   UNL     1      40.905  -7.821  12.045  1.00  0.00     0.107 A 
HETATM   26  C   UNL     1      42.240  -7.881  12.346  1.00  0.00     0.028 A 
HETATM   27 BR   UNL     1      43.064  -7.309  13.927  1.00  0.00    -0.050 Br
HETATM   28  C   UNL     1      42.923  -8.459  11.258  1.00  0.00     0.055 A 
ENDBRANCH  19  22
ENDBRANCH   2  18
TORSDOF 6
ENDMDL
MODEL 7
REMARK VINA RESULT:      -6.9      3.869     10.363
REMARK  6 active torsions:
REMARK  status: ('A' for Active; 'I' for Inactive)
REMARK    1  A    between atoms: C_9  and  C_10 
REMARK    2  A    between atoms: C_10  and  S_11 
REMARK    3  A    between atoms: S_11  and  C_12 
REMARK    4  A    between atoms: C_12  and  C_13 
REMARK       I    between atoms: C_13  and  N_14 
REMARK    5  A    between atoms: N_14  and  N_15 
REMARK       I    between atoms: N_15  and  C_16 
REMARK    6  A    between atoms: C_16  and  C_17 
ROOT
HETATM    1  C   UNL     1      43.146 -11.333   6.490  1.00  0.00     0.245 C 
HETATM    2  N   UNL     1      42.530 -12.503   6.885  1.00  0.00    -0.267 N 
HETATM    3  O   UNL     1      43.999 -11.308   5.601  1.00  0.00    -0.271 OA
HETATM    4  H   UNL     1      42.028 -12.540   7.776  1.00  0.00     0.190 HD
ENDROOT
BRANCH   1   5
HETATM    5  C   UNL     1      42.609 -10.065   7.131  1.00  0.00     0.178 C 
BRANCH   5   6
HETATM    6  S   UNL     1      43.853  -9.232   8.167  1.00  0.00    -0.154 SA
BRANCH   6   7
HETATM    7  C   UNL     1      43.884 -10.416   9.553  1.00  0.00     0.135 C 
BRANCH   7   8
HETATM    8  C   UNL     1      43.384  -9.774  10.800  1.00  0.00     0.062 A 
HETATM    9  C   UNL     1      43.912  -8.709  11.504  1.00  0.00     0.126 A 
HETATM   10  N   UNL     1      43.100  -8.544  12.596  1.00  0.00    -0.315 N 
HETATM   11  C   UNL     1      43.199  -7.633  13.644  1.00  0.00     0.105 A 
HETATM   12  C   UNL     1      42.095  -9.498  12.496  1.00  0.00     0.134 A 
HETATM   13  C   UNL     1      42.282  -7.655  14.631  1.00  0.00    -0.046 A 
HETATM   14  C   UNL     1      42.301  -6.730  15.807  1.00  0.00     0.049 C 
HETATM   15  C   UNL     1      41.207  -8.646  14.553  1.00  0.00     0.012 A 
HETATM   16  C   UNL     1      41.122  -9.523  13.533  1.00  0.00     0.051 A 
HETATM   17  N   UNL     1      42.242 -10.239  11.417  1.00  0.00    -0.233 NA
ENDBRANCH   7   8
ENDBRANCH   6   7
ENDBRANCH   5   6
ENDBRANCH   1   5
BRANCH   2  18
HETATM   18  N   UNL     1      43.038 -13.713   6.401  1.00  0.00    -0.262 N 
HETATM   19  C   UNL     1      42.350 -14.383   5.413  1.00  0.00     0.286 C 
HETATM   20  O   UNL     1      41.304 -13.947   4.934  1.00  0.00    -0.264 OA
HETATM   21  H   UNL     1      43.858 -14.086   6.872  1.00  0.00     0.190 HD
BRANCH  19  22
HETATM   22  C   UNL     1      42.940 -15.628   4.972  1.00  0.00     0.103 A 
HETATM   23  N   UNL     1      43.883 -16.284   5.742  1.00  0.00    -0.360 N 
HETATM   24  H   UNL     1      44.212 -15.939   6.637  1.00  0.00     0.165 HD
HETATM   25  C   UNL     1      44.278 -17.443   5.129  1.00  0.00     0.107 A 
HETATM   26  C   UNL     1      43.586 -17.529   3.951  1.00  0.00     0.028 A 
HETATM   27 BR   UNL     1      43.695 -18.897   2.678  1.00  0.00    -0.050 Br
HETATM   28  C   UNL     1      42.748 -16.402   3.836  1.00  0.00     0.055 A 
ENDBRANCH  19  22
ENDBRANCH   2  18
TORSDOF 6
ENDMDL
MODEL 8
REMARK VINA RESULT:      -6.8     17.190     18.887
REMARK  6 active torsions:
REMARK  status: ('A' for Active; 'I' for Inactive)
REMARK    1  A    between atoms: C_9  and  C_10 
REMARK    2  A    between atoms: C_10  and  S_11 
REMARK    3  A    between atoms: S_11  and  C_12 
REMARK    4  A    between atoms: C_12  and  C_13 
REMARK       I    between atoms: C_13  and  N_14 
REMARK    5  A    between atoms: N_14  and  N_15 
REMARK       I    between atoms: N_15  and  C_16 
REMARK    6  A    between atoms: C_16  and  C_17 
ROOT
HETATM    1  C   UNL     1      46.217 -29.077   1.889  1.00  0.00     0.245 C 
HETATM    2  N   UNL     1      45.114 -28.455   2.435  1.00  0.00    -0.267 N 
HETATM    3  O   UNL     1      46.279 -30.300   1.747  1.00  0.00    -0.271 OA
HETATM    4  H   UNL     1      45.186 -27.492   2.773  1.00  0.00     0.190 HD
ENDROOT
BRANCH   1   5
HETATM    5  C   UNL     1      47.293 -28.146   1.355  1.00  0.00     0.178 C 
BRANCH   5   6
HETATM    6  S   UNL     1      47.675 -28.462  -0.397  1.00  0.00    -0.154 SA
BRANCH   6   7
HETATM    7  C   UNL     1      46.015 -28.162  -1.091  1.00  0.00     0.135 C 
BRANCH   7   8
HETATM    8  C   UNL     1      45.784 -29.024  -2.283  1.00  0.00     0.062 A 
HETATM    9  C   UNL     1      46.561 -30.055  -2.777  1.00  0.00     0.126 A 
HETATM   10  N   UNL     1      45.928 -30.487  -3.914  1.00  0.00    -0.315 N 
HETATM   11  C   UNL     1      46.303 -31.483  -4.812  1.00  0.00     0.105 A 
HETATM   12  C   UNL     1      44.778 -29.720  -4.049  1.00  0.00     0.134 A 
HETATM   13  C   UNL     1      45.524 -31.739  -5.881  1.00  0.00    -0.046 A 
HETATM   14  C   UNL     1      45.838 -32.778  -6.911  1.00  0.00     0.049 C 
HETATM   15  C   UNL     1      44.302 -30.950  -6.050  1.00  0.00     0.012 A 
HETATM   16  C   UNL     1      43.950 -29.989  -5.173  1.00  0.00     0.051 A 
HETATM   17  N   UNL     1      44.668 -28.843  -3.072  1.00  0.00    -0.233 NA
ENDBRANCH   7   8
ENDBRANCH   6   7
ENDBRANCH   5   6
ENDBRANCH   1   5
BRANCH   2  18
HETATM   18  N   UNL     1      44.130 -29.255   3.026  1.00  0.00    -0.262 N 
HETATM   19  C   UNL     1      42.959 -29.496   2.340  1.00  0.00     0.286 C 
HETATM   20  O   UNL     1      42.754 -29.038   1.217  1.00  0.00    -0.264 OA
HETATM   21  H   UNL     1      44.295 -29.552   3.984  1.00  0.00     0.190 HD
BRANCH  19  22
HETATM   22  C   UNL     1      41.993 -30.328   3.023  1.00  0.00     0.103 A 
HETATM   23  N   UNL     1      41.825 -30.252   4.393  1.00  0.00    -0.360 N 
HETATM   24  H   UNL     1      42.358 -29.626   4.987  1.00  0.00     0.165 HD
HETATM   25  C   UNL     1      40.847 -31.116   4.804  1.00  0.00     0.107 A 
HETATM   26  C   UNL     1      40.384 -31.759   3.687  1.00  0.00     0.028 A 
HETATM   27 BR   UNL     1      39.038 -33.056   3.610  1.00  0.00    -0.050 Br
HETATM   28  C   UNL     1      41.092 -31.281   2.566  1.00  0.00     0.055 A 
ENDBRANCH  19  22
ENDBRANCH   2  18
TORSDOF 6
ENDMDL
MODEL 9
REMARK VINA RESULT:      -6.6     18.216     20.438
REMARK  6 active torsions:
REMARK  status: ('A' for Active; 'I' for Inactive)
REMARK    1  A    between atoms: C_9  and  C_10 
REMARK    2  A    between atoms: C_10  and  S_11 
REMARK    3  A    between atoms: S_11  and  C_12 
REMARK    4  A    between atoms: C_12  and  C_13 
REMARK       I    between atoms: C_13  and  N_14 
REMARK    5  A    between atoms: N_14  and  N_15 
REMARK       I    between atoms: N_15  and  C_16 
REMARK    6  A    between atoms: C_16  and  C_17 
ROOT
HETATM    1  C   UNL     1      49.266 -30.357   2.421  1.00  0.00     0.245 C 
HETATM    2  N   UNL     1      49.607 -29.918   1.159  1.00  0.00    -0.267 N 
HETATM    3  O   UNL     1      49.903 -31.236   3.005  1.00  0.00    -0.271 OA
HETATM    4  H   UNL     1      48.931 -29.388   0.603  1.00  0.00     0.190 HD
ENDROOT
BRANCH   1   5
HETATM    5  C   UNL     1      48.137 -29.594   3.094  1.00  0.00     0.178 C 
BRANCH   5   6
HETATM    6  S   UNL     1      47.368 -28.373   1.984  1.00  0.00    -0.154 SA
BRANCH   6   7
HETATM    7  C   UNL     1      45.775 -29.220   1.717  1.00  0.00     0.135 C 
BRANCH   7   8
HETATM    8  C   UNL     1      45.437 -29.252   0.267  1.00  0.00     0.062 A 
HETATM    9  C   UNL     1      44.815 -30.250  -0.460  1.00  0.00     0.126 A 
HETATM   10  N   UNL     1      44.784 -29.802  -1.756  1.00  0.00    -0.315 N 
HETATM   11  C   UNL     1      44.296 -30.431  -2.898  1.00  0.00     0.105 A 
HETATM   12  C   UNL     1      45.362 -28.540  -1.758  1.00  0.00     0.134 A 
HETATM   13  C   UNL     1      44.376 -29.802  -4.087  1.00  0.00    -0.046 A 
HETATM   14  C   UNL     1      43.893 -30.389  -5.375  1.00  0.00     0.049 C 
HETATM   15  C   UNL     1      44.977 -28.467  -4.122  1.00  0.00     0.012 A 
HETATM   16  C   UNL     1      45.445 -27.869  -3.009  1.00  0.00     0.051 A 
HETATM   17  N   UNL     1      45.750 -28.187  -0.550  1.00  0.00    -0.233 NA
ENDBRANCH   7   8
ENDBRANCH   6   7
ENDBRANCH   5   6
ENDBRANCH   1   5
BRANCH   2  18
HETATM   18  N   UNL     1      50.576 -30.635   0.449  1.00  0.00    -0.262 N 
HETATM   19  C   UNL     1      50.706 -30.428  -0.907  1.00  0.00     0.286 C 
HETATM   20  O   UNL     1      50.000 -29.624  -1.515  1.00  0.00    -0.264 OA
HETATM   21  H   UNL     1      51.087 -31.347   0.964  1.00  0.00     0.190 HD
BRANCH  19  22
HETATM   22  C   UNL     1      51.727 -31.212  -1.567  1.00  0.00     0.103 A 
HETATM   23  N   UNL     1      51.890 -31.164  -2.938  1.00  0.00    -0.360 N 
HETATM   24  H   UNL     1      51.316 -30.594  -3.550  1.00  0.00     0.165 HD
HETATM   25  C   UNL     1      52.925 -31.971  -3.326  1.00  0.00     0.107 A 
HETATM   26  C   UNL     1      53.429 -32.549  -2.190  1.00  0.00     0.028 A 
HETATM   27 BR   UNL     1      54.861 -33.749  -2.078  1.00  0.00    -0.050 Br
HETATM   28  C   UNL     1      52.690 -32.087  -1.083  1.00  0.00     0.055 A 
ENDBRANCH  19  22
ENDBRANCH   2  18
TORSDOF 6
ENDMDL
MODEL 10
REMARK VINA RESULT:      -6.5      4.371      5.661
REMARK  6 active torsions:
REMARK  status: ('A' for Active; 'I' for Inactive)
REMARK    1  A    between atoms: C_9  and  C_10 
REMARK    2  A    between atoms: C_10  and  S_11 
REMARK    3  A    between atoms: S_11  and  C_12 
REMARK    4  A    between atoms: C_12  and  C_13 
REMARK       I    between atoms: C_13  and  N_14 
REMARK    5  A    between atoms: N_14  and  N_15 
REMARK       I    between atoms: N_15  and  C_16 
REMARK    6  A    between atoms: C_16  and  C_17 
ROOT
HETATM    1  C   UNL     1      43.013 -14.322   7.223  1.00  0.00     0.245 C 
HETATM    2  N   UNL     1      41.757 -14.088   6.701  1.00  0.00    -0.267 N 
HETATM    3  O   UNL     1      43.793 -13.407   7.492  1.00  0.00    -0.271 OA
HETATM    4  H   UNL     1      41.240 -14.850   6.255  1.00  0.00     0.190 HD
ENDROOT
BRANCH   1   5
HETATM    5  C   UNL     1      43.317 -15.771   7.566  1.00  0.00     0.178 C 
BRANCH   5   6
HETATM    6  S   UNL     1      42.617 -16.931   6.349  1.00  0.00    -0.154 SA
BRANCH   6   7
HETATM    7  C   UNL     1      43.678 -16.504   4.929  1.00  0.00     0.135 C 
BRANCH   7   8
HETATM    8  C   UNL     1      42.883 -15.828   3.867  1.00  0.00     0.062 A 
HETATM    9  C   UNL     1      42.092 -16.389   2.882  1.00  0.00     0.126 A 
HETATM   10  N   UNL     1      41.620 -15.337   2.139  1.00  0.00    -0.315 N 
HETATM   11  C   UNL     1      40.805 -15.345   1.011  1.00  0.00     0.105 A 
HETATM   12  C   UNL     1      42.121 -14.179   2.721  1.00  0.00     0.134 A 
HETATM   13  C   UNL     1      40.467 -14.178   0.428  1.00  0.00    -0.046 A 
HETATM   14  C   UNL     1      39.608 -14.073  -0.792  1.00  0.00     0.049 C 
HETATM   15  C   UNL     1      40.976 -12.938   1.020  1.00  0.00     0.012 A 
HETATM   16  C   UNL     1      41.764 -12.944   2.113  1.00  0.00     0.051 A 
HETATM   17  N   UNL     1      42.873 -14.453   3.767  1.00  0.00    -0.233 NA
ENDBRANCH   7   8
ENDBRANCH   6   7
ENDBRANCH   5   6
ENDBRANCH   1   5
BRANCH   2  18
HETATM   18  N   UNL     1      41.448 -12.790   6.280  1.00  0.00    -0.262 N 
HETATM   19  C   UNL     1      40.130 -12.449   6.069  1.00  0.00     0.286 C 
HETATM   20  O   UNL     1      39.212 -13.248   6.248  1.00  0.00    -0.264 OA
HETATM   21  H   UNL     1      42.232 -12.180   6.065  1.00  0.00     0.190 HD
BRANCH  19  22
HETATM   22  C   UNL     1      39.896 -11.090   5.631  1.00  0.00     0.103 A 
HETATM   23  N   UNL     1      40.948 -10.222   5.404  1.00  0.00    -0.360 N 
HETATM   24  H   UNL     1      41.921 -10.477   5.532  1.00  0.00     0.165 HD
HETATM   25  C   UNL     1      40.482  -9.007   4.980  1.00  0.00     0.107 A 
HETATM   26  C   UNL     1      39.115  -9.094   4.940  1.00  0.00     0.028 A 
HETATM   27 BR   UNL     1      37.916  -7.750   4.431  1.00  0.00    -0.050 Br
HETATM   28  C   UNL     1      38.733 -10.388   5.346  1.00  0.00     0.055 A 
ENDBRANCH  19  22
ENDBRANCH   2  18
TORSDOF 6
ENDMDL
