MODEL 1
REMARK VINA RESULT:      -8.9      0.000      0.000
REMARK  6 active torsions:
REMARK  status: ('A' for Active; 'I' for Inactive)
REMARK    1  A    between atoms: O_2  and  C_3 
REMARK    2  A    between atoms: C_4  and  C_5 
REMARK    3  A    between atoms: C_5  and  N_6 
REMARK       I    between atoms: N_6  and  C_7 
REMARK    4  A    between atoms: C_7  and  C_8 
REMARK    5  A    between atoms: C_8  and  O_9 
REMARK    6  A    between atoms: N_10  and  C_11 
ROOT
HETATM    1  C   UNL     1      40.623 -14.830   2.944  1.00  0.00     0.256 C 
HETATM    2  N   UNL     1      40.887 -13.524   2.313  1.00  0.00    -0.254 N 
HETATM    3  C   UNL     1      41.940 -12.747   2.780  1.00  0.00     0.330 C 
HETATM    4  O   UNL     1      42.490 -11.840   2.153  1.00  0.00    -0.246 OA
HETATM    5  N   UNL     1      42.429 -13.020   4.022  1.00  0.00    -0.308 N 
HETATM    6  C   UNL     1      41.910 -13.962   4.897  1.00  0.00     0.048 A 
HETATM    7  C   UNL     1      40.967 -14.861   4.421  1.00  0.00     0.034 A 
HETATM    8  C   UNL     1      42.336 -13.986   6.226  1.00  0.00     0.030 A 
HETATM    9  C   UNL     1      41.792 -14.919   7.107  1.00  0.00     0.002 A 
HETATM   10  C   UNL     1      40.842 -15.829   6.652  1.00  0.00     0.001 A 
HETATM   11  C   UNL     1      40.437 -15.808   5.315  1.00  0.00     0.015 A 
HETATM   12  H   UNL     1      43.136 -12.371   4.343  1.00  0.00     0.170 HD
ENDROOT
BRANCH   1  13
HETATM   13  C   UNL     1      41.400 -16.000   2.213  1.00  0.00     0.279 C 
HETATM   14  N   UNL     1      42.724 -16.191   2.540  1.00  0.00    -0.352 N 
HETATM   15  H   UNL     1      43.207 -15.478   3.073  1.00  0.00     0.162 HD
HETATM   16  O   UNL     1      40.796 -16.725   1.414  1.00  0.00    -0.268 OA
BRANCH  14  17
HETATM   17  C   UNL     1      43.538 -17.219   1.921  1.00  0.00     0.164 C 
BRANCH  17  18
HETATM   18  C   UNL     1      43.717 -18.466   2.760  1.00  0.00    -0.007 A 
HETATM   19  C   UNL     1      43.973 -18.328   4.143  1.00  0.00     0.076 A 
HETATM   20  C   UNL     1      44.116 -19.464   4.946  1.00  0.00     0.037 A 
HETATM   21  C   UNL     1      44.014 -20.740   4.389  1.00  0.00     0.003 A 
HETATM   22  C   UNL     1      43.763 -20.888   3.029  1.00  0.00     0.001 A 
HETATM   23  C   UNL     1      43.613 -19.760   2.220  1.00  0.00     0.011 A 
BRANCH  19  24
HETATM   24  O   UNL     1      44.041 -17.040   4.611  1.00  0.00    -0.355 OA
HETATM   25  C   UNL     1      44.679 -16.841   5.868  1.00  0.00     0.210 C 
ENDBRANCH  19  24
ENDBRANCH  17  18
ENDBRANCH  14  17
ENDBRANCH   1  13
BRANCH   1  26
HETATM   26  O   UNL     1      39.213 -15.093   2.879  1.00  0.00    -0.359 OA
HETATM   27  H   UNL     1      38.799 -14.363   3.380  1.00  0.00     0.213 HD
ENDBRANCH   1  26
BRANCH   2  28
HETATM   28  C   UNL     1      40.182 -13.134   1.114  1.00  0.00     0.043 A 
HETATM   29  C   UNL     1      40.407 -13.745  -0.131  1.00  0.00     0.031 A 
HETATM   30  C   UNL     1      39.685 -13.365  -1.271  1.00  0.00     0.026 A 
HETATM   31  C   UNL     1      38.714 -12.375  -1.182  1.00  0.00     0.034 A 
HETATM   32 CL   UNL     1      37.819 -11.921  -2.578  1.00  0.00    -0.084 Cl
HETATM   33  C   UNL     1      38.463 -11.758   0.036  1.00  0.00     0.026 A 
HETATM   34  C   UNL     1      39.192 -12.135   1.170  1.00  0.00     0.031 A 
ENDBRANCH   2  28
TORSDOF 6
ENDMDL
MODEL 2
REMARK VINA RESULT:      -8.6      3.019      7.129
REMARK  6 active torsions:
REMARK  status: ('A' for Active; 'I' for Inactive)
REMARK    1  A    between atoms: O_2  and  C_3 
REMARK    2  A    between atoms: C_4  and  C_5 
REMARK    3  A    between atoms: C_5  and  N_6 
REMARK       I    between atoms: N_6  and  C_7 
REMARK    4  A    between atoms: C_7  and  C_8 
REMARK    5  A    between atoms: C_8  and  O_9 
REMARK    6  A    between atoms: N_10  and  C_11 
ROOT
HETATM    1  C   UNL     1      42.206 -14.127   3.201  1.00  0.00     0.256 C 
HETATM    2  N   UNL     1      42.122 -15.319   4.063  1.00  0.00    -0.254 N 
HETATM    3  C   UNL     1      41.370 -15.258   5.231  1.00  0.00     0.330 C 
HETATM    4  O   UNL     1      40.925 -16.230   5.843  1.00  0.00    -0.246 OA
HETATM    5  N   UNL     1      41.074 -14.027   5.732  1.00  0.00    -0.308 N 
HETATM    6  C   UNL     1      41.528 -12.823   5.216  1.00  0.00     0.048 A 
HETATM    7  C   UNL     1      42.145 -12.823   3.974  1.00  0.00     0.034 A 
HETATM    8  C   UNL     1      41.363 -11.646   5.949  1.00  0.00     0.030 A 
HETATM    9  C   UNL     1      41.844 -10.442   5.437  1.00  0.00     0.002 A 
HETATM   10  C   UNL     1      42.470 -10.419   4.194  1.00  0.00     0.001 A 
HETATM   11  C   UNL     1      42.612 -11.600   3.461  1.00  0.00     0.015 A 
HETATM   12  H   UNL     1      40.599 -14.045   6.625  1.00  0.00     0.170 HD
ENDROOT
BRANCH   1  13
HETATM   13  C   UNL     1      41.071 -14.121   2.098  1.00  0.00     0.279 C 
HETATM   14  N   UNL     1      41.461 -14.200   0.779  1.00  0.00    -0.352 N 
HETATM   15  H   UNL     1      42.436 -14.062   0.545  1.00  0.00     0.162 HD
HETATM   16  O   UNL     1      39.885 -14.089   2.445  1.00  0.00    -0.268 OA
BRANCH  14  17
HETATM   17  C   UNL     1      40.509 -14.183  -0.316  1.00  0.00     0.164 C 
BRANCH  17  18
HETATM   18  C   UNL     1      40.532 -12.917  -1.146  1.00  0.00    -0.007 A 
HETATM   19  C   UNL     1      40.171 -12.989  -2.510  1.00  0.00     0.076 A 
HETATM   20  C   UNL     1      40.159 -11.830  -3.294  1.00  0.00     0.037 A 
HETATM   21  C   UNL     1      40.508 -10.598  -2.738  1.00  0.00     0.003 A 
HETATM   22  C   UNL     1      40.868 -10.516  -1.397  1.00  0.00     0.001 A 
HETATM   23  C   UNL     1      40.878 -11.666  -0.606  1.00  0.00     0.011 A 
BRANCH  19  24
HETATM   24  O   UNL     1      39.824 -14.234  -2.971  1.00  0.00    -0.355 OA
HETATM   25  C   UNL     1      38.468 -14.427  -3.357  1.00  0.00     0.210 C 
ENDBRANCH  19  24
ENDBRANCH  17  18
ENDBRANCH  14  17
ENDBRANCH   1  13
BRANCH   1  26
HETATM   26  O   UNL     1      43.488 -14.121   2.552  1.00  0.00    -0.359 OA
HETATM   27  H   UNL     1      43.601 -13.205   2.231  1.00  0.00     0.213 HD
ENDBRANCH   1  26
BRANCH   2  28
HETATM   28  C   UNL     1      42.659 -16.584   3.618  1.00  0.00     0.043 A 
HETATM   29  C   UNL     1      43.732 -17.223   4.263  1.00  0.00     0.031 A 
HETATM   30  C   UNL     1      44.211 -18.466   3.826  1.00  0.00     0.026 A 
HETATM   31  C   UNL     1      43.614 -19.098   2.742  1.00  0.00     0.034 A 
HETATM   32 CL   UNL     1      44.193 -20.631   2.217  1.00  0.00    -0.084 Cl
HETATM   33  C   UNL     1      42.547 -18.498   2.089  1.00  0.00     0.026 A 
HETATM   34  C   UNL     1      42.078 -17.252   2.524  1.00  0.00     0.031 A 
ENDBRANCH   2  28
TORSDOF 6
ENDMDL
MODEL 3
REMARK VINA RESULT:      -8.5      2.449      3.198
REMARK  6 active torsions:
REMARK  status: ('A' for Active; 'I' for Inactive)
REMARK    1  A    between atoms: O_2  and  C_3 
REMARK    2  A    between atoms: C_4  and  C_5 
REMARK    3  A    between atoms: C_5  and  N_6 
REMARK       I    between atoms: N_6  and  C_7 
REMARK    4  A    between atoms: C_7  and  C_8 
REMARK    5  A    between atoms: C_8  and  O_9 
REMARK    6  A    between atoms: N_10  and  C_11 
ROOT
HETATM    1  C   UNL     1      40.221 -12.430   4.139  1.00  0.00     0.256 C 
HETATM    2  N   UNL     1      40.730 -11.962   2.838  1.00  0.00    -0.254 N 
HETATM    3  C   UNL     1      41.674 -10.942   2.808  1.00  0.00     0.330 C 
HETATM    4  O   UNL     1      42.431 -10.698   1.867  1.00  0.00    -0.246 OA
HETATM    5  N   UNL     1      41.797 -10.158   3.916  1.00  0.00    -0.308 N 
HETATM    6  C   UNL     1      41.002 -10.242   5.048  1.00  0.00     0.048 A 
HETATM    7  C   UNL     1      40.159 -11.335   5.187  1.00  0.00     0.034 A 
HETATM    8  C   UNL     1      41.059  -9.236   6.014  1.00  0.00     0.030 A 
HETATM    9  C   UNL     1      40.238  -9.314   7.138  1.00  0.00     0.002 A 
HETATM   10  C   UNL     1      39.382 -10.400   7.297  1.00  0.00     0.001 A 
HETATM   11  C   UNL     1      39.348 -11.410   6.334  1.00  0.00     0.015 A 
HETATM   12  H   UNL     1      42.436  -9.381   3.806  1.00  0.00     0.170 HD
ENDROOT
BRANCH   1  13
HETATM   13  C   UNL     1      41.080 -13.633   4.706  1.00  0.00     0.279 C 
HETATM   14  N   UNL     1      40.438 -14.834   4.916  1.00  0.00    -0.352 N 
HETATM   15  H   UNL     1      39.427 -14.862   4.894  1.00  0.00     0.162 HD
HETATM   16  O   UNL     1      42.291 -13.477   4.901  1.00  0.00    -0.268 OA
BRANCH  14  17
HETATM   17  C   UNL     1      41.120 -15.997   5.450  1.00  0.00     0.164 C 
BRANCH  17  18
HETATM   18  C   UNL     1      41.987 -16.729   4.448  1.00  0.00    -0.007 A 
HETATM   19  C   UNL     1      43.185 -17.334   4.894  1.00  0.00     0.076 A 
HETATM   20  C   UNL     1      43.991 -18.038   3.993  1.00  0.00     0.037 A 
HETATM   21  C   UNL     1      43.624 -18.144   2.651  1.00  0.00     0.003 A 
HETATM   22  C   UNL     1      42.449 -17.552   2.201  1.00  0.00     0.001 A 
HETATM   23  C   UNL     1      41.635 -16.852   3.092  1.00  0.00     0.011 A 
BRANCH  19  24
HETATM   24  O   UNL     1      43.461 -17.196   6.231  1.00  0.00    -0.355 OA
HETATM   25  C   UNL     1      44.582 -16.393   6.581  1.00  0.00     0.210 C 
ENDBRANCH  19  24
ENDBRANCH  17  18
ENDBRANCH  14  17
ENDBRANCH   1  13
BRANCH   1  26
HETATM   26  O   UNL     1      38.863 -12.866   3.969  1.00  0.00    -0.359 OA
HETATM   27  H   UNL     1      38.894 -13.494   3.222  1.00  0.00     0.213 HD
ENDBRANCH   1  26
BRANCH   2  28
HETATM   28  C   UNL     1      40.396 -12.669   1.623  1.00  0.00     0.043 A 
HETATM   29  C   UNL     1      40.918 -13.936   1.314  1.00  0.00     0.031 A 
HETATM   30  C   UNL     1      40.551 -14.609   0.140  1.00  0.00     0.026 A 
HETATM   31  C   UNL     1      39.642 -14.032  -0.738  1.00  0.00     0.034 A 
HETATM   32 CL   UNL     1      39.181 -14.867  -2.169  1.00  0.00    -0.084 Cl
HETATM   33  C   UNL     1      39.102 -12.785  -0.456  1.00  0.00     0.026 A 
HETATM   34  C   UNL     1      39.479 -12.113   0.712  1.00  0.00     0.031 A 
ENDBRANCH   2  28
TORSDOF 6
ENDMDL
MODEL 4
REMARK VINA RESULT:      -8.4      1.875      2.848
REMARK  6 active torsions:
REMARK  status: ('A' for Active; 'I' for Inactive)
REMARK    1  A    between atoms: O_2  and  C_3 
REMARK    2  A    between atoms: C_4  and  C_5 
REMARK    3  A    between atoms: C_5  and  N_6 
REMARK       I    between atoms: N_6  and  C_7 
REMARK    4  A    between atoms: C_7  and  C_8 
REMARK    5  A    between atoms: C_8  and  O_9 
REMARK    6  A    between atoms: N_10  and  C_11 
ROOT
HETATM    1  C   UNL     1      40.029 -13.450   2.571  1.00  0.00     0.256 C 
HETATM    2  N   UNL     1      40.233 -12.690   1.325  1.00  0.00    -0.254 N 
HETATM    3  C   UNL     1      41.160 -11.654   1.309  1.00  0.00     0.330 C 
HETATM    4  O   UNL     1      41.685 -11.183   0.299  1.00  0.00    -0.246 OA
HETATM    5  N   UNL     1      41.546 -11.128   2.505  1.00  0.00    -0.308 N 
HETATM    6  C   UNL     1      41.030 -11.487   3.740  1.00  0.00     0.048 A 
HETATM    7  C   UNL     1      40.225 -12.614   3.821  1.00  0.00     0.034 A 
HETATM    8  C   UNL     1      41.322 -10.716   4.867  1.00  0.00     0.030 A 
HETATM    9  C   UNL     1      40.780 -11.068   6.102  1.00  0.00     0.002 A 
HETATM   10  C   UNL     1      39.967 -12.193   6.206  1.00  0.00     0.001 A 
HETATM   11  C   UNL     1      39.698 -12.968   5.076  1.00  0.00     0.015 A 
HETATM   12  H   UNL     1      42.155 -10.323   2.428  1.00  0.00     0.170 HD
ENDROOT
BRANCH   1  13
HETATM   13  C   UNL     1      40.977 -14.716   2.647  1.00  0.00     0.279 C 
HETATM   14  N   UNL     1      42.304 -14.502   2.947  1.00  0.00    -0.352 N 
HETATM   15  H   UNL     1      42.671 -13.559   2.916  1.00  0.00     0.162 HD
HETATM   16  O   UNL     1      40.501 -15.844   2.481  1.00  0.00    -0.268 OA
BRANCH  14  17
HETATM   17  C   UNL     1      43.268 -15.584   3.024  1.00  0.00     0.164 C 
BRANCH  17  18
HETATM   18  C   UNL     1      43.273 -16.324   4.345  1.00  0.00    -0.007 A 
HETATM   19  C   UNL     1      43.706 -17.669   4.372  1.00  0.00     0.076 A 
HETATM   20  C   UNL     1      43.745 -18.368   5.583  1.00  0.00     0.037 A 
HETATM   21  C   UNL     1      43.352 -17.747   6.769  1.00  0.00     0.003 A 
HETATM   22  C   UNL     1      42.923 -16.425   6.755  1.00  0.00     0.001 A 
HETATM   23  C   UNL     1      42.885 -15.717   5.552  1.00  0.00     0.011 A 
BRANCH  19  24
HETATM   24  O   UNL     1      44.091 -18.196   3.165  1.00  0.00    -0.355 OA
HETATM   25  C   UNL     1      43.770 -19.562   2.923  1.00  0.00     0.210 C 
ENDBRANCH  19  24
ENDBRANCH  17  18
ENDBRANCH  14  17
ENDBRANCH   1  13
BRANCH   1  26
HETATM   26  O   UNL     1      38.661 -13.887   2.621  1.00  0.00    -0.359 OA
HETATM   27  H   UNL     1      38.678 -14.702   3.159  1.00  0.00     0.213 HD
ENDBRANCH   1  26
BRANCH   2  28
HETATM   28  C   UNL     1      39.619 -13.125   0.092  1.00  0.00     0.043 A 
HETATM   29  C   UNL     1      38.565 -12.425  -0.519  1.00  0.00     0.031 A 
HETATM   30  C   UNL     1      38.010 -12.855  -1.732  1.00  0.00     0.026 A 
HETATM   31  C   UNL     1      38.510 -13.988  -2.362  1.00  0.00     0.034 A 
HETATM   32 CL   UNL     1      37.837 -14.506  -3.858  1.00  0.00    -0.084 Cl
HETATM   33  C   UNL     1      39.555 -14.697  -1.789  1.00  0.00     0.026 A 
HETATM   34  C   UNL     1      40.101 -14.268  -0.573  1.00  0.00     0.031 A 
ENDBRANCH   2  28
TORSDOF 6
ENDMDL
MODEL 5
REMARK VINA RESULT:      -8.4      4.322      7.974
REMARK  6 active torsions:
REMARK  status: ('A' for Active; 'I' for Inactive)
REMARK    1  A    between atoms: O_2  and  C_3 
REMARK    2  A    between atoms: C_4  and  C_5 
REMARK    3  A    between atoms: C_5  and  N_6 
REMARK       I    between atoms: N_6  and  C_7 
REMARK    4  A    between atoms: C_7  and  C_8 
REMARK    5  A    between atoms: C_8  and  O_9 
REMARK    6  A    between atoms: N_10  and  C_11 
ROOT
HETATM    1  C   UNL     1      42.781 -13.891   5.288  1.00  0.00     0.256 C 
HETATM    2  N   UNL     1      43.518 -12.646   5.009  1.00  0.00    -0.254 N 
HETATM    3  C   UNL     1      43.639 -12.210   3.695  1.00  0.00     0.330 C 
HETATM    4  O   UNL     1      43.899 -11.058   3.346  1.00  0.00    -0.246 OA
HETATM    5  N   UNL     1      43.428 -13.120   2.703  1.00  0.00    -0.308 N 
HETATM    6  C   UNL     1      43.180 -14.470   2.895  1.00  0.00     0.048 A 
HETATM    7  C   UNL     1      42.898 -14.917   4.177  1.00  0.00     0.034 A 
HETATM    8  C   UNL     1      43.223 -15.347   1.809  1.00  0.00     0.030 A 
HETATM    9  C   UNL     1      42.996 -16.707   2.013  1.00  0.00     0.002 A 
HETATM   10  C   UNL     1      42.714 -17.178   3.292  1.00  0.00     0.001 A 
HETATM   11  C   UNL     1      42.655 -16.289   4.368  1.00  0.00     0.015 A 
HETATM   12  H   UNL     1      43.613 -12.770   1.772  1.00  0.00     0.170 HD
ENDROOT
BRANCH   1  13
HETATM   13  C   UNL     1      41.247 -13.613   5.569  1.00  0.00     0.279 C 
HETATM   14  N   UNL     1      40.623 -12.650   4.807  1.00  0.00    -0.352 N 
HETATM   15  H   UNL     1      41.186 -12.025   4.245  1.00  0.00     0.162 HD
HETATM   16  O   UNL     1      40.653 -14.285   6.419  1.00  0.00    -0.268 OA
BRANCH  14  17
HETATM   17  C   UNL     1      39.227 -12.298   4.990  1.00  0.00     0.164 C 
BRANCH  17  18
HETATM   18  C   UNL     1      38.933 -10.819   4.861  1.00  0.00    -0.007 A 
HETATM   19  C   UNL     1      39.104  -9.988   5.991  1.00  0.00     0.076 A 
HETATM   20  C   UNL     1      38.864  -8.613   5.893  1.00  0.00     0.037 A 
HETATM   21  C   UNL     1      38.448  -8.054   4.684  1.00  0.00     0.003 A 
HETATM   22  C   UNL     1      38.274  -8.862   3.566  1.00  0.00     0.001 A 
HETATM   23  C   UNL     1      38.517 -10.234   3.652  1.00  0.00     0.011 A 
BRANCH  19  24
HETATM   24  O   UNL     1      39.532 -10.615   7.134  1.00  0.00    -0.355 OA
HETATM   25  C   UNL     1      39.400  -9.897   8.355  1.00  0.00     0.210 C 
ENDBRANCH  19  24
ENDBRANCH  17  18
ENDBRANCH  14  17
ENDBRANCH   1  13
BRANCH   1  26
HETATM   26  O   UNL     1      43.361 -14.517   6.443  1.00  0.00    -0.359 OA
HETATM   27  H   UNL     1      42.976 -14.042   7.205  1.00  0.00     0.213 HD
ENDBRANCH   1  26
BRANCH   2  28
HETATM   28  C   UNL     1      43.953 -11.793   6.092  1.00  0.00     0.043 A 
HETATM   29  C   UNL     1      43.063 -11.011   6.847  1.00  0.00     0.031 A 
HETATM   30  C   UNL     1      43.513 -10.217   7.912  1.00  0.00     0.026 A 
HETATM   31  C   UNL     1      44.861 -10.203   8.248  1.00  0.00     0.034 A 
HETATM   32 CL   UNL     1      45.408  -9.241   9.564  1.00  0.00    -0.084 Cl
HETATM   33  C   UNL     1      45.764 -10.971   7.527  1.00  0.00     0.026 A 
HETATM   34  C   UNL     1      45.311 -11.756   6.459  1.00  0.00     0.031 A 
ENDBRANCH   2  28
TORSDOF 6
ENDMDL
MODEL 6
REMARK VINA RESULT:      -8.2      2.367      5.041
REMARK  6 active torsions:
REMARK  status: ('A' for Active; 'I' for Inactive)
REMARK    1  A    between atoms: O_2  and  C_3 
REMARK    2  A    between atoms: C_4  and  C_5 
REMARK    3  A    between atoms: C_5  and  N_6 
REMARK       I    between atoms: N_6  and  C_7 
REMARK    4  A    between atoms: C_7  and  C_8 
REMARK    5  A    between atoms: C_8  and  O_9 
REMARK    6  A    between atoms: N_10  and  C_11 
ROOT
HETATM    1  C   UNL     1      42.151 -14.951   2.592  1.00  0.00     0.256 C 
HETATM    2  N   UNL     1      40.816 -14.423   2.259  1.00  0.00    -0.254 N 
HETATM    3  C   UNL     1      39.955 -14.057   3.287  1.00  0.00     0.330 C 
HETATM    4  O   UNL     1      38.993 -13.297   3.175  1.00  0.00    -0.246 OA
HETATM    5  N   UNL     1      40.205 -14.555   4.531  1.00  0.00    -0.308 N 
HETATM    6  C   UNL     1      41.204 -15.464   4.843  1.00  0.00     0.048 A 
HETATM    7  C   UNL     1      42.176 -15.734   3.891  1.00  0.00     0.034 A 
HETATM    8  C   UNL     1      41.212 -16.087   6.092  1.00  0.00     0.030 A 
HETATM    9  C   UNL     1      42.205 -17.018   6.391  1.00  0.00     0.002 A 
HETATM   10  C   UNL     1      43.189 -17.308   5.450  1.00  0.00     0.001 A 
HETATM   11  C   UNL     1      43.182 -16.664   4.210  1.00  0.00     0.015 A 
HETATM   12  H   UNL     1      39.500 -14.326   5.219  1.00  0.00     0.170 HD
ENDROOT
BRANCH   1  13
HETATM   13  C   UNL     1      43.234 -13.799   2.669  1.00  0.00     0.279 C 
HETATM   14  N   UNL     1      43.130 -12.892   3.700  1.00  0.00    -0.352 N 
HETATM   15  H   UNL     1      42.280 -12.865   4.248  1.00  0.00     0.162 HD
HETATM   16  O   UNL     1      44.151 -13.770   1.841  1.00  0.00    -0.268 OA
BRANCH  14  17
HETATM   17  C   UNL     1      44.054 -11.785   3.858  1.00  0.00     0.164 C 
BRANCH  17  18
HETATM   18  C   UNL     1      44.290 -11.366   5.294  1.00  0.00    -0.007 A 
HETATM   19  C   UNL     1      43.200 -10.881   6.051  1.00  0.00     0.076 A 
HETATM   20  C   UNL     1      43.384 -10.512   7.388  1.00  0.00     0.037 A 
HETATM   21  C   UNL     1      44.644 -10.613   7.980  1.00  0.00     0.003 A 
HETATM   22  C   UNL     1      45.724 -11.086   7.244  1.00  0.00     0.001 A 
HETATM   23  C   UNL     1      45.549 -11.462   5.911  1.00  0.00     0.011 A 
BRANCH  19  24
HETATM   24  O   UNL     1      41.994 -10.832   5.397  1.00  0.00    -0.355 OA
HETATM   25  C   UNL     1      40.853 -11.300   6.108  1.00  0.00     0.210 C 
ENDBRANCH  19  24
ENDBRANCH  17  18
ENDBRANCH  14  17
ENDBRANCH   1  13
BRANCH   1  26
HETATM   26  O   UNL     1      42.538 -15.890   1.577  1.00  0.00    -0.359 OA
HETATM   27  H   UNL     1      42.261 -15.478   0.736  1.00  0.00     0.213 HD
ENDBRANCH   1  26
BRANCH   2  28
HETATM   28  C   UNL     1      40.471 -14.117   0.889  1.00  0.00     0.043 A 
HETATM   29  C   UNL     1      39.765 -15.011   0.067  1.00  0.00     0.031 A 
HETATM   30  C   UNL     1      39.418 -14.673  -1.249  1.00  0.00     0.026 A 
HETATM   31  C   UNL     1      39.759 -13.427  -1.760  1.00  0.00     0.034 A 
HETATM   32 CL   UNL     1      39.319 -13.008  -3.369  1.00  0.00    -0.084 Cl
HETATM   33  C   UNL     1      40.448 -12.518  -0.970  1.00  0.00     0.026 A 
HETATM   34  C   UNL     1      40.800 -12.864   0.341  1.00  0.00     0.031 A 
ENDBRANCH   2  28
TORSDOF 6
ENDMDL
MODEL 7
REMARK VINA RESULT:      -8.1      4.002      7.916
REMARK  6 active torsions:
REMARK  status: ('A' for Active; 'I' for Inactive)
REMARK    1  A    between atoms: O_2  and  C_3 
REMARK    2  A    between atoms: C_4  and  C_5 
REMARK    3  A    between atoms: C_5  and  N_6 
REMARK       I    between atoms: N_6  and  C_7 
REMARK    4  A    between atoms: C_7  and  C_8 
REMARK    5  A    between atoms: C_8  and  O_9 
REMARK    6  A    between atoms: N_10  and  C_11 
ROOT
HETATM    1  C   UNL     1      42.600 -13.911   5.196  1.00  0.00     0.256 C 
HETATM    2  N   UNL     1      43.416 -12.705   4.970  1.00  0.00    -0.254 N 
HETATM    3  C   UNL     1      43.647 -12.277   3.668  1.00  0.00     0.330 C 
HETATM    4  O   UNL     1      43.987 -11.139   3.340  1.00  0.00    -0.246 OA
HETATM    5  N   UNL     1      43.458 -13.176   2.662  1.00  0.00    -0.308 N 
HETATM    6  C   UNL     1      43.130 -14.512   2.834  1.00  0.00     0.048 A 
HETATM    7  C   UNL     1      42.740 -14.943   4.093  1.00  0.00     0.034 A 
HETATM    8  C   UNL     1      43.202 -15.390   1.751  1.00  0.00     0.030 A 
HETATM    9  C   UNL     1      42.895 -16.737   1.935  1.00  0.00     0.002 A 
HETATM   10  C   UNL     1      42.504 -17.193   3.191  1.00  0.00     0.001 A 
HETATM   11  C   UNL     1      42.417 -16.301   4.263  1.00  0.00     0.015 A 
HETATM   12  H   UNL     1      43.722 -12.836   1.746  1.00  0.00     0.170 HD
ENDROOT
BRANCH   1  13
HETATM   13  C   UNL     1      41.067 -13.556   5.374  1.00  0.00     0.279 C 
HETATM   14  N   UNL     1      40.447 -12.875   4.350  1.00  0.00    -0.352 N 
HETATM   15  H   UNL     1      41.013 -12.457   3.623  1.00  0.00     0.162 HD
HETATM   16  O   UNL     1      40.470 -13.931   6.389  1.00  0.00    -0.268 OA
BRANCH  14  17
HETATM   17  C   UNL     1      39.052 -12.481   4.412  1.00  0.00     0.164 C 
BRANCH  17  18
HETATM   18  C   UNL     1      38.823 -10.984   4.401  1.00  0.00    -0.007 A 
HETATM   19  C   UNL     1      38.758 -10.313   3.159  1.00  0.00     0.076 A 
HETATM   20  C   UNL     1      38.522  -8.934   3.120  1.00  0.00     0.037 A 
HETATM   21  C   UNL     1      38.356  -8.213   4.303  1.00  0.00     0.003 A 
HETATM   22  C   UNL     1      38.420  -8.863   5.531  1.00  0.00     0.001 A 
HETATM   23  C   UNL     1      38.650 -10.239   5.580  1.00  0.00     0.011 A 
BRANCH  19  24
HETATM   24  O   UNL     1      38.914 -11.100   2.046  1.00  0.00    -0.355 OA
HETATM   25  C   UNL     1      37.843 -11.115   1.109  1.00  0.00     0.210 C 
ENDBRANCH  19  24
ENDBRANCH  17  18
ENDBRANCH  14  17
ENDBRANCH   1  13
BRANCH   1  26
HETATM   26  O   UNL     1      43.070 -14.565   6.386  1.00  0.00    -0.359 OA
HETATM   27  H   UNL     1      43.097 -15.513   6.156  1.00  0.00     0.213 HD
ENDBRANCH   1  26
BRANCH   2  28
HETATM   28  C   UNL     1      43.820 -11.874   6.082  1.00  0.00     0.043 A 
HETATM   29  C   UNL     1      45.131 -11.866   6.586  1.00  0.00     0.031 A 
HETATM   30  C   UNL     1      45.499 -11.026   7.647  1.00  0.00     0.026 A 
HETATM   31  C   UNL     1      44.563 -10.169   8.212  1.00  0.00     0.034 A 
HETATM   32 CL   UNL     1      45.021  -9.128   9.503  1.00  0.00    -0.084 Cl
HETATM   33  C   UNL     1      43.262 -10.148   7.731  1.00  0.00     0.026 A 
HETATM   34  C   UNL     1      42.897 -10.994   6.677  1.00  0.00     0.031 A 
ENDBRANCH   2  28
TORSDOF 6
ENDMDL
MODEL 8
REMARK VINA RESULT:      -8.0      2.976      6.997
REMARK  6 active torsions:
REMARK  status: ('A' for Active; 'I' for Inactive)
REMARK    1  A    between atoms: O_2  and  C_3 
REMARK    2  A    between atoms: C_4  and  C_5 
REMARK    3  A    between atoms: C_5  and  N_6 
REMARK       I    between atoms: N_6  and  C_7 
REMARK    4  A    between atoms: C_7  and  C_8 
REMARK    5  A    between atoms: C_8  and  O_9 
REMARK    6  A    between atoms: N_10  and  C_11 
ROOT
HETATM    1  C   UNL     1      41.832 -13.458   3.545  1.00  0.00     0.256 C 
HETATM    2  N   UNL     1      41.826 -14.659   4.399  1.00  0.00    -0.254 N 
HETATM    3  C   UNL     1      41.122 -14.635   5.597  1.00  0.00     0.330 C 
HETATM    4  O   UNL     1      40.737 -15.627   6.218  1.00  0.00    -0.246 OA
HETATM    5  N   UNL     1      40.802 -13.419   6.121  1.00  0.00    -0.308 N 
HETATM    6  C   UNL     1      41.191 -12.195   5.599  1.00  0.00     0.048 A 
HETATM    7  C   UNL     1      41.756 -12.163   4.333  1.00  0.00     0.034 A 
HETATM    8  C   UNL     1      41.014 -11.031   6.349  1.00  0.00     0.030 A 
HETATM    9  C   UNL     1      41.430  -9.806   5.829  1.00  0.00     0.002 A 
HETATM   10  C   UNL     1      42.003  -9.751   4.561  1.00  0.00     0.001 A 
HETATM   11  C   UNL     1      42.157 -10.920   3.812  1.00  0.00     0.015 A 
HETATM   12  H   UNL     1      40.365 -13.461   7.033  1.00  0.00     0.170 HD
ENDROOT
BRANCH   1  13
HETATM   13  C   UNL     1      40.652 -13.484   2.489  1.00  0.00     0.279 C 
HETATM   14  N   UNL     1      40.989 -13.597   1.158  1.00  0.00    -0.352 N 
HETATM   15  H   UNL     1      41.953 -13.464   0.881  1.00  0.00     0.162 HD
HETATM   16  O   UNL     1      39.482 -13.446   2.884  1.00  0.00    -0.268 OA
BRANCH  14  17
HETATM   17  C   UNL     1      39.994 -13.612   0.103  1.00  0.00     0.164 C 
BRANCH  17  18
HETATM   18  C   UNL     1      40.211 -12.574  -0.977  1.00  0.00    -0.007 A 
HETATM   19  C   UNL     1      39.872 -11.228  -0.709  1.00  0.00     0.076 A 
HETATM   20  C   UNL     1      40.087 -10.245  -1.681  1.00  0.00     0.037 A 
HETATM   21  C   UNL     1      40.630 -10.585  -2.921  1.00  0.00     0.003 A 
HETATM   22  C   UNL     1      40.965 -11.906  -3.196  1.00  0.00     0.001 A 
HETATM   23  C   UNL     1      40.760 -12.893  -2.232  1.00  0.00     0.011 A 
BRANCH  19  24
HETATM   24  O   UNL     1      39.361 -10.979   0.540  1.00  0.00    -0.355 OA
HETATM   25  C   UNL     1      39.758  -9.767   1.171  1.00  0.00     0.210 C 
ENDBRANCH  19  24
ENDBRANCH  17  18
ENDBRANCH  14  17
ENDBRANCH   1  13
BRANCH   1  26
HETATM   26  O   UNL     1      43.085 -13.400   2.845  1.00  0.00    -0.359 OA
HETATM   27  H   UNL     1      43.197 -14.290   2.460  1.00  0.00     0.213 HD
ENDBRANCH   1  26
BRANCH   2  28
HETATM   28  C   UNL     1      42.390 -15.900   3.920  1.00  0.00     0.043 A 
HETATM   29  C   UNL     1      43.506 -16.508   4.520  1.00  0.00     0.031 A 
HETATM   30  C   UNL     1      44.010 -17.729   4.051  1.00  0.00     0.026 A 
HETATM   31  C   UNL     1      43.397 -18.371   2.982  1.00  0.00     0.034 A 
HETATM   32 CL   UNL     1      44.008 -19.877   2.418  1.00  0.00    -0.084 Cl
HETATM   33  C   UNL     1      42.288 -17.801   2.374  1.00  0.00     0.026 A 
HETATM   34  C   UNL     1      41.793 -16.576   2.840  1.00  0.00     0.031 A 
ENDBRANCH   2  28
TORSDOF 6
ENDMDL
MODEL 9
REMARK VINA RESULT:      -8.0      2.840      7.098
REMARK  6 active torsions:
REMARK  status: ('A' for Active; 'I' for Inactive)
REMARK    1  A    between atoms: O_2  and  C_3 
REMARK    2  A    between atoms: C_4  and  C_5 
REMARK    3  A    between atoms: C_5  and  N_6 
REMARK       I    between atoms: N_6  and  C_7 
REMARK    4  A    between atoms: C_7  and  C_8 
REMARK    5  A    between atoms: C_8  and  O_9 
REMARK    6  A    between atoms: N_10  and  C_11 
ROOT
HETATM    1  C   UNL     1      42.759 -14.366   4.429  1.00  0.00     0.256 C 
HETATM    2  N   UNL     1      43.101 -15.670   5.023  1.00  0.00    -0.254 N 
HETATM    3  C   UNL     1      43.154 -15.791   6.407  1.00  0.00     0.330 C 
HETATM    4  O   UNL     1      43.074 -16.849   7.034  1.00  0.00    -0.246 OA
HETATM    5  N   UNL     1      43.279 -14.650   7.140  1.00  0.00    -0.308 N 
HETATM    6  C   UNL     1      43.438 -13.376   6.616  1.00  0.00     0.048 A 
HETATM    7  C   UNL     1      43.236 -13.188   5.257  1.00  0.00     0.034 A 
HETATM    8  C   UNL     1      43.799 -12.320   7.454  1.00  0.00     0.030 A 
HETATM    9  C   UNL     1      43.982 -11.046   6.917  1.00  0.00     0.002 A 
HETATM   10  C   UNL     1      43.788 -10.835   5.555  1.00  0.00     0.001 A 
HETATM   11  C   UNL     1      43.408 -11.896   4.729  1.00  0.00     0.015 A 
HETATM   12  H   UNL     1      43.398 -14.804   8.133  1.00  0.00     0.170 HD
ENDROOT
BRANCH   1  13
HETATM   13  C   UNL     1      41.200 -14.224   4.188  1.00  0.00     0.279 C 
HETATM   14  N   UNL     1      40.783 -13.784   2.951  1.00  0.00    -0.352 N 
HETATM   15  H   UNL     1      41.462 -13.386   2.315  1.00  0.00     0.162 HD
HETATM   16  O   UNL     1      40.414 -14.546   5.085  1.00  0.00    -0.268 OA
BRANCH  14  17
HETATM   17  C   UNL     1      39.382 -13.598   2.624  1.00  0.00     0.164 C 
BRANCH  17  18
HETATM   18  C   UNL     1      39.093 -12.372   1.783  1.00  0.00    -0.007 A 
HETATM   19  C   UNL     1      39.487 -12.368   0.426  1.00  0.00     0.076 A 
HETATM   20  C   UNL     1      39.209 -11.259  -0.380  1.00  0.00     0.037 A 
HETATM   21  C   UNL     1      38.549 -10.149   0.149  1.00  0.00     0.003 A 
HETATM   22  C   UNL     1      38.159 -10.142   1.484  1.00  0.00     0.001 A 
HETATM   23  C   UNL     1      38.426 -11.246   2.295  1.00  0.00     0.011 A 
BRANCH  19  24
HETATM   24  O   UNL     1      40.114 -13.505  -0.018  1.00  0.00    -0.355 OA
HETATM   25  C   UNL     1      39.530 -14.174  -1.130  1.00  0.00     0.210 C 
ENDBRANCH  19  24
ENDBRANCH  17  18
ENDBRANCH  14  17
ENDBRANCH   1  13
BRANCH   1  26
HETATM   26  O   UNL     1      43.439 -14.244   3.170  1.00  0.00    -0.359 OA
HETATM   27  H   UNL     1      43.452 -15.149   2.804  1.00  0.00     0.213 HD
ENDBRANCH   1  26
BRANCH   2  28
HETATM   28  C   UNL     1      43.203 -16.850   4.194  1.00  0.00     0.043 A 
HETATM   29  C   UNL     1      42.349 -17.087   3.104  1.00  0.00     0.031 A 
HETATM   30  C   UNL     1      42.492 -18.226   2.300  1.00  0.00     0.026 A 
HETATM   31  C   UNL     1      43.504 -19.141   2.564  1.00  0.00     0.034 A 
HETATM   32 CL   UNL     1      43.688 -20.530   1.567  1.00  0.00    -0.084 Cl
HETATM   33  C   UNL     1      44.369 -18.931   3.628  1.00  0.00     0.026 A 
HETATM   34  C   UNL     1      44.216 -17.796   4.434  1.00  0.00     0.031 A 
ENDBRANCH   2  28
TORSDOF 6
ENDMDL
MODEL 10
REMARK VINA RESULT:      -7.9     14.513     16.557
REMARK  6 active torsions:
REMARK  status: ('A' for Active; 'I' for Inactive)
REMARK    1  A    between atoms: O_2  and  C_3 
REMARK    2  A    between atoms: C_4  and  C_5 
REMARK    3  A    between atoms: C_5  and  N_6 
REMARK       I    between atoms: N_6  and  C_7 
REMARK    4  A    between atoms: C_7  and  C_8 
REMARK    5  A    between atoms: C_8  and  O_9 
REMARK    6  A    between atoms: N_10  and  C_11 
ROOT
HETATM    1  C   UNL     1      44.472 -29.592  -0.110  1.00  0.00     0.256 C 
HETATM    2  N   UNL     1      43.749 -30.834   0.217  1.00  0.00    -0.254 N 
HETATM    3  C   UNL     1      43.844 -31.920  -0.645  1.00  0.00     0.330 C 
HETATM    4  O   UNL     1      43.607 -33.091  -0.345  1.00  0.00    -0.246 OA
HETATM    5  N   UNL     1      44.259 -31.684  -1.921  1.00  0.00    -0.308 N 
HETATM    6  C   UNL     1      44.520 -30.433  -2.458  1.00  0.00     0.048 A 
HETATM    7  C   UNL     1      44.590 -29.344  -1.602  1.00  0.00     0.034 A 
HETATM    8  C   UNL     1      44.701 -30.292  -3.836  1.00  0.00     0.030 A 
HETATM    9  C   UNL     1      44.939 -29.028  -4.373  1.00  0.00     0.002 A 
HETATM   10  C   UNL     1      45.010 -27.920  -3.533  1.00  0.00     0.001 A 
HETATM   11  C   UNL     1      44.846 -28.076  -2.155  1.00  0.00     0.015 A 
HETATM   12  H   UNL     1      44.228 -32.495  -2.525  1.00  0.00     0.170 HD
ENDROOT
BRANCH   1  13
HETATM   13  C   UNL     1      45.921 -29.572   0.528  1.00  0.00     0.279 C 
HETATM   14  N   UNL     1      46.157 -28.680   1.551  1.00  0.00    -0.352 N 
HETATM   15  H   UNL     1      45.483 -27.947   1.729  1.00  0.00     0.162 HD
HETATM   16  O   UNL     1      46.774 -30.373   0.127  1.00  0.00    -0.268 OA
BRANCH  14  17
HETATM   17  C   UNL     1      47.450 -28.561   2.196  1.00  0.00     0.164 C 
BRANCH  17  18
HETATM   18  C   UNL     1      47.769 -29.676   3.169  1.00  0.00    -0.007 A 
HETATM   19  C   UNL     1      48.980 -30.388   3.018  1.00  0.00     0.076 A 
HETATM   20  C   UNL     1      49.311 -31.406   3.919  1.00  0.00     0.037 A 
HETATM   21  C   UNL     1      48.449 -31.729   4.967  1.00  0.00     0.003 A 
HETATM   22  C   UNL     1      47.253 -31.036   5.124  1.00  0.00     0.001 A 
HETATM   23  C   UNL     1      46.916 -30.016   4.234  1.00  0.00     0.011 A 
BRANCH  19  24
HETATM   24  O   UNL     1      49.778 -29.995   1.973  1.00  0.00    -0.355 OA
HETATM   25  C   UNL     1      50.776 -30.912   1.540  1.00  0.00     0.210 C 
ENDBRANCH  19  24
ENDBRANCH  17  18
ENDBRANCH  14  17
ENDBRANCH   1  13
BRANCH   1  26
HETATM   26  O   UNL     1      43.722 -28.478   0.399  1.00  0.00    -0.359 OA
HETATM   27  H   UNL     1      44.256 -28.136   1.142  1.00  0.00     0.213 HD
ENDBRANCH   1  26
BRANCH   2  28
HETATM   28  C   UNL     1      43.100 -30.987   1.499  1.00  0.00     0.043 A 
HETATM   29  C   UNL     1      41.711 -30.856   1.667  1.00  0.00     0.031 A 
HETATM   30  C   UNL     1      41.107 -31.041   2.918  1.00  0.00     0.026 A 
HETATM   31  C   UNL     1      41.882 -31.375   4.022  1.00  0.00     0.034 A 
HETATM   32 CL   UNL     1      41.137 -31.616   5.553  1.00  0.00    -0.084 Cl
HETATM   33  C   UNL     1      43.255 -31.520   3.887  1.00  0.00     0.026 A 
HETATM   34  C   UNL     1      43.855 -31.325   2.637  1.00  0.00     0.031 A 
ENDBRANCH   2  28
TORSDOF 6
ENDMDL
