MODEL 1
REMARK VINA RESULT:      -8.1      0.000      0.000
REMARK  6 active torsions:
REMARK  status: ('A' for Active; 'I' for Inactive)
REMARK    1  A    between atoms: O_1  and  C_2 
REMARK    2  A    between atoms: C_2  and  CA_3 
REMARK    3  A    between atoms: CA_3  and  N_4 
REMARK    4  A    between atoms: CA_3  and  C_20 
REMARK       I    between atoms: N_4  and  C_5 
REMARK       I    between atoms: C_5  and  N_7 
REMARK    5  A    between atoms: N_7  and  C_8 
REMARK    6  A    between atoms: C_11  and  C_14 
ROOT
HETATM    1  N   UNL     1      43.600 -16.004   3.821  1.00  0.00    -0.332 N 
HETATM    2  C   UNL     1      42.519 -15.447   3.229  1.00  0.00     0.322 C 
HETATM    3  O   UNL     1      41.333 -15.623   3.423  1.00  0.00    -0.247 OA
HETATM    4  N   UNL     1      42.926 -14.570   2.219  1.00  0.00    -0.289 N 
HETATM    5  H   UNL     1      44.538 -15.724   3.583  1.00  0.00     0.165 HD
HETATM    6  H   UNL     1      43.875 -14.462   1.911  1.00  0.00     0.172 HD
ENDROOT
BRANCH   1   7
HETATM    7  CA  UNL     1      43.472 -16.953   4.924  1.00  0.00     0.143 C 
BRANCH   7   8
HETATM    8  C   UNL     1      44.431 -16.631   6.097  1.00  0.00     0.194 C 
BRANCH   8   9
HETATM    9  O   UNL     1      43.734 -16.646   7.341  1.00  0.00    -0.398 OA
HETATM   10  H   UNL     1      43.464 -17.570   7.505  1.00  0.00     0.209 HD
ENDBRANCH   8   9
ENDBRANCH   7   8
BRANCH   7  11
HETATM   11  C   UNL     1      43.678 -18.352   4.368  1.00  0.00    -0.033 A 
HETATM   12  C   UNL     1      43.934 -19.418   5.244  1.00  0.00     0.009 A 
HETATM   13  C   UNL     1      44.071 -20.721   4.761  1.00  0.00     0.001 A 
HETATM   14  C   UNL     1      43.950 -20.978   3.397  1.00  0.00     0.000 A 
HETATM   15  C   UNL     1      43.689 -19.935   2.515  1.00  0.00     0.001 A 
HETATM   16  C   UNL     1      43.548 -18.630   2.995  1.00  0.00     0.009 A 
ENDBRANCH   7  11
ENDBRANCH   1   7
BRANCH   4  17
HETATM   17  C   UNL     1      42.054 -13.823   1.564  1.00  0.00     0.153 A 
HETATM   18  N   UNL     1      41.334 -14.189   0.502  1.00  0.00    -0.335 N 
HETATM   19  H   UNL     1      41.495 -15.120   0.110  1.00  0.00     0.168 HD
HETATM   20  C   UNL     1      40.418 -13.242   0.074  1.00  0.00     0.051 A 
HETATM   21  C   UNL     1      40.517 -12.081   0.814  1.00  0.00     0.083 A 
HETATM   22  S   UNL     1      41.700 -12.210   2.062  1.00  0.00    -0.063 SA
BRANCH  20  23
HETATM   23  C   UNL     1      39.465 -13.468  -1.014  1.00  0.00    -0.006 A 
HETATM   24  C   UNL     1      38.398 -12.591  -1.251  1.00  0.00     0.033 A 
HETATM   25  C   UNL     1      37.508 -12.877  -2.275  1.00  0.00     0.117 A 
HETATM   26  N   UNL     1      37.606 -13.961  -3.065  1.00  0.00    -0.273 NA
HETATM   27  C   UNL     1      38.635 -14.796  -2.833  1.00  0.00     0.117 A 
HETATM   28  C   UNL     1      39.578 -14.596  -1.836  1.00  0.00     0.033 A 
ENDBRANCH  20  23
ENDBRANCH   4  17
TORSDOF 6
ENDMDL
MODEL 2
REMARK VINA RESULT:      -8.1      5.912      8.616
REMARK  6 active torsions:
REMARK  status: ('A' for Active; 'I' for Inactive)
REMARK    1  A    between atoms: O_1  and  C_2 
REMARK    2  A    between atoms: C_2  and  CA_3 
REMARK    3  A    between atoms: CA_3  and  N_4 
REMARK    4  A    between atoms: CA_3  and  C_20 
REMARK       I    between atoms: N_4  and  C_5 
REMARK       I    between atoms: C_5  and  N_7 
REMARK    5  A    between atoms: N_7  and  C_8 
REMARK    6  A    between atoms: C_11  and  C_14 
ROOT
HETATM    1  N   UNL     1      43.215 -14.754   5.729  1.00  0.00    -0.332 N 
HETATM    2  C   UNL     1      43.112 -13.482   6.178  1.00  0.00     0.322 C 
HETATM    3  O   UNL     1      42.189 -12.695   6.119  1.00  0.00    -0.247 OA
HETATM    4  N   UNL     1      44.321 -13.080   6.754  1.00  0.00    -0.289 N 
HETATM    5  H   UNL     1      44.040 -15.309   5.891  1.00  0.00     0.165 HD
HETATM    6  H   UNL     1      45.166 -13.619   6.732  1.00  0.00     0.172 HD
ENDROOT
BRANCH   1   7
HETATM    7  CA  UNL     1      42.094 -15.440   5.091  1.00  0.00     0.143 C 
BRANCH   7   8
HETATM    8  C   UNL     1      40.993 -15.845   6.105  1.00  0.00     0.194 C 
BRANCH   8   9
HETATM    9  O   UNL     1      39.937 -14.888   6.116  1.00  0.00    -0.398 OA
HETATM   10  H   UNL     1      39.867 -14.529   5.211  1.00  0.00     0.209 HD
ENDBRANCH   8   9
ENDBRANCH   7   8
BRANCH   7  11
HETATM   11  C   UNL     1      42.645 -16.628   4.321  1.00  0.00    -0.033 A 
HETATM   12  C   UNL     1      42.208 -16.870   3.010  1.00  0.00     0.009 A 
HETATM   13  C   UNL     1      42.742 -17.922   2.263  1.00  0.00     0.001 A 
HETATM   14  C   UNL     1      43.724 -18.743   2.814  1.00  0.00     0.000 A 
HETATM   15  C   UNL     1      44.175 -18.513   4.109  1.00  0.00     0.001 A 
HETATM   16  C   UNL     1      43.645 -17.459   4.858  1.00  0.00     0.009 A 
ENDBRANCH   7  11
ENDBRANCH   1   7
BRANCH   4  17
HETATM   17  C   UNL     1      44.438 -11.910   7.360  1.00  0.00     0.153 A 
HETATM   18  N   UNL     1      43.634 -11.421   8.306  1.00  0.00    -0.335 N 
HETATM   19  H   UNL     1      42.812 -11.969   8.568  1.00  0.00     0.168 HD
HETATM   20  C   UNL     1      44.048 -10.212   8.842  1.00  0.00     0.051 A 
HETATM   21  C   UNL     1      45.180  -9.744   8.206  1.00  0.00     0.083 A 
HETATM   22  S   UNL     1      45.742 -10.840   7.000  1.00  0.00    -0.063 SA
BRANCH  20  23
HETATM   23  C   UNL     1      43.368  -9.542   9.952  1.00  0.00    -0.006 A 
HETATM   24  C   UNL     1      44.060  -9.136  11.101  1.00  0.00     0.033 A 
HETATM   25  C   UNL     1      43.354  -8.537  12.133  1.00  0.00     0.117 A 
HETATM   26  N   UNL     1      42.027  -8.322  12.100  1.00  0.00    -0.273 NA
HETATM   27  C   UNL     1      41.370  -8.712  10.994  1.00  0.00     0.117 A 
HETATM   28  C   UNL     1      41.987  -9.316   9.907  1.00  0.00     0.033 A 
ENDBRANCH  20  23
ENDBRANCH   4  17
TORSDOF 6
ENDMDL
MODEL 3
REMARK VINA RESULT:      -8.1      4.725      7.264
REMARK  6 active torsions:
REMARK  status: ('A' for Active; 'I' for Inactive)
REMARK    1  A    between atoms: O_1  and  C_2 
REMARK    2  A    between atoms: C_2  and  CA_3 
REMARK    3  A    between atoms: CA_3  and  N_4 
REMARK    4  A    between atoms: CA_3  and  C_20 
REMARK       I    between atoms: N_4  and  C_5 
REMARK       I    between atoms: C_5  and  N_7 
REMARK    5  A    between atoms: N_7  and  C_8 
REMARK    6  A    between atoms: C_11  and  C_14 
ROOT
HETATM    1  N   UNL     1      42.812 -16.018   4.225  1.00  0.00    -0.332 N 
HETATM    2  C   UNL     1      42.878 -14.683   4.430  1.00  0.00     0.322 C 
HETATM    3  O   UNL     1      43.323 -13.797   3.729  1.00  0.00    -0.247 OA
HETATM    4  N   UNL     1      42.365 -14.367   5.692  1.00  0.00    -0.289 N 
HETATM    5  H   UNL     1      42.367 -16.635   4.888  1.00  0.00     0.165 HD
HETATM    6  H   UNL     1      42.095 -15.046   6.380  1.00  0.00     0.172 HD
ENDROOT
BRANCH   1   7
HETATM    7  CA  UNL     1      43.266 -16.632   2.980  1.00  0.00     0.143 C 
BRANCH   7   8
HETATM    8  C   UNL     1      42.308 -16.348   1.796  1.00  0.00     0.194 C 
BRANCH   8   9
HETATM    9  O   UNL     1      42.781 -15.254   1.012  1.00  0.00    -0.398 OA
HETATM   10  H   UNL     1      42.461 -14.438   1.440  1.00  0.00     0.209 HD
ENDBRANCH   8   9
ENDBRANCH   7   8
BRANCH   7  11
HETATM   11  C   UNL     1      43.462 -18.117   3.231  1.00  0.00    -0.033 A 
HETATM   12  C   UNL     1      43.231 -19.034   2.194  1.00  0.00     0.009 A 
HETATM   13  C   UNL     1      43.458 -20.399   2.384  1.00  0.00     0.001 A 
HETATM   14  C   UNL     1      43.924 -20.866   3.611  1.00  0.00     0.000 A 
HETATM   15  C   UNL     1      44.166 -19.970   4.648  1.00  0.00     0.001 A 
HETATM   16  C   UNL     1      43.942 -18.604   4.460  1.00  0.00     0.009 A 
ENDBRANCH   7  11
ENDBRANCH   1   7
BRANCH   4  17
HETATM   17  C   UNL     1      42.227 -13.112   6.083  1.00  0.00     0.153 A 
HETATM   18  N   UNL     1      43.140 -12.370   6.712  1.00  0.00    -0.335 N 
HETATM   19  H   UNL     1      44.024 -12.814   6.970  1.00  0.00     0.168 HD
HETATM   20  C   UNL     1      42.768 -11.050   6.914  1.00  0.00     0.051 A 
HETATM   21  C   UNL     1      41.479 -10.822   6.477  1.00  0.00     0.083 A 
HETATM   22  S   UNL     1      40.778 -12.229   5.772  1.00  0.00    -0.063 SA
BRANCH  20  23
HETATM   23  C   UNL     1      43.650 -10.040   7.502  1.00  0.00    -0.006 A 
HETATM   24  C   UNL     1      43.150  -8.832   8.006  1.00  0.00     0.033 A 
HETATM   25  C   UNL     1      44.038  -7.899   8.519  1.00  0.00     0.117 A 
HETATM   26  N   UNL     1      45.369  -8.085   8.562  1.00  0.00    -0.273 NA
HETATM   27  C   UNL     1      45.841  -9.248   8.079  1.00  0.00     0.117 A 
HETATM   28  C   UNL     1      45.034 -10.244   7.548  1.00  0.00     0.033 A 
ENDBRANCH  20  23
ENDBRANCH   4  17
TORSDOF 6
ENDMDL
MODEL 4
REMARK VINA RESULT:      -7.9      5.708      8.712
REMARK  6 active torsions:
REMARK  status: ('A' for Active; 'I' for Inactive)
REMARK    1  A    between atoms: O_1  and  C_2 
REMARK    2  A    between atoms: C_2  and  CA_3 
REMARK    3  A    between atoms: CA_3  and  N_4 
REMARK    4  A    between atoms: CA_3  and  C_20 
REMARK       I    between atoms: N_4  and  C_5 
REMARK       I    between atoms: C_5  and  N_7 
REMARK    5  A    between atoms: N_7  and  C_8 
REMARK    6  A    between atoms: C_11  and  C_14 
ROOT
HETATM    1  N   UNL     1      43.488 -11.377   7.862  1.00  0.00    -0.332 N 
HETATM    2  C   UNL     1      43.331 -11.983   6.663  1.00  0.00     0.322 C 
HETATM    3  O   UNL     1      43.798 -11.715   5.575  1.00  0.00    -0.247 OA
HETATM    4  N   UNL     1      42.443 -13.057   6.784  1.00  0.00    -0.289 N 
HETATM    5  H   UNL     1      43.067 -11.744   8.702  1.00  0.00     0.165 HD
HETATM    6  H   UNL     1      41.919 -13.269   7.613  1.00  0.00     0.172 HD
ENDROOT
BRANCH   1   7
HETATM    7  CA  UNL     1      44.375 -10.230   8.037  1.00  0.00     0.143 C 
BRANCH   7   8
HETATM    8  C   UNL     1      45.868 -10.638   8.099  1.00  0.00     0.194 C 
BRANCH   8   9
HETATM    9  O   UNL     1      46.455 -10.615   6.799  1.00  0.00    -0.398 OA
HETATM   10  H   UNL     1      45.991 -11.288   6.265  1.00  0.00     0.209 HD
ENDBRANCH   8   9
ENDBRANCH   7   8
BRANCH   7  11
HETATM   11  C   UNL     1      43.925  -9.470   9.273  1.00  0.00    -0.033 A 
HETATM   12  C   UNL     1      43.983 -10.091  10.530  1.00  0.00     0.009 A 
HETATM   13  C   UNL     1      43.627  -9.395  11.687  1.00  0.00     0.001 A 
HETATM   14  C   UNL     1      43.214  -8.067  11.605  1.00  0.00     0.000 A 
HETATM   15  C   UNL     1      43.158  -7.433  10.368  1.00  0.00     0.001 A 
HETATM   16  C   UNL     1      43.516  -8.126   9.209  1.00  0.00     0.009 A 
ENDBRANCH   7  11
ENDBRANCH   1   7
BRANCH   4  17
HETATM   17  C   UNL     1      42.207 -13.871   5.769  1.00  0.00     0.153 A 
HETATM   18  N   UNL     1      42.915 -14.952   5.436  1.00  0.00    -0.335 N 
HETATM   19  H   UNL     1      43.756 -15.161   5.979  1.00  0.00     0.168 HD
HETATM   20  C   UNL     1      42.385 -15.684   4.386  1.00  0.00     0.051 A 
HETATM   21  C   UNL     1      41.265 -15.071   3.863  1.00  0.00     0.083 A 
HETATM   22  S   UNL     1      40.857 -13.633   4.723  1.00  0.00    -0.063 SA
BRANCH  20  23
HETATM   23  C   UNL     1      42.948 -16.952   3.916  1.00  0.00    -0.006 A 
HETATM   24  C   UNL     1      43.904 -17.653   4.663  1.00  0.00     0.033 A 
HETATM   25  C   UNL     1      44.426 -18.831   4.150  1.00  0.00     0.117 A 
HETATM   26  N   UNL     1      44.067 -19.347   2.961  1.00  0.00    -0.273 NA
HETATM   27  C   UNL     1      43.148 -18.670   2.251  1.00  0.00     0.117 A 
HETATM   28  C   UNL     1      42.565 -17.485   2.680  1.00  0.00     0.033 A 
ENDBRANCH  20  23
ENDBRANCH   4  17
TORSDOF 6
ENDMDL
MODEL 5
REMARK VINA RESULT:      -7.4      2.439      3.373
REMARK  6 active torsions:
REMARK  status: ('A' for Active; 'I' for Inactive)
REMARK    1  A    between atoms: O_1  and  C_2 
REMARK    2  A    between atoms: C_2  and  CA_3 
REMARK    3  A    between atoms: CA_3  and  N_4 
REMARK    4  A    between atoms: CA_3  and  C_20 
REMARK       I    between atoms: N_4  and  C_5 
REMARK       I    between atoms: C_5  and  N_7 
REMARK    5  A    between atoms: N_7  and  C_8 
REMARK    6  A    between atoms: C_11  and  C_14 
ROOT
HETATM    1  N   UNL     1      41.942 -15.366   1.853  1.00  0.00    -0.332 N 
HETATM    2  C   UNL     1      40.746 -14.924   1.402  1.00  0.00     0.322 C 
HETATM    3  O   UNL     1      39.668 -14.855   1.958  1.00  0.00    -0.247 OA
HETATM    4  N   UNL     1      40.852 -14.541   0.062  1.00  0.00    -0.289 N 
HETATM    5  H   UNL     1      42.773 -15.321   1.284  1.00  0.00     0.165 HD
HETATM    6  H   UNL     1      41.668 -14.683  -0.505  1.00  0.00     0.172 HD
ENDROOT
BRANCH   1   7
HETATM    7  CA  UNL     1      42.129 -15.817   3.230  1.00  0.00     0.143 C 
BRANCH   7   8
HETATM    8  C   UNL     1      42.889 -14.781   4.096  1.00  0.00     0.194 C 
BRANCH   8   9
HETATM    9  O   UNL     1      42.033 -14.229   5.094  1.00  0.00    -0.398 OA
HETATM   10  H   UNL     1      42.560 -14.155   5.912  1.00  0.00     0.209 HD
ENDBRANCH   8   9
ENDBRANCH   7   8
BRANCH   7  11
HETATM   11  C   UNL     1      42.823 -17.169   3.192  1.00  0.00    -0.033 A 
HETATM   12  C   UNL     1      43.664 -17.548   4.249  1.00  0.00     0.009 A 
HETATM   13  C   UNL     1      44.268 -18.807   4.263  1.00  0.00     0.001 A 
HETATM   14  C   UNL     1      44.036 -19.706   3.224  1.00  0.00     0.000 A 
HETATM   15  C   UNL     1      43.198 -19.350   2.173  1.00  0.00     0.001 A 
HETATM   16  C   UNL     1      42.590 -18.092   2.157  1.00  0.00     0.009 A 
ENDBRANCH   7  11
ENDBRANCH   1   7
BRANCH   4  17
HETATM   17  C   UNL     1      39.840 -13.977  -0.574  1.00  0.00     0.153 A 
HETATM   18  N   UNL     1      39.108 -12.947  -0.148  1.00  0.00    -0.335 N 
HETATM   19  H   UNL     1      39.302 -12.573   0.784  1.00  0.00     0.168 HD
HETATM   20  C   UNL     1      38.173 -12.489  -1.061  1.00  0.00     0.051 A 
HETATM   21  C   UNL     1      38.160 -13.270  -2.198  1.00  0.00     0.083 A 
HETATM   22  S   UNL     1      39.348 -14.518  -2.137  1.00  0.00    -0.063 SA
BRANCH  20  23
HETATM   23  C   UNL     1      37.327 -11.315  -0.837  1.00  0.00    -0.006 A 
HETATM   24  C   UNL     1      36.999 -10.881   0.455  1.00  0.00     0.033 A 
HETATM   25  C   UNL     1      36.166  -9.784   0.604  1.00  0.00     0.117 A 
HETATM   26  N   UNL     1      35.643  -9.101  -0.430  1.00  0.00    -0.273 NA
HETATM   27  C   UNL     1      35.965  -9.521  -1.666  1.00  0.00     0.117 A 
HETATM   28  C   UNL     1      36.792 -10.606  -1.919  1.00  0.00     0.033 A 
ENDBRANCH  20  23
ENDBRANCH   4  17
TORSDOF 6
ENDMDL
MODEL 6
REMARK VINA RESULT:      -7.3      2.522      9.025
REMARK  6 active torsions:
REMARK  status: ('A' for Active; 'I' for Inactive)
REMARK    1  A    between atoms: O_1  and  C_2 
REMARK    2  A    between atoms: C_2  and  CA_3 
REMARK    3  A    between atoms: CA_3  and  N_4 
REMARK    4  A    between atoms: CA_3  and  C_20 
REMARK       I    between atoms: N_4  and  C_5 
REMARK       I    between atoms: C_5  and  N_7 
REMARK    5  A    between atoms: N_7  and  C_8 
REMARK    6  A    between atoms: C_11  and  C_14 
ROOT
HETATM    1  N   UNL     1      38.846 -13.341  -0.593  1.00  0.00    -0.332 N 
HETATM    2  C   UNL     1      39.781 -13.997   0.133  1.00  0.00     0.322 C 
HETATM    3  O   UNL     1      40.750 -14.637  -0.221  1.00  0.00    -0.247 OA
HETATM    4  N   UNL     1      39.480 -13.902   1.495  1.00  0.00    -0.289 N 
HETATM    5  H   UNL     1      38.112 -12.808  -0.154  1.00  0.00     0.165 HD
HETATM    6  H   UNL     1      38.637 -13.503   1.863  1.00  0.00     0.172 HD
ENDROOT
BRANCH   1   7
HETATM    7  CA  UNL     1      38.916 -13.262  -2.050  1.00  0.00     0.143 C 
BRANCH   7   8
HETATM    8  C   UNL     1      40.259 -12.673  -2.548  1.00  0.00     0.194 C 
BRANCH   8   9
HETATM    9  O   UNL     1      41.071 -13.687  -3.137  1.00  0.00    -0.398 OA
HETATM   10  H   UNL     1      41.284 -13.391  -4.042  1.00  0.00     0.209 HD
ENDBRANCH   8   9
ENDBRANCH   7   8
BRANCH   7  11
HETATM   11  C   UNL     1      37.714 -12.470  -2.536  1.00  0.00    -0.033 A 
HETATM   12  C   UNL     1      37.770 -11.069  -2.566  1.00  0.00     0.009 A 
HETATM   13  C   UNL     1      36.699 -10.322  -3.061  1.00  0.00     0.001 A 
HETATM   14  C   UNL     1      35.560 -10.965  -3.539  1.00  0.00     0.000 A 
HETATM   15  C   UNL     1      35.490 -12.355  -3.525  1.00  0.00     0.001 A 
HETATM   16  C   UNL     1      36.560 -13.105  -3.032  1.00  0.00     0.009 A 
ENDBRANCH   7  11
ENDBRANCH   1   7
BRANCH   4  17
HETATM   17  C   UNL     1      40.304 -14.376   2.415  1.00  0.00     0.153 A 
HETATM   18  N   UNL     1      40.900 -15.570   2.409  1.00  0.00    -0.335 N 
HETATM   19  H   UNL     1      40.672 -16.217   1.651  1.00  0.00     0.168 HD
HETATM   20  C   UNL     1      41.796 -15.769   3.447  1.00  0.00     0.051 A 
HETATM   21  C   UNL     1      41.809 -14.693   4.311  1.00  0.00     0.083 A 
HETATM   22  S   UNL     1      40.756 -13.433   3.786  1.00  0.00    -0.063 SA
BRANCH  20  23
HETATM   23  C   UNL     1      42.625 -16.968   3.583  1.00  0.00    -0.006 A 
HETATM   24  C   UNL     1      43.282 -17.276   4.782  1.00  0.00     0.033 A 
HETATM   25  C   UNL     1      44.081 -18.407   4.839  1.00  0.00     0.117 A 
HETATM   26  N   UNL     1      44.270 -19.238   3.799  1.00  0.00    -0.273 NA
HETATM   27  C   UNL     1      43.635 -18.938   2.652  1.00  0.00     0.117 A 
HETATM   28  C   UNL     1      42.812 -17.831   2.496  1.00  0.00     0.033 A 
ENDBRANCH  20  23
ENDBRANCH   4  17
TORSDOF 6
ENDMDL
MODEL 7
REMARK VINA RESULT:      -7.2      5.811      8.906
REMARK  6 active torsions:
REMARK  status: ('A' for Active; 'I' for Inactive)
REMARK    1  A    between atoms: O_1  and  C_2 
REMARK    2  A    between atoms: C_2  and  CA_3 
REMARK    3  A    between atoms: CA_3  and  N_4 
REMARK    4  A    between atoms: CA_3  and  C_20 
REMARK       I    between atoms: N_4  and  C_5 
REMARK       I    between atoms: C_5  and  N_7 
REMARK    5  A    between atoms: N_7  and  C_8 
REMARK    6  A    between atoms: C_11  and  C_14 
ROOT
HETATM    1  N   UNL     1      42.774 -10.755   7.544  1.00  0.00    -0.332 N 
HETATM    2  C   UNL     1      42.881 -11.569   6.469  1.00  0.00     0.322 C 
HETATM    3  O   UNL     1      43.785 -11.707   5.670  1.00  0.00    -0.247 OA
HETATM    4  N   UNL     1      41.703 -12.305   6.308  1.00  0.00    -0.289 N 
HETATM    5  H   UNL     1      41.971 -10.782   8.152  1.00  0.00     0.165 HD
HETATM    6  H   UNL     1      40.868 -12.162   6.845  1.00  0.00     0.172 HD
ENDROOT
BRANCH   1   7
HETATM    7  CA  UNL     1      43.866  -9.879   7.961  1.00  0.00     0.143 C 
BRANCH   7   8
HETATM    8  C   UNL     1      44.634 -10.431   9.188  1.00  0.00     0.194 C 
BRANCH   8   9
HETATM    9  O   UNL     1      43.800 -11.288   9.965  1.00  0.00    -0.398 OA
HETATM   10  H   UNL     1      43.247 -11.792   9.339  1.00  0.00     0.209 HD
ENDBRANCH   8   9
ENDBRANCH   7   8
BRANCH   7  11
HETATM   11  C   UNL     1      43.292  -8.494   8.205  1.00  0.00    -0.033 A 
HETATM   12  C   UNL     1      42.278  -8.004   7.368  1.00  0.00     0.009 A 
HETATM   13  C   UNL     1      41.696  -6.757   7.607  1.00  0.00     0.001 A 
HETATM   14  C   UNL     1      42.114  -5.986   8.689  1.00  0.00     0.000 A 
HETATM   15  C   UNL     1      43.112  -6.460   9.535  1.00  0.00     0.001 A 
HETATM   16  C   UNL     1      43.695  -7.708   9.300  1.00  0.00     0.009 A 
ENDBRANCH   7  11
ENDBRANCH   1   7
BRANCH   4  17
HETATM   17  C   UNL     1      41.602 -13.247   5.386  1.00  0.00     0.153 A 
HETATM   18  N   UNL     1      42.441 -14.267   5.197  1.00  0.00    -0.335 N 
HETATM   19  H   UNL     1      43.278 -14.316   5.782  1.00  0.00     0.168 HD
HETATM   20  C   UNL     1      42.040 -15.168   4.223  1.00  0.00     0.051 A 
HETATM   21  C   UNL     1      40.879 -14.751   3.604  1.00  0.00     0.083 A 
HETATM   22  S   UNL     1      40.276 -13.286   4.284  1.00  0.00    -0.063 SA
BRANCH  20  23
HETATM   23  C   UNL     1      42.761 -16.404   3.915  1.00  0.00    -0.006 A 
HETATM   24  C   UNL     1      42.603 -17.061   2.688  1.00  0.00     0.033 A 
HETATM   25  C   UNL     1      43.286 -18.248   2.468  1.00  0.00     0.117 A 
HETATM   26  N   UNL     1      44.101 -18.815   3.374  1.00  0.00    -0.273 NA
HETATM   27  C   UNL     1      44.250 -18.177   4.549  1.00  0.00     0.117 A 
HETATM   28  C   UNL     1      43.613 -16.985   4.863  1.00  0.00     0.033 A 
ENDBRANCH  20  23
ENDBRANCH   4  17
TORSDOF 6
ENDMDL
MODEL 8
REMARK VINA RESULT:      -7.2      2.762      8.925
REMARK  6 active torsions:
REMARK  status: ('A' for Active; 'I' for Inactive)
REMARK    1  A    between atoms: O_1  and  C_2 
REMARK    2  A    between atoms: C_2  and  CA_3 
REMARK    3  A    between atoms: CA_3  and  N_4 
REMARK    4  A    between atoms: CA_3  and  C_20 
REMARK       I    between atoms: N_4  and  C_5 
REMARK       I    between atoms: C_5  and  N_7 
REMARK    5  A    between atoms: N_7  and  C_8 
REMARK    6  A    between atoms: C_11  and  C_14 
ROOT
HETATM    1  N   UNL     1      38.490 -13.395  -0.743  1.00  0.00    -0.332 N 
HETATM    2  C   UNL     1      39.634 -13.881  -0.210  1.00  0.00     0.322 C 
HETATM    3  O   UNL     1      40.621 -14.344  -0.745  1.00  0.00    -0.247 OA
HETATM    4  N   UNL     1      39.566 -13.839   1.186  1.00  0.00    -0.289 N 
HETATM    5  H   UNL     1      37.764 -12.996  -0.169  1.00  0.00     0.165 HD
HETATM    6  H   UNL     1      38.745 -13.590   1.706  1.00  0.00     0.172 HD
ENDROOT
BRANCH   1   7
HETATM    7  CA  UNL     1      38.289 -13.306  -2.187  1.00  0.00     0.143 C 
BRANCH   7   8
HETATM    8  C   UNL     1      38.835 -14.545  -2.940  1.00  0.00     0.194 C 
BRANCH   8   9
HETATM    9  O   UNL     1      38.239 -14.659  -4.230  1.00  0.00    -0.398 OA
HETATM   10  H   UNL     1      37.356 -14.248  -4.174  1.00  0.00     0.209 HD
ENDBRANCH   8   9
ENDBRANCH   7   8
BRANCH   7  11
HETATM   11  C   UNL     1      38.913 -12.007  -2.670  1.00  0.00    -0.033 A 
HETATM   12  C   UNL     1      40.261 -11.986  -3.059  1.00  0.00     0.009 A 
HETATM   13  C   UNL     1      40.841 -10.818  -3.559  1.00  0.00     0.001 A 
HETATM   14  C   UNL     1      40.081  -9.657  -3.682  1.00  0.00     0.000 A 
HETATM   15  C   UNL     1      38.741  -9.662  -3.309  1.00  0.00     0.001 A 
HETATM   16  C   UNL     1      38.157 -10.830  -2.811  1.00  0.00     0.009 A 
ENDBRANCH   7  11
ENDBRANCH   1   7
BRANCH   4  17
HETATM   17  C   UNL     1      40.606 -14.163   1.935  1.00  0.00     0.153 A 
HETATM   18  N   UNL     1      41.040 -15.397   2.201  1.00  0.00    -0.335 N 
HETATM   19  H   UNL     1      40.498 -16.185   1.838  1.00  0.00     0.168 HD
HETATM   20  C   UNL     1      42.216 -15.447   2.932  1.00  0.00     0.051 A 
HETATM   21  C   UNL     1      42.636 -14.183   3.291  1.00  0.00     0.083 A 
HETATM   22  S   UNL     1      41.599 -12.956   2.665  1.00  0.00    -0.063 SA
BRANCH  20  23
HETATM   23  C   UNL     1      42.916 -16.691   3.257  1.00  0.00    -0.006 A 
HETATM   24  C   UNL     1      42.986 -17.755   2.347  1.00  0.00     0.033 A 
HETATM   25  C   UNL     1      43.633 -18.921   2.725  1.00  0.00     0.117 A 
HETATM   26  N   UNL     1      44.203 -19.098   3.930  1.00  0.00    -0.273 NA
HETATM   27  C   UNL     1      44.134 -18.073   4.797  1.00  0.00     0.117 A 
HETATM   28  C   UNL     1      43.512 -16.865   4.512  1.00  0.00     0.033 A 
ENDBRANCH  20  23
ENDBRANCH   4  17
TORSDOF 6
ENDMDL
MODEL 9
REMARK VINA RESULT:      -7.1     14.025     16.534
REMARK  6 active torsions:
REMARK  status: ('A' for Active; 'I' for Inactive)
REMARK    1  A    between atoms: O_1  and  C_2 
REMARK    2  A    between atoms: C_2  and  CA_3 
REMARK    3  A    between atoms: CA_3  and  N_4 
REMARK    4  A    between atoms: CA_3  and  C_20 
REMARK       I    between atoms: N_4  and  C_5 
REMARK       I    between atoms: C_5  and  N_7 
REMARK    5  A    between atoms: N_7  and  C_8 
REMARK    6  A    between atoms: C_11  and  C_14 
ROOT
HETATM    1  N   UNL     1      44.217 -29.040   0.839  1.00  0.00    -0.332 N 
HETATM    2  C   UNL     1      43.701 -30.079   1.535  1.00  0.00     0.322 C 
HETATM    3  O   UNL     1      44.068 -31.234   1.619  1.00  0.00    -0.247 OA
HETATM    4  N   UNL     1      42.542 -29.676   2.205  1.00  0.00    -0.289 N 
HETATM    5  H   UNL     1      43.826 -28.113   0.902  1.00  0.00     0.165 HD
HETATM    6  H   UNL     1      42.103 -28.782   2.090  1.00  0.00     0.172 HD
ENDROOT
BRANCH   1   7
HETATM    7  CA  UNL     1      45.442 -29.169   0.054  1.00  0.00     0.143 C 
BRANCH   7   8
HETATM    8  C   UNL     1      46.529 -28.151   0.480  1.00  0.00     0.194 C 
BRANCH   8   9
HETATM    9  O   UNL     1      46.409 -27.829   1.864  1.00  0.00    -0.398 OA
HETATM   10  H   UNL     1      46.288 -26.863   1.923  1.00  0.00     0.209 HD
ENDBRANCH   8   9
ENDBRANCH   7   8
BRANCH   7  11
HETATM   11  C   UNL     1      45.074 -29.052  -1.416  1.00  0.00    -0.033 A 
HETATM   12  C   UNL     1      45.664 -28.051  -2.203  1.00  0.00     0.009 A 
HETATM   13  C   UNL     1      45.384 -27.959  -3.567  1.00  0.00     0.001 A 
HETATM   14  C   UNL     1      44.515 -28.869  -4.166  1.00  0.00     0.000 A 
HETATM   15  C   UNL     1      43.927 -29.872  -3.403  1.00  0.00     0.001 A 
HETATM   16  C   UNL     1      44.207 -29.969  -2.037  1.00  0.00     0.009 A 
ENDBRANCH   7  11
ENDBRANCH   1   7
BRANCH   4  17
HETATM   17  C   UNL     1      41.912 -30.488   3.037  1.00  0.00     0.153 A 
HETATM   18  N   UNL     1      42.165 -30.644   4.338  1.00  0.00    -0.335 N 
HETATM   19  H   UNL     1      42.952 -30.130   4.740  1.00  0.00     0.168 HD
HETATM   20  C   UNL     1      41.284 -31.486   4.997  1.00  0.00     0.051 A 
HETATM   21  C   UNL     1      40.374 -32.043   4.121  1.00  0.00     0.083 A 
HETATM   22  S   UNL     1      40.592 -31.465   2.512  1.00  0.00    -0.063 SA
BRANCH  20  23
HETATM   23  C   UNL     1      41.320 -31.729   6.441  1.00  0.00    -0.006 A 
HETATM   24  C   UNL     1      40.195 -32.191   7.137  1.00  0.00     0.033 A 
HETATM   25  C   UNL     1      40.280 -32.368   8.509  1.00  0.00     0.117 A 
HETATM   26  N   UNL     1      41.392 -32.119   9.224  1.00  0.00    -0.273 NA
HETATM   27  C   UNL     1      42.468 -31.678   8.548  1.00  0.00     0.117 A 
HETATM   28  C   UNL     1      42.483 -31.472   7.176  1.00  0.00     0.033 A 
ENDBRANCH  20  23
ENDBRANCH   4  17
TORSDOF 6
ENDMDL
MODEL 10
REMARK VINA RESULT:      -7.0      6.792      9.604
REMARK  6 active torsions:
REMARK  status: ('A' for Active; 'I' for Inactive)
REMARK    1  A    between atoms: O_1  and  C_2 
REMARK    2  A    between atoms: C_2  and  CA_3 
REMARK    3  A    between atoms: CA_3  and  N_4 
REMARK    4  A    between atoms: CA_3  and  C_20 
REMARK       I    between atoms: N_4  and  C_5 
REMARK       I    between atoms: C_5  and  N_7 
REMARK    5  A    between atoms: N_7  and  C_8 
REMARK    6  A    between atoms: C_11  and  C_14 
ROOT
HETATM    1  N   UNL     1      42.264 -13.102   5.605  1.00  0.00    -0.332 N 
HETATM    2  C   UNL     1      42.737 -11.926   6.076  1.00  0.00     0.322 C 
HETATM    3  O   UNL     1      42.622 -10.798   5.642  1.00  0.00    -0.247 OA
HETATM    4  N   UNL     1      43.500 -12.144   7.228  1.00  0.00    -0.289 N 
HETATM    5  H   UNL     1      42.404 -13.968   6.103  1.00  0.00     0.165 HD
HETATM    6  H   UNL     1      43.748 -13.050   7.579  1.00  0.00     0.172 HD
ENDROOT
BRANCH   1   7
HETATM    7  CA  UNL     1      41.419 -13.174   4.416  1.00  0.00     0.143 C 
BRANCH   7   8
HETATM    8  C   UNL     1      39.916 -12.992   4.745  1.00  0.00     0.194 C 
BRANCH   8   9
HETATM    9  O   UNL     1      39.375 -11.876   4.040  1.00  0.00    -0.398 OA
HETATM   10  H   UNL     1      39.322 -12.131   3.100  1.00  0.00     0.209 HD
ENDBRANCH   8   9
ENDBRANCH   7   8
BRANCH   7  11
HETATM   11  C   UNL     1      41.709 -14.489   3.712  1.00  0.00    -0.033 A 
HETATM   12  C   UNL     1      40.645 -15.280   3.250  1.00  0.00     0.009 A 
HETATM   13  C   UNL     1      40.887 -16.464   2.551  1.00  0.00     0.001 A 
HETATM   14  C   UNL     1      42.195 -16.872   2.299  1.00  0.00     0.000 A 
HETATM   15  C   UNL     1      43.262 -16.097   2.742  1.00  0.00     0.001 A 
HETATM   16  C   UNL     1      43.023 -14.910   3.439  1.00  0.00     0.009 A 
ENDBRANCH   7  11
ENDBRANCH   1   7
BRANCH   4  17
HETATM   17  C   UNL     1      43.984 -11.136   7.932  1.00  0.00     0.153 A 
HETATM   18  N   UNL     1      43.307 -10.363   8.784  1.00  0.00    -0.335 N 
HETATM   19  H   UNL     1      42.301 -10.520   8.878  1.00  0.00     0.168 HD
HETATM   20  C   UNL     1      44.085  -9.443   9.468  1.00  0.00     0.051 A 
HETATM   21  C   UNL     1      45.398  -9.485   9.045  1.00  0.00     0.083 A 
HETATM   22  S   UNL     1      45.653 -10.705   7.854  1.00  0.00    -0.063 SA
BRANCH  20  23
HETATM   23  C   UNL     1      43.564  -8.559  10.513  1.00  0.00    -0.006 A 
HETATM   24  C   UNL     1      43.626  -8.908  11.869  1.00  0.00     0.033 A 
HETATM   25  C   UNL     1      43.086  -8.046  12.810  1.00  0.00     0.117 A 
HETATM   26  N   UNL     1      42.494  -6.879  12.497  1.00  0.00    -0.273 NA
HETATM   27  C   UNL     1      42.441  -6.550  11.194  1.00  0.00     0.117 A 
HETATM   28  C   UNL     1      42.956  -7.344  10.178  1.00  0.00     0.033 A 
ENDBRANCH  20  23
ENDBRANCH   4  17
TORSDOF 6
ENDMDL
