MODEL 1
REMARK VINA RESULT:      -8.5      0.000      0.000
REMARK  3 active torsions:
REMARK  status: ('A' for Active; 'I' for Inactive)
REMARK    1  A    between atoms: C_6  and  N_7 
REMARK       I    between atoms: N_7  and  C_8 
REMARK    2  A    between atoms: C_8  and  C_9 
REMARK    3  A    between atoms: C_9  and  C_10 
ROOT
HETATM    1  C   UNL     1      42.012 -11.746   6.116  1.00  0.00     0.286 C 
HETATM    2  N   UNL     1      42.916 -12.457   7.137  1.00  0.00    -0.056 N 
HETATM    3  H   UNL     1      42.303 -12.820   7.880  1.00  0.00     0.278 HD
HETATM    4  H   UNL     1      43.293 -13.331   6.710  1.00  0.00     0.278 HD
HETATM    5  C   UNL     1      44.014 -11.669   7.773  1.00  0.00     0.209 C 
HETATM    6  C   UNL     1      43.489 -10.268   8.155  1.00  0.00     0.115 C 
HETATM    7  N   UNL     1      42.886  -9.595   7.011  1.00  0.00    -0.353 N 
HETATM    8  C   UNL     1      42.133 -10.219   6.056  1.00  0.00     0.249 C 
HETATM    9  O   UNL     1      41.564  -9.557   5.195  1.00  0.00    -0.271 OA
HETATM   10  C   UNL     1      45.230 -11.616   6.847  1.00  0.00     0.035 C 
HETATM   11  C   UNL     1      46.338 -10.762   7.463  1.00  0.00     0.002 C 
HETATM   12  C   UNL     1      45.843  -9.368   7.842  1.00  0.00     0.002 C 
HETATM   13  C   UNL     1      44.616  -9.423   8.754  1.00  0.00     0.027 C 
HETATM   14  H   UNL     1      42.847  -8.577   6.982  1.00  0.00     0.163 HD
ENDROOT
BRANCH   1  15
HETATM   15  C   UNL     1      42.174 -12.355   4.717  1.00  0.00     0.146 C 
BRANCH  15  16
HETATM   16  C   UNL     1      42.178 -13.850   4.907  1.00  0.00     0.224 C 
HETATM   17  N   UNL     1      43.172 -14.493   4.220  1.00  0.00    -0.327 N 
HETATM   18  H   UNL     1      43.936 -13.905   3.897  1.00  0.00     0.169 HD
HETATM   19  O   UNL     1      41.203 -14.314   5.492  1.00  0.00    -0.273 OA
BRANCH  17  20
HETATM   20  C   UNL     1      43.338 -15.856   3.858  1.00  0.00     0.040 A 
HETATM   21  C   UNL     1      43.827 -16.922   4.635  1.00  0.00    -0.035 A 
HETATM   22  C   UNL     1      43.843 -18.223   4.073  1.00  0.00     0.015 A 
HETATM   23  C   UNL     1      44.359 -16.826   6.035  1.00  0.00     0.050 C 
HETATM   24  C   UNL     1      43.408 -18.483   2.770  1.00  0.00    -0.061 A 
HETATM   25  C   UNL     1      43.422 -19.875   2.215  1.00  0.00     0.048 C 
HETATM   26  C   UNL     1      42.926 -17.426   2.009  1.00  0.00     0.009 A 
HETATM   27  C   UNL     1      42.901 -16.137   2.544  1.00  0.00     0.030 A 
ENDBRANCH  17  20
ENDBRANCH  15  16
ENDBRANCH   1  15
TORSDOF 3
ENDMDL
MODEL 2
REMARK VINA RESULT:      -8.4      0.461      1.536
REMARK  3 active torsions:
REMARK  status: ('A' for Active; 'I' for Inactive)
REMARK    1  A    between atoms: C_6  and  N_7 
REMARK       I    between atoms: N_7  and  C_8 
REMARK    2  A    between atoms: C_8  and  C_9 
REMARK    3  A    between atoms: C_9  and  C_10 
ROOT
HETATM    1  C   UNL     1      42.197 -11.661   6.291  1.00  0.00     0.286 C 
HETATM    2  N   UNL     1      43.176 -12.417   7.205  1.00  0.00    -0.056 N 
HETATM    3  H   UNL     1      42.615 -12.855   7.948  1.00  0.00     0.278 HD
HETATM    4  H   UNL     1      43.554 -13.243   6.693  1.00  0.00     0.278 HD
HETATM    5  C   UNL     1      44.284 -11.643   7.842  1.00  0.00     0.209 C 
HETATM    6  C   UNL     1      43.741 -10.293   8.358  1.00  0.00     0.115 C 
HETATM    7  N   UNL     1      43.058  -9.556   7.302  1.00  0.00    -0.353 N 
HETATM    8  C   UNL     1      42.272 -10.131   6.343  1.00  0.00     0.249 C 
HETATM    9  O   UNL     1      41.638  -9.424   5.566  1.00  0.00    -0.271 OA
HETATM   10  C   UNL     1      45.446 -11.481   6.861  1.00  0.00     0.035 C 
HETATM   11  C   UNL     1      46.561 -10.640   7.482  1.00  0.00     0.002 C 
HETATM   12  C   UNL     1      46.047  -9.295   7.993  1.00  0.00     0.002 C 
HETATM   13  C   UNL     1      44.875  -9.460   8.960  1.00  0.00     0.027 C 
HETATM   14  H   UNL     1      42.988  -8.541   7.354  1.00  0.00     0.163 HD
ENDROOT
BRANCH   1  15
HETATM   15  C   UNL     1      42.301 -12.156   4.842  1.00  0.00     0.146 C 
BRANCH  15  16
HETATM   16  C   UNL     1      42.177 -13.657   4.901  1.00  0.00     0.224 C 
HETATM   17  N   UNL     1      43.120 -14.320   4.162  1.00  0.00    -0.327 N 
HETATM   18  H   UNL     1      43.933 -13.773   3.893  1.00  0.00     0.169 HD
HETATM   19  O   UNL     1      41.162 -14.086   5.443  1.00  0.00    -0.273 OA
BRANCH  17  20
HETATM   20  C   UNL     1      43.174 -15.656   3.683  1.00  0.00     0.040 A 
HETATM   21  C   UNL     1      42.822 -16.153   2.415  1.00  0.00    -0.035 A 
HETATM   22  C   UNL     1      43.022 -17.530   2.145  1.00  0.00     0.015 A 
HETATM   23  C   UNL     1      42.230 -15.361   1.286  1.00  0.00     0.050 C 
HETATM   24  C   UNL     1      43.540 -18.414   3.096  1.00  0.00    -0.061 A 
HETATM   25  C   UNL     1      43.755 -19.861   2.768  1.00  0.00     0.048 C 
HETATM   26  C   UNL     1      43.885 -17.916   4.345  1.00  0.00     0.009 A 
HETATM   27  C   UNL     1      43.697 -16.563   4.631  1.00  0.00     0.030 A 
ENDBRANCH  17  20
ENDBRANCH  15  16
ENDBRANCH   1  15
TORSDOF 3
ENDMDL
MODEL 3
REMARK VINA RESULT:      -8.2      1.751      2.355
REMARK  3 active torsions:
REMARK  status: ('A' for Active; 'I' for Inactive)
REMARK    1  A    between atoms: C_6  and  N_7 
REMARK       I    between atoms: N_7  and  C_8 
REMARK    2  A    between atoms: C_8  and  C_9 
REMARK    3  A    between atoms: C_9  and  C_10 
ROOT
HETATM    1  C   UNL     1      41.433 -12.522   3.267  1.00  0.00     0.286 C 
HETATM    2  N   UNL     1      41.274 -13.132   4.669  1.00  0.00    -0.056 N 
HETATM    3  H   UNL     1      40.272 -13.092   4.902  1.00  0.00     0.278 HD
HETATM    4  H   UNL     1      41.451 -14.159   4.618  1.00  0.00     0.278 HD
HETATM    5  C   UNL     1      42.045 -12.523   5.794  1.00  0.00     0.209 C 
HETATM    6  C   UNL     1      41.986 -10.984   5.687  1.00  0.00     0.115 C 
HETATM    7  N   UNL     1      42.422 -10.524   4.374  1.00  0.00    -0.353 N 
HETATM    8  C   UNL     1      42.145 -11.165   3.199  1.00  0.00     0.249 C 
HETATM    9  O   UNL     1      42.448 -10.645   2.130  1.00  0.00    -0.271 OA
HETATM   10  C   UNL     1      43.476 -13.063   5.806  1.00  0.00     0.035 C 
HETATM   11  C   UNL     1      44.291 -12.401   6.916  1.00  0.00     0.002 C 
HETATM   12  C   UNL     1      44.253 -10.877   6.825  1.00  0.00     0.002 C 
HETATM   13  C   UNL     1      42.821 -10.341   6.796  1.00  0.00     0.027 C 
HETATM   14  H   UNL     1      42.801  -9.585   4.264  1.00  0.00     0.163 HD
ENDROOT
BRANCH   1  15
HETATM   15  C   UNL     1      42.086 -13.521   2.302  1.00  0.00     0.146 C 
BRANCH  15  16
HETATM   16  C   UNL     1      41.939 -14.878   2.939  1.00  0.00     0.224 C 
HETATM   17  N   UNL     1      43.129 -15.512   3.173  1.00  0.00    -0.327 N 
HETATM   18  H   UNL     1      43.955 -14.919   3.155  1.00  0.00     0.169 HD
HETATM   19  O   UNL     1      40.793 -15.316   3.000  1.00  0.00    -0.273 OA
BRANCH  17  20
HETATM   20  C   UNL     1      43.437 -16.874   3.434  1.00  0.00     0.040 A 
HETATM   21  C   UNL     1      43.913 -17.458   4.622  1.00  0.00    -0.035 A 
HETATM   22  C   UNL     1      44.091 -18.864   4.665  1.00  0.00     0.015 A 
HETATM   23  C   UNL     1      44.275 -16.731   5.883  1.00  0.00     0.050 C 
HETATM   24  C   UNL     1      43.826 -19.688   3.567  1.00  0.00    -0.061 A 
HETATM   25  C   UNL     1      44.008 -21.173   3.655  1.00  0.00     0.048 C 
HETATM   26  C   UNL     1      43.356 -19.103   2.399  1.00  0.00     0.009 A 
HETATM   27  C   UNL     1      43.174 -17.721   2.335  1.00  0.00     0.030 A 
ENDBRANCH  17  20
ENDBRANCH  15  16
ENDBRANCH   1  15
TORSDOF 3
ENDMDL
MODEL 4
REMARK VINA RESULT:      -8.2      1.966      3.475
REMARK  3 active torsions:
REMARK  status: ('A' for Active; 'I' for Inactive)
REMARK    1  A    between atoms: C_6  and  N_7 
REMARK       I    between atoms: N_7  and  C_8 
REMARK    2  A    between atoms: C_8  and  C_9 
REMARK    3  A    between atoms: C_9  and  C_10 
ROOT
HETATM    1  C   UNL     1      43.359 -13.386   6.151  1.00  0.00     0.286 C 
HETATM    2  N   UNL     1      42.196 -13.401   5.145  1.00  0.00    -0.056 N 
HETATM    3  H   UNL     1      42.612 -13.480   4.207  1.00  0.00     0.278 HD
HETATM    4  H   UNL     1      41.676 -14.301   5.236  1.00  0.00     0.278 HD
HETATM    5  C   UNL     1      41.248 -12.246   5.147  1.00  0.00     0.209 C 
HETATM    6  C   UNL     1      42.041 -10.929   5.285  1.00  0.00     0.115 C 
HETATM    7  N   UNL     1      42.919 -10.955   6.449  1.00  0.00    -0.353 N 
HETATM    8  C   UNL     1      43.611 -12.056   6.870  1.00  0.00     0.249 C 
HETATM    9  O   UNL     1      44.421 -11.957   7.786  1.00  0.00    -0.271 OA
HETATM   10  C   UNL     1      40.199 -12.427   6.246  1.00  0.00     0.035 C 
HETATM   11  C   UNL     1      39.260 -11.223   6.296  1.00  0.00     0.002 C 
HETATM   12  C   UNL     1      40.023  -9.907   6.440  1.00  0.00     0.002 C 
HETATM   13  C   UNL     1      41.083  -9.737   5.351  1.00  0.00     0.027 C 
HETATM   14  H   UNL     1      43.202 -10.083   6.892  1.00  0.00     0.163 HD
ENDROOT
BRANCH   1  15
HETATM   15  C   UNL     1      43.225 -14.530   7.165  1.00  0.00     0.146 C 
BRANCH  15  16
HETATM   16  C   UNL     1      42.706 -15.716   6.396  1.00  0.00     0.224 C 
HETATM   17  N   UNL     1      43.666 -16.368   5.668  1.00  0.00    -0.327 N 
HETATM   18  H   UNL     1      44.628 -16.168   5.930  1.00  0.00     0.169 HD
HETATM   19  O   UNL     1      41.485 -15.841   6.370  1.00  0.00    -0.273 OA
BRANCH  17  20
HETATM   20  C   UNL     1      43.570 -17.285   4.588  1.00  0.00     0.040 A 
HETATM   21  C   UNL     1      43.172 -17.046   3.261  1.00  0.00    -0.035 A 
HETATM   22  C   UNL     1      43.215 -18.116   2.333  1.00  0.00     0.015 A 
HETATM   23  C   UNL     1      42.680 -15.741   2.705  1.00  0.00     0.050 C 
HETATM   24  C   UNL     1      43.623 -19.404   2.693  1.00  0.00    -0.061 A 
HETATM   25  C   UNL     1      43.674 -20.509   1.681  1.00  0.00     0.048 C 
HETATM   26  C   UNL     1      44.016 -19.633   4.005  1.00  0.00     0.009 A 
HETATM   27  C   UNL     1      43.981 -18.591   4.934  1.00  0.00     0.030 A 
ENDBRANCH  17  20
ENDBRANCH  15  16
ENDBRANCH   1  15
TORSDOF 3
ENDMDL
MODEL 5
REMARK VINA RESULT:      -7.9      2.622      4.188
REMARK  3 active torsions:
REMARK  status: ('A' for Active; 'I' for Inactive)
REMARK    1  A    between atoms: C_6  and  N_7 
REMARK       I    between atoms: N_7  and  C_8 
REMARK    2  A    between atoms: C_8  and  C_9 
REMARK    3  A    between atoms: C_9  and  C_10 
ROOT
HETATM    1  C   UNL     1      43.689  -9.752   8.291  1.00  0.00     0.286 C 
HETATM    2  N   UNL     1      42.414 -10.113   9.071  1.00  0.00    -0.056 N 
HETATM    3  H   UNL     1      41.619  -9.949   8.439  1.00  0.00     0.278 HD
HETATM    4  H   UNL     1      42.380 -11.146   9.212  1.00  0.00     0.278 HD
HETATM    5  C   UNL     1      42.150  -9.400  10.358  1.00  0.00     0.209 C 
HETATM    6  C   UNL     1      42.470  -7.899  10.191  1.00  0.00     0.115 C 
HETATM    7  N   UNL     1      43.823  -7.695   9.687  1.00  0.00    -0.353 N 
HETATM    8  C   UNL     1      44.428  -8.490   8.754  1.00  0.00     0.249 C 
HETATM    9  O   UNL     1      45.522  -8.176   8.298  1.00  0.00    -0.271 OA
HETATM   10  C   UNL     1      42.939 -10.053  11.494  1.00  0.00     0.035 C 
HETATM   11  C   UNL     1      42.723  -9.295  12.803  1.00  0.00     0.002 C 
HETATM   12  C   UNL     1      43.040  -7.807  12.663  1.00  0.00     0.002 C 
HETATM   13  C   UNL     1      42.264  -7.161  11.515  1.00  0.00     0.027 C 
HETATM   14  H   UNL     1      44.311  -6.822   9.879  1.00  0.00     0.163 HD
ENDROOT
BRANCH   1  15
HETATM   15  C   UNL     1      44.651 -10.945   8.224  1.00  0.00     0.146 C 
BRANCH  15  16
HETATM   16  C   UNL     1      44.375 -11.634   6.913  1.00  0.00     0.224 C 
HETATM   17  N   UNL     1      43.660 -12.796   7.038  1.00  0.00    -0.327 N 
HETATM   18  H   UNL     1      43.174 -12.920   7.922  1.00  0.00     0.169 HD
HETATM   19  O   UNL     1      44.965 -11.179   5.937  1.00  0.00    -0.273 OA
BRANCH  17  20
HETATM   20  C   UNL     1      43.473 -13.888   6.150  1.00  0.00     0.040 A 
HETATM   21  C   UNL     1      42.872 -13.897   4.878  1.00  0.00    -0.035 A 
HETATM   22  C   UNL     1      42.854 -15.108   4.142  1.00  0.00     0.015 A 
HETATM   23  C   UNL     1      42.217 -12.729   4.200  1.00  0.00     0.050 C 
HETATM   24  C   UNL     1      43.397 -16.296   4.640  1.00  0.00    -0.061 A 
HETATM   25  C   UNL     1      43.377 -17.555   3.826  1.00  0.00     0.048 C 
HETATM   26  C   UNL     1      43.989 -16.279   5.895  1.00  0.00     0.009 A 
HETATM   27  C   UNL     1      44.018 -15.096   6.636  1.00  0.00     0.030 A 
ENDBRANCH  17  20
ENDBRANCH  15  16
ENDBRANCH   1  15
TORSDOF 3
ENDMDL
MODEL 6
REMARK VINA RESULT:      -7.9      4.578      7.106
REMARK  3 active torsions:
REMARK  status: ('A' for Active; 'I' for Inactive)
REMARK    1  A    between atoms: C_6  and  N_7 
REMARK       I    between atoms: N_7  and  C_8 
REMARK    2  A    between atoms: C_8  and  C_9 
REMARK    3  A    between atoms: C_9  and  C_10 
ROOT
HETATM    1  C   UNL     1      39.520 -12.093   1.402  1.00  0.00     0.286 C 
HETATM    2  N   UNL     1      40.575 -12.631   0.422  1.00  0.00    -0.056 N 
HETATM    3  H   UNL     1      41.303 -11.908   0.338  1.00  0.00     0.278 HD
HETATM    4  H   UNL     1      41.092 -13.417   0.874  1.00  0.00     0.278 HD
HETATM    5  C   UNL     1      40.130 -13.017  -0.951  1.00  0.00     0.209 C 
HETATM    6  C   UNL     1      39.147 -11.957  -1.491  1.00  0.00     0.115 C 
HETATM    7  N   UNL     1      38.040 -11.737  -0.568  1.00  0.00    -0.353 N 
HETATM    8  C   UNL     1      38.160 -11.728   0.794  1.00  0.00     0.249 C 
HETATM    9  O   UNL     1      37.200 -11.415   1.491  1.00  0.00    -0.271 OA
HETATM   10  C   UNL     1      39.536 -14.426  -0.936  1.00  0.00     0.035 C 
HETATM   11  C   UNL     1      39.023 -14.808  -2.324  1.00  0.00     0.002 C 
HETATM   12  C   UNL     1      38.041 -13.775  -2.876  1.00  0.00     0.002 C 
HETATM   13  C   UNL     1      38.632 -12.365  -2.873  1.00  0.00     0.027 C 
HETATM   14  H   UNL     1      37.149 -11.388  -0.916  1.00  0.00     0.163 HD
ENDROOT
BRANCH   1  15
HETATM   15  C   UNL     1      39.339 -13.041   2.594  1.00  0.00     0.146 C 
BRANCH  15  16
HETATM   16  C   UNL     1      40.694 -13.640   2.865  1.00  0.00     0.224 C 
HETATM   17  N   UNL     1      40.702 -15.009   2.885  1.00  0.00    -0.327 N 
HETATM   18  H   UNL     1      39.896 -15.460   2.460  1.00  0.00     0.169 HD
HETATM   19  O   UNL     1      41.568 -12.847   3.206  1.00  0.00    -0.273 OA
BRANCH  17  20
HETATM   20  C   UNL     1      41.640 -15.939   3.407  1.00  0.00     0.040 A 
HETATM   21  C   UNL     1      41.888 -16.283   4.748  1.00  0.00    -0.035 A 
HETATM   22  C   UNL     1      42.840 -17.295   5.026  1.00  0.00     0.015 A 
HETATM   23  C   UNL     1      41.242 -15.667   5.954  1.00  0.00     0.050 C 
HETATM   24  C   UNL     1      43.552 -17.952   4.018  1.00  0.00    -0.061 A 
HETATM   25  C   UNL     1      44.539 -19.032   4.348  1.00  0.00     0.048 C 
HETATM   26  C   UNL     1      43.301 -17.608   2.697  1.00  0.00     0.009 A 
HETATM   27  C   UNL     1      42.367 -16.614   2.402  1.00  0.00     0.030 A 
ENDBRANCH  17  20
ENDBRANCH  15  16
ENDBRANCH   1  15
TORSDOF 3
ENDMDL
MODEL 7
REMARK VINA RESULT:      -7.8      5.781      8.059
REMARK  3 active torsions:
REMARK  status: ('A' for Active; 'I' for Inactive)
REMARK    1  A    between atoms: C_6  and  N_7 
REMARK       I    between atoms: N_7  and  C_8 
REMARK    2  A    between atoms: C_8  and  C_9 
REMARK    3  A    between atoms: C_9  and  C_10 
ROOT
HETATM    1  C   UNL     1      39.430 -13.630  -1.003  1.00  0.00     0.286 C 
HETATM    2  N   UNL     1      38.374 -12.835  -0.218  1.00  0.00    -0.056 N 
HETATM    3  H   UNL     1      37.673 -13.512   0.113  1.00  0.00     0.278 HD
HETATM    4  H   UNL     1      38.795 -12.494   0.674  1.00  0.00     0.278 HD
HETATM    5  C   UNL     1      37.663 -11.724  -0.920  1.00  0.00     0.209 C 
HETATM    6  C   UNL     1      37.286 -12.173  -2.348  1.00  0.00     0.115 C 
HETATM    7  N   UNL     1      38.449 -12.664  -3.077  1.00  0.00    -0.353 N 
HETATM    8  C   UNL     1      39.456 -13.402  -2.519  1.00  0.00     0.249 C 
HETATM    9  O   UNL     1      40.335 -13.876  -3.231  1.00  0.00    -0.271 OA
HETATM   10  C   UNL     1      38.520 -10.456  -0.903  1.00  0.00     0.035 C 
HETATM   11  C   UNL     1      37.828  -9.330  -1.670  1.00  0.00     0.002 C 
HETATM   12  C   UNL     1      37.452  -9.751  -3.090  1.00  0.00     0.002 C 
HETATM   13  C   UNL     1      36.611 -11.028  -3.105  1.00  0.00     0.027 C 
HETATM   14  H   UNL     1      38.462 -12.633  -4.095  1.00  0.00     0.163 HD
ENDROOT
BRANCH   1  15
HETATM   15  C   UNL     1      40.829 -13.429  -0.405  1.00  0.00     0.146 C 
BRANCH  15  16
HETATM   16  C   UNL     1      40.883 -14.285   0.834  1.00  0.00     0.224 C 
HETATM   17  N   UNL     1      42.137 -14.408   1.369  1.00  0.00    -0.327 N 
HETATM   18  H   UNL     1      42.817 -13.720   1.058  1.00  0.00     0.169 HD
HETATM   19  O   UNL     1      39.854 -14.900   1.101  1.00  0.00    -0.273 OA
BRANCH  17  20
HETATM   20  C   UNL     1      42.682 -15.341   2.291  1.00  0.00     0.040 A 
HETATM   21  C   UNL     1      42.936 -15.178   3.665  1.00  0.00    -0.035 A 
HETATM   22  C   UNL     1      43.431 -16.283   4.401  1.00  0.00     0.015 A 
HETATM   23  C   UNL     1      42.744 -13.918   4.457  1.00  0.00     0.050 C 
HETATM   24  C   UNL     1      43.691 -17.522   3.810  1.00  0.00    -0.061 A 
HETATM   25  C   UNL     1      44.197 -18.675   4.624  1.00  0.00     0.048 C 
HETATM   26  C   UNL     1      43.437 -17.676   2.454  1.00  0.00     0.009 A 
HETATM   27  C   UNL     1      42.949 -16.600   1.710  1.00  0.00     0.030 A 
ENDBRANCH  17  20
ENDBRANCH  15  16
ENDBRANCH   1  15
TORSDOF 3
ENDMDL
MODEL 8
REMARK VINA RESULT:      -7.7      3.340      6.013
REMARK  3 active torsions:
REMARK  status: ('A' for Active; 'I' for Inactive)
REMARK    1  A    between atoms: C_6  and  N_7 
REMARK       I    between atoms: N_7  and  C_8 
REMARK    2  A    between atoms: C_8  and  C_9 
REMARK    3  A    between atoms: C_9  and  C_10 
ROOT
HETATM    1  C   UNL     1      41.826 -13.922   5.690  1.00  0.00     0.286 C 
HETATM    2  N   UNL     1      41.071 -15.156   5.171  1.00  0.00    -0.056 N 
HETATM    3  H   UNL     1      40.267 -15.302   5.797  1.00  0.00     0.278 HD
HETATM    4  H   UNL     1      40.610 -14.920   4.266  1.00  0.00     0.278 HD
HETATM    5  C   UNL     1      41.821 -16.444   5.057  1.00  0.00     0.209 C 
HETATM    6  C   UNL     1      42.708 -16.636   6.306  1.00  0.00     0.115 C 
HETATM    7  N   UNL     1      43.573 -15.484   6.528  1.00  0.00    -0.353 N 
HETATM    8  C   UNL     1      43.200 -14.186   6.317  1.00  0.00     0.249 C 
HETATM    9  O   UNL     1      43.950 -13.272   6.644  1.00  0.00    -0.271 OA
HETATM   10  C   UNL     1      42.617 -16.476   3.752  1.00  0.00     0.035 C 
HETATM   11  C   UNL     1      43.435 -17.763   3.652  1.00  0.00     0.002 C 
HETATM   12  C   UNL     1      44.327 -17.971   4.875  1.00  0.00     0.002 C 
HETATM   13  C   UNL     1      43.531 -17.920   6.180  1.00  0.00     0.027 C 
HETATM   14  H   UNL     1      44.447 -15.595   7.038  1.00  0.00     0.163 HD
ENDROOT
BRANCH   1  15
HETATM   15  C   UNL     1      41.927 -12.841   4.606  1.00  0.00     0.146 C 
BRANCH  15  16
HETATM   16  C   UNL     1      40.917 -13.208   3.550  1.00  0.00     0.224 C 
HETATM   17  N   UNL     1      41.473 -13.547   2.346  1.00  0.00    -0.327 N 
HETATM   18  H   UNL     1      42.463 -13.777   2.367  1.00  0.00     0.169 HD
HETATM   19  O   UNL     1      39.744 -12.988   3.837  1.00  0.00    -0.273 OA
BRANCH  17  20
HETATM   20  C   UNL     1      40.918 -13.632   1.041  1.00  0.00     0.040 A 
HETATM   21  C   UNL     1      40.178 -14.680   0.464  1.00  0.00    -0.035 A 
HETATM   22  C   UNL     1      39.668 -14.512  -0.847  1.00  0.00     0.015 A 
HETATM   23  C   UNL     1      39.871 -16.003   1.103  1.00  0.00     0.050 C 
HETATM   24  C   UNL     1      39.887 -13.351  -1.594  1.00  0.00    -0.061 A 
HETATM   25  C   UNL     1      39.316 -13.200  -2.972  1.00  0.00     0.048 C 
HETATM   26  C   UNL     1      40.617 -12.320  -1.017  1.00  0.00     0.009 A 
HETATM   27  C   UNL     1      41.128 -12.465   0.274  1.00  0.00     0.030 A 
ENDBRANCH  17  20
ENDBRANCH  15  16
ENDBRANCH   1  15
TORSDOF 3
ENDMDL
MODEL 9
REMARK VINA RESULT:      -7.6      4.758      7.099
REMARK  3 active torsions:
REMARK  status: ('A' for Active; 'I' for Inactive)
REMARK    1  A    between atoms: C_6  and  N_7 
REMARK       I    between atoms: N_7  and  C_8 
REMARK    2  A    between atoms: C_8  and  C_9 
REMARK    3  A    between atoms: C_9  and  C_10 
ROOT
HETATM    1  C   UNL     1      41.564 -14.781   2.928  1.00  0.00     0.286 C 
HETATM    2  N   UNL     1      41.183 -16.059   3.692  1.00  0.00    -0.056 N 
HETATM    3  H   UNL     1      40.226 -15.923   4.046  1.00  0.00     0.278 HD
HETATM    4  H   UNL     1      41.061 -16.841   3.012  1.00  0.00     0.278 HD
HETATM    5  C   UNL     1      42.052 -16.485   4.830  1.00  0.00     0.209 C 
HETATM    6  C   UNL     1      42.439 -15.252   5.674  1.00  0.00     0.115 C 
HETATM    7  N   UNL     1      43.039 -14.210   4.850  1.00  0.00    -0.353 N 
HETATM    8  C   UNL     1      42.636 -13.900   3.581  1.00  0.00     0.249 C 
HETATM    9  O   UNL     1      43.116 -12.928   3.005  1.00  0.00    -0.271 OA
HETATM   10  C   UNL     1      43.268 -17.252   4.307  1.00  0.00     0.035 C 
HETATM   11  C   UNL     1      44.194 -17.641   5.458  1.00  0.00     0.002 C 
HETATM   12  C   UNL     1      44.596 -16.434   6.303  1.00  0.00     0.002 C 
HETATM   13  C   UNL     1      43.380 -15.659   6.810  1.00  0.00     0.027 C 
HETATM   14  H   UNL     1      43.675 -13.532   5.269  1.00  0.00     0.163 HD
ENDROOT
BRANCH   1  15
HETATM   15  C   UNL     1      41.941 -15.098   1.475  1.00  0.00     0.146 C 
BRANCH  15  16
HETATM   16  C   UNL     1      40.661 -15.020   0.683  1.00  0.00     0.224 C 
HETATM   17  N   UNL     1      40.680 -14.076  -0.309  1.00  0.00    -0.327 N 
HETATM   18  H   UNL     1      41.600 -13.739  -0.578  1.00  0.00     0.169 HD
HETATM   19  O   UNL     1      39.719 -15.669   1.129  1.00  0.00    -0.273 OA
BRANCH  17  20
HETATM   20  C   UNL     1      39.632 -13.459  -1.042  1.00  0.00     0.040 A 
HETATM   21  C   UNL     1      38.768 -14.028  -1.995  1.00  0.00    -0.035 A 
HETATM   22  C   UNL     1      37.747 -13.222  -2.556  1.00  0.00     0.015 A 
HETATM   23  C   UNL     1      38.819 -15.439  -2.505  1.00  0.00     0.050 C 
HETATM   24  C   UNL     1      37.578 -11.878  -2.211  1.00  0.00    -0.061 A 
HETATM   25  C   UNL     1      36.475 -11.059  -2.812  1.00  0.00     0.048 C 
HETATM   26  C   UNL     1      38.434 -11.323  -1.270  1.00  0.00     0.009 A 
HETATM   27  C   UNL     1      39.446 -12.100  -0.704  1.00  0.00     0.030 A 
ENDBRANCH  17  20
ENDBRANCH  15  16
ENDBRANCH   1  15
TORSDOF 3
ENDMDL
MODEL 10
REMARK VINA RESULT:      -7.6      3.066      4.794
REMARK  3 active torsions:
REMARK  status: ('A' for Active; 'I' for Inactive)
REMARK    1  A    between atoms: C_6  and  N_7 
REMARK       I    between atoms: N_7  and  C_8 
REMARK    2  A    between atoms: C_8  and  C_9 
REMARK    3  A    between atoms: C_9  and  C_10 
ROOT
HETATM    1  C   UNL     1      42.430 -12.435   3.339  1.00  0.00     0.286 C 
HETATM    2  N   UNL     1      41.678 -13.135   2.195  1.00  0.00    -0.056 N 
HETATM    3  H   UNL     1      42.388 -13.575   1.594  1.00  0.00     0.278 HD
HETATM    4  H   UNL     1      41.165 -13.959   2.576  1.00  0.00     0.278 HD
HETATM    5  C   UNL     1      40.778 -12.309   1.335  1.00  0.00     0.209 C 
HETATM    6  C   UNL     1      41.467 -10.967   1.006  1.00  0.00     0.115 C 
HETATM    7  N   UNL     1      41.898 -10.279   2.216  1.00  0.00    -0.353 N 
HETATM    8  C   UNL     1      42.414 -10.902   3.318  1.00  0.00     0.249 C 
HETATM    9  O   UNL     1      42.863 -10.236   4.245  1.00  0.00    -0.271 OA
HETATM   10  C   UNL     1      39.419 -12.128   2.015  1.00  0.00     0.035 C 
HETATM   11  C   UNL     1      38.511 -11.235   1.171  1.00  0.00     0.002 C 
HETATM   12  C   UNL     1      39.170  -9.898   0.839  1.00  0.00     0.002 C 
HETATM   13  C   UNL     1      40.535 -10.081   0.176  1.00  0.00     0.027 C 
HETATM   14  H   UNL     1      42.007  -9.266   2.214  1.00  0.00     0.163 HD
ENDROOT
BRANCH   1  15
HETATM   15  C   UNL     1      41.968 -12.960   4.705  1.00  0.00     0.146 C 
BRANCH  15  16
HETATM   16  C   UNL     1      41.768 -14.444   4.539  1.00  0.00     0.224 C 
HETATM   17  N   UNL     1      42.934 -15.161   4.514  1.00  0.00    -0.327 N 
HETATM   18  H   UNL     1      43.754 -14.680   4.872  1.00  0.00     0.169 HD
HETATM   19  O   UNL     1      40.623 -14.800   4.271  1.00  0.00    -0.273 OA
BRANCH  17  20
HETATM   20  C   UNL     1      43.222 -16.477   4.064  1.00  0.00     0.040 A 
HETATM   21  C   UNL     1      43.602 -17.603   4.816  1.00  0.00    -0.035 A 
HETATM   22  C   UNL     1      43.778 -18.840   4.147  1.00  0.00     0.015 A 
HETATM   23  C   UNL     1      43.860 -17.635   6.294  1.00  0.00     0.050 C 
HETATM   24  C   UNL     1      43.604 -18.979   2.767  1.00  0.00    -0.061 A 
HETATM   25  C   UNL     1      43.781 -20.307   2.097  1.00  0.00     0.048 C 
HETATM   26  C   UNL     1      43.229 -17.863   2.032  1.00  0.00     0.009 A 
HETATM   27  C   UNL     1      43.050 -16.635   2.671  1.00  0.00     0.030 A 
ENDBRANCH  17  20
ENDBRANCH  15  16
ENDBRANCH   1  15
TORSDOF 3
ENDMDL
