MODEL 1
REMARK VINA RESULT:      -8.2      0.000      0.000
REMARK  2 active torsions:
REMARK  status: ('A' for Active; 'I' for Inactive)
REMARK    1  A    between atoms: C_5  and  C_6 
REMARK    2  A    between atoms: C_17  and  O_18 
ROOT
HETATM    1  C   UNL     1      42.352 -14.587   3.845  1.00  0.00     0.200 C 
HETATM    2  N   UNL     1      43.038 -13.344   4.086  1.00  0.00    -0.336 N 
HETATM    3  C   UNL     1      42.724 -12.236   3.339  1.00  0.00     0.255 C 
HETATM    4  O   UNL     1      43.548 -11.354   3.134  1.00  0.00    -0.268 OA
HETATM    5  C   UNL     1      41.330 -12.149   2.870  1.00  0.00     0.053 A 
HETATM    6  C   UNL     1      40.471 -13.207   3.185  1.00  0.00     0.026 A 
HETATM    7  N   UNL     1      40.918 -14.357   3.853  1.00  0.00    -0.267 NA
HETATM    8  C   UNL     1      40.870 -11.006   2.211  1.00  0.00     0.019 A 
HETATM    9  C   UNL     1      39.520 -10.905   1.876  1.00  0.00     0.001 A 
HETATM   10  C   UNL     1      38.644 -11.938   2.211  1.00  0.00     0.002 A 
HETATM   11  C   UNL     1      39.115 -13.079   2.868  1.00  0.00     0.024 A 
HETATM   12  H   UNL     1      44.037 -13.413   4.246  1.00  0.00     0.164 HD
HETATM   13  H   UNL     1      40.518 -14.412   4.788  1.00  0.00     0.130 HD
ENDROOT
BRANCH   1  14
HETATM   14  C   UNL     1      42.706 -15.617   4.904  1.00  0.00     0.023 A 
HETATM   15  C   UNL     1      43.167 -16.929   4.557  1.00  0.00    -0.014 A 
HETATM   16  C   UNL     1      43.472 -17.845   5.603  1.00  0.00    -0.025 A 
HETATM   17  C   UNL     1      43.344 -17.402   3.231  1.00  0.00     0.013 A 
HETATM   18  C   UNL     1      43.948 -19.133   5.309  1.00  0.00     0.012 A 
HETATM   19  C   UNL     1      43.295 -17.475   6.942  1.00  0.00     0.015 A 
HETATM   20  C   UNL     1      44.125 -19.552   3.995  1.00  0.00     0.001 A 
HETATM   21  C   UNL     1      43.819 -18.688   2.956  1.00  0.00     0.001 A 
HETATM   22  C   UNL     1      42.822 -16.213   7.275  1.00  0.00     0.038 A 
HETATM   23  C   UNL     1      42.540 -15.299   6.270  1.00  0.00     0.076 A 
BRANCH  23  24
HETATM   24  O   UNL     1      42.085 -14.080   6.698  1.00  0.00    -0.360 OA
HETATM   25  H   UNL     1      41.117 -14.129   6.830  1.00  0.00     0.217 HD
ENDBRANCH  23  24
ENDBRANCH   1  14
TORSDOF 2
ENDMDL
MODEL 2
REMARK VINA RESULT:      -8.0      3.140      3.486
REMARK  2 active torsions:
REMARK  status: ('A' for Active; 'I' for Inactive)
REMARK    1  A    between atoms: C_5  and  C_6 
REMARK    2  A    between atoms: C_17  and  O_18 
ROOT
HETATM    1  C   UNL     1      41.355 -14.660   1.309  1.00  0.00     0.200 C 
HETATM    2  N   UNL     1      41.204 -13.228   1.329  1.00  0.00    -0.336 N 
HETATM    3  C   UNL     1      40.987 -12.550   0.155  1.00  0.00     0.255 C 
HETATM    4  O   UNL     1      41.339 -11.386   0.020  1.00  0.00    -0.268 OA
HETATM    5  C   UNL     1      40.249 -13.285  -0.888  1.00  0.00     0.053 A 
HETATM    6  C   UNL     1      39.877 -14.605  -0.612  1.00  0.00     0.026 A 
HETATM    7  N   UNL     1      40.251 -15.253   0.575  1.00  0.00    -0.267 NA
HETATM    8  C   UNL     1      39.864 -12.649  -2.071  1.00  0.00     0.019 A 
HETATM    9  C   UNL     1      39.073 -13.336  -2.991  1.00  0.00     0.001 A 
HETATM   10  C   UNL     1      38.667 -14.643  -2.718  1.00  0.00     0.002 A 
HETATM   11  C   UNL     1      39.060 -15.271  -1.532  1.00  0.00     0.024 A 
HETATM   12  H   UNL     1      41.839 -12.724   1.936  1.00  0.00     0.164 HD
HETATM   13  H   UNL     1      39.439 -15.428   1.164  1.00  0.00     0.130 HD
ENDROOT
BRANCH   1  14
HETATM   14  C   UNL     1      41.385 -15.222   2.720  1.00  0.00     0.023 A 
HETATM   15  C   UNL     1      42.269 -16.287   3.091  1.00  0.00    -0.014 A 
HETATM   16  C   UNL     1      42.235 -16.769   4.429  1.00  0.00    -0.025 A 
HETATM   17  C   UNL     1      43.190 -16.918   2.215  1.00  0.00     0.013 A 
HETATM   18  C   UNL     1      43.099 -17.797   4.841  1.00  0.00     0.012 A 
HETATM   19  C   UNL     1      41.334 -16.228   5.354  1.00  0.00     0.015 A 
HETATM   20  C   UNL     1      44.002 -18.376   3.956  1.00  0.00     0.001 A 
HETATM   21  C   UNL     1      44.043 -17.940   2.641  1.00  0.00     0.001 A 
HETATM   22  C   UNL     1      40.459 -15.215   4.986  1.00  0.00     0.038 A 
HETATM   23  C   UNL     1      40.492 -14.717   3.691  1.00  0.00     0.076 A 
BRANCH  23  24
HETATM   24  O   UNL     1      39.595 -13.716   3.427  1.00  0.00    -0.360 OA
HETATM   25  H   UNL     1      39.532 -13.129   4.206  1.00  0.00     0.217 HD
ENDBRANCH  23  24
ENDBRANCH   1  14
TORSDOF 2
ENDMDL
MODEL 3
REMARK VINA RESULT:      -8.0      2.303      3.817
REMARK  2 active torsions:
REMARK  status: ('A' for Active; 'I' for Inactive)
REMARK    1  A    between atoms: C_5  and  C_6 
REMARK    2  A    between atoms: C_17  and  O_18 
ROOT
HETATM    1  C   UNL     1      42.140 -14.528   5.026  1.00  0.00     0.200 C 
HETATM    2  N   UNL     1      40.804 -14.059   4.766  1.00  0.00    -0.336 N 
HETATM    3  C   UNL     1      40.288 -13.025   5.507  1.00  0.00     0.255 C 
HETATM    4  O   UNL     1      39.083 -12.918   5.695  1.00  0.00    -0.268 OA
HETATM    5  C   UNL     1      41.262 -12.031   5.993  1.00  0.00     0.053 A 
HETATM    6  C   UNL     1      42.612 -12.246   5.697  1.00  0.00     0.026 A 
HETATM    7  N   UNL     1      43.056 -13.399   5.034  1.00  0.00    -0.267 NA
HETATM    8  C   UNL     1      40.832 -10.875   6.648  1.00  0.00     0.019 A 
HETATM    9  C   UNL     1      41.766  -9.900   7.000  1.00  0.00     0.001 A 
HETATM   10  C   UNL     1      43.112 -10.084   6.684  1.00  0.00     0.002 A 
HETATM   11  C   UNL     1      43.532 -11.247   6.030  1.00  0.00     0.024 A 
HETATM   12  H   UNL     1      40.108 -14.776   4.594  1.00  0.00     0.164 HD
HETATM   13  H   UNL     1      43.404 -13.172   4.104  1.00  0.00     0.130 HD
ENDROOT
BRANCH   1  14
HETATM   14  C   UNL     1      42.579 -15.529   3.971  1.00  0.00     0.023 A 
HETATM   15  C   UNL     1      43.086 -16.823   4.321  1.00  0.00    -0.014 A 
HETATM   16  C   UNL     1      43.486 -17.706   3.280  1.00  0.00    -0.025 A 
HETATM   17  C   UNL     1      43.228 -17.305   5.649  1.00  0.00     0.013 A 
HETATM   18  C   UNL     1      43.967 -18.991   3.577  1.00  0.00     0.012 A 
HETATM   19  C   UNL     1      43.411 -17.301   1.941  1.00  0.00     0.015 A 
HETATM   20  C   UNL     1      44.074 -19.433   4.891  1.00  0.00     0.001 A 
HETATM   21  C   UNL     1      43.709 -18.588   5.927  1.00  0.00     0.001 A 
HETATM   22  C   UNL     1      42.947 -16.037   1.605  1.00  0.00     0.038 A 
HETATM   23  C   UNL     1      42.531 -15.170   2.605  1.00  0.00     0.076 A 
BRANCH  23  24
HETATM   24  O   UNL     1      42.084 -13.949   2.174  1.00  0.00    -0.360 OA
HETATM   25  H   UNL     1      42.626 -13.247   2.585  1.00  0.00     0.217 HD
ENDBRANCH  23  24
ENDBRANCH   1  14
TORSDOF 2
ENDMDL
MODEL 4
REMARK VINA RESULT:      -7.9      2.422      2.605
REMARK  2 active torsions:
REMARK  status: ('A' for Active; 'I' for Inactive)
REMARK    1  A    between atoms: C_5  and  C_6 
REMARK    2  A    between atoms: C_17  and  O_18 
ROOT
HETATM    1  C   UNL     1      42.579 -13.764   5.400  1.00  0.00     0.200 C 
HETATM    2  N   UNL     1      43.408 -12.896   6.195  1.00  0.00    -0.336 N 
HETATM    3  C   UNL     1      43.109 -11.559   6.283  1.00  0.00     0.255 C 
HETATM    4  O   UNL     1      43.980 -10.725   6.490  1.00  0.00    -0.268 OA
HETATM    5  C   UNL     1      41.680 -11.210   6.183  1.00  0.00     0.053 A 
HETATM    6  C   UNL     1      40.770 -12.251   5.968  1.00  0.00     0.026 A 
HETATM    7  N   UNL     1      41.187 -13.576   5.772  1.00  0.00    -0.267 NA
HETATM    8  C   UNL     1      41.252  -9.896   6.385  1.00  0.00     0.019 A 
HETATM    9  C   UNL     1      39.886  -9.614   6.392  1.00  0.00     0.001 A 
HETATM   10  C   UNL     1      38.964 -10.646   6.211  1.00  0.00     0.002 A 
HETATM   11  C   UNL     1      39.404 -11.957   6.007  1.00  0.00     0.024 A 
HETATM   12  H   UNL     1      44.407 -13.048   6.122  1.00  0.00     0.164 HD
HETATM   13  H   UNL     1      40.909 -14.164   6.556  1.00  0.00     0.130 HD
ENDROOT
BRANCH   1  14
HETATM   14  C   UNL     1      42.966 -15.219   5.601  1.00  0.00     0.023 A 
HETATM   15  C   UNL     1      43.151 -16.112   4.496  1.00  0.00    -0.014 A 
HETATM   16  C   UNL     1      43.504 -17.464   4.761  1.00  0.00    -0.025 A 
HETATM   17  C   UNL     1      43.002 -15.753   3.131  1.00  0.00     0.013 A 
HETATM   18  C   UNL     1      43.717 -18.368   3.707  1.00  0.00     0.012 A 
HETATM   19  C   UNL     1      43.639 -17.915   6.080  1.00  0.00     0.015 A 
HETATM   20  C   UNL     1      43.580 -17.971   2.381  1.00  0.00     0.001 A 
HETATM   21  C   UNL     1      43.218 -16.665   2.093  1.00  0.00     0.001 A 
HETATM   22  C   UNL     1      43.432 -17.056   7.150  1.00  0.00     0.038 A 
HETATM   23  C   UNL     1      43.109 -15.728   6.911  1.00  0.00     0.076 A 
BRANCH  23  24
HETATM   24  O   UNL     1      42.930 -14.959   8.031  1.00  0.00    -0.360 OA
HETATM   25  H   UNL     1      42.021 -14.599   8.030  1.00  0.00     0.217 HD
ENDBRANCH  23  24
ENDBRANCH   1  14
TORSDOF 2
ENDMDL
MODEL 5
REMARK VINA RESULT:      -7.8      3.761      4.858
REMARK  2 active torsions:
REMARK  status: ('A' for Active; 'I' for Inactive)
REMARK    1  A    between atoms: C_5  and  C_6 
REMARK    2  A    between atoms: C_17  and  O_18 
ROOT
HETATM    1  C   UNL     1      43.661 -12.334   6.087  1.00  0.00     0.200 C 
HETATM    2  N   UNL     1      44.929 -12.308   6.768  1.00  0.00    -0.336 N 
HETATM    3  C   UNL     1      45.428 -11.117   7.234  1.00  0.00     0.255 C 
HETATM    4  O   UNL     1      46.633 -10.935   7.349  1.00  0.00    -0.268 OA
HETATM    5  C   UNL     1      44.428 -10.115   7.645  1.00  0.00     0.053 A 
HETATM    6  C   UNL     1      43.077 -10.444   7.489  1.00  0.00     0.026 A 
HETATM    7  N   UNL     1      42.666 -11.643   6.890  1.00  0.00    -0.267 NA
HETATM    8  C   UNL     1      44.824  -8.920   8.251  1.00  0.00     0.019 A 
HETATM    9  C   UNL     1      43.854  -8.040   8.729  1.00  0.00     0.001 A 
HETATM   10  C   UNL     1      42.502  -8.367   8.609  1.00  0.00     0.002 A 
HETATM   11  C   UNL     1      42.117  -9.564   7.999  1.00  0.00     0.024 A 
HETATM   12  H   UNL     1      45.659 -12.884   6.367  1.00  0.00     0.164 HD
HETATM   13  H   UNL     1      42.220 -12.255   7.572  1.00  0.00     0.130 HD
ENDROOT
BRANCH   1  14
HETATM   14  C   UNL     1      43.208 -13.762   5.837  1.00  0.00     0.023 A 
HETATM   15  C   UNL     1      42.958 -14.256   4.515  1.00  0.00    -0.014 A 
HETATM   16  C   UNL     1      42.528 -15.603   4.358  1.00  0.00    -0.025 A 
HETATM   17  C   UNL     1      43.102 -13.495   3.326  1.00  0.00     0.013 A 
HETATM   18  C   UNL     1      42.292 -16.134   3.080  1.00  0.00     0.012 A 
HETATM   19  C   UNL     1      42.326 -16.417   5.480  1.00  0.00     0.015 A 
HETATM   20  C   UNL     1      42.464 -15.361   1.937  1.00  0.00     0.001 A 
HETATM   21  C   UNL     1      42.864 -14.040   2.060  1.00  0.00     0.001 A 
HETATM   22  C   UNL     1      42.542 -15.929   6.761  1.00  0.00     0.038 A 
HETATM   23  C   UNL     1      42.983 -14.625   6.933  1.00  0.00     0.076 A 
BRANCH  23  24
HETATM   24  O   UNL     1      43.173 -14.238   8.234  1.00  0.00    -0.360 OA
HETATM   25  H   UNL     1      42.726 -14.875   8.825  1.00  0.00     0.217 HD
ENDBRANCH  23  24
ENDBRANCH   1  14
TORSDOF 2
ENDMDL
MODEL 6
REMARK VINA RESULT:      -7.7      3.236      7.108
REMARK  2 active torsions:
REMARK  status: ('A' for Active; 'I' for Inactive)
REMARK    1  A    between atoms: C_5  and  C_6 
REMARK    2  A    between atoms: C_17  and  O_18 
ROOT
HETATM    1  C   UNL     1      40.703 -14.625   1.325  1.00  0.00     0.200 C 
HETATM    2  N   UNL     1      40.647 -14.044   2.641  1.00  0.00    -0.336 N 
HETATM    3  C   UNL     1      40.923 -14.818   3.741  1.00  0.00     0.255 C 
HETATM    4  O   UNL     1      40.432 -14.568   4.833  1.00  0.00    -0.268 OA
HETATM    5  C   UNL     1      41.892 -15.910   3.534  1.00  0.00     0.053 A 
HETATM    6  C   UNL     1      42.406 -16.086   2.245  1.00  0.00     0.026 A 
HETATM    7  N   UNL     1      41.970 -15.317   1.156  1.00  0.00    -0.267 NA
HETATM    8  C   UNL     1      42.340 -16.677   4.611  1.00  0.00     0.019 A 
HETATM    9  C   UNL     1      43.338 -17.630   4.405  1.00  0.00     0.001 A 
HETATM   10  C   UNL     1      43.884 -17.797   3.132  1.00  0.00     0.002 A 
HETATM   11  C   UNL     1      43.426 -17.025   2.060  1.00  0.00     0.024 A 
HETATM   12  H   UNL     1      39.870 -13.416   2.816  1.00  0.00     0.164 HD
HETATM   13  H   UNL     1      42.711 -14.700   0.827  1.00  0.00     0.130 HD
ENDROOT
BRANCH   1  14
HETATM   14  C   UNL     1      40.562 -13.557   0.254  1.00  0.00     0.023 A 
HETATM   15  C   UNL     1      39.888 -13.814  -0.984  1.00  0.00    -0.014 A 
HETATM   16  C   UNL     1      39.802 -12.768  -1.945  1.00  0.00    -0.025 A 
HETATM   17  C   UNL     1      39.292 -15.051  -1.341  1.00  0.00     0.013 A 
HETATM   18  C   UNL     1      39.132 -12.969  -3.163  1.00  0.00     0.012 A 
HETATM   19  C   UNL     1      40.391 -11.524  -1.692  1.00  0.00     0.015 A 
HETATM   20  C   UNL     1      38.544 -14.193  -3.467  1.00  0.00     0.001 A 
HETATM   21  C   UNL     1      38.628 -15.235  -2.558  1.00  0.00     0.001 A 
HETATM   22  C   UNL     1      41.068 -11.285  -0.503  1.00  0.00     0.038 A 
HETATM   23  C   UNL     1      41.143 -12.286   0.455  1.00  0.00     0.076 A 
BRANCH  23  24
HETATM   24  O   UNL     1      41.826 -11.953   1.595  1.00  0.00    -0.360 OA
HETATM   25  H   UNL     1      41.825 -12.719   2.203  1.00  0.00     0.217 HD
ENDBRANCH  23  24
ENDBRANCH   1  14
TORSDOF 2
ENDMDL
MODEL 7
REMARK VINA RESULT:      -7.4      4.634      7.337
REMARK  2 active torsions:
REMARK  status: ('A' for Active; 'I' for Inactive)
REMARK    1  A    between atoms: C_5  and  C_6 
REMARK    2  A    between atoms: C_17  and  O_18 
ROOT
HETATM    1  C   UNL     1      43.214 -11.671   6.683  1.00  0.00     0.200 C 
HETATM    2  N   UNL     1      43.498 -12.945   7.289  1.00  0.00    -0.336 N 
HETATM    3  C   UNL     1      43.047 -14.099   6.695  1.00  0.00     0.255 C 
HETATM    4  O   UNL     1      42.808 -15.101   7.355  1.00  0.00    -0.268 OA
HETATM    5  C   UNL     1      42.939 -14.067   5.225  1.00  0.00     0.053 A 
HETATM    6  C   UNL     1      43.260 -12.870   4.576  1.00  0.00     0.026 A 
HETATM    7  N   UNL     1      43.597 -11.706   5.281  1.00  0.00    -0.267 NA
HETATM    8  C   UNL     1      42.612 -15.222   4.511  1.00  0.00     0.019 A 
HETATM    9  C   UNL     1      42.625 -15.191   3.116  1.00  0.00     0.001 A 
HETATM   10  C   UNL     1      42.974 -14.014   2.452  1.00  0.00     0.002 A 
HETATM   11  C   UNL     1      43.296 -12.863   3.178  1.00  0.00     0.024 A 
HETATM   12  H   UNL     1      43.405 -12.987   8.297  1.00  0.00     0.164 HD
HETATM   13  H   UNL     1      44.577 -11.465   5.138  1.00  0.00     0.130 HD
ENDROOT
BRANCH   1  14
HETATM   14  C   UNL     1      43.968 -10.555   7.386  1.00  0.00     0.023 A 
HETATM   15  C   UNL     1      43.286  -9.491   8.061  1.00  0.00    -0.014 A 
HETATM   16  C   UNL     1      44.057  -8.475   8.691  1.00  0.00    -0.025 A 
HETATM   17  C   UNL     1      41.875  -9.361   8.151  1.00  0.00     0.013 A 
HETATM   18  C   UNL     1      43.431  -7.426   9.382  1.00  0.00     0.012 A 
HETATM   19  C   UNL     1      45.456  -8.505   8.625  1.00  0.00     0.015 A 
HETATM   20  C   UNL     1      42.044  -7.344   9.464  1.00  0.00     0.001 A 
HETATM   21  C   UNL     1      41.267  -8.309   8.844  1.00  0.00     0.001 A 
HETATM   22  C   UNL     1      46.114  -9.521   7.946  1.00  0.00     0.038 A 
HETATM   23  C   UNL     1      45.380 -10.533   7.345  1.00  0.00     0.076 A 
BRANCH  23  24
HETATM   24  O   UNL     1      46.119 -11.493   6.706  1.00  0.00    -0.360 OA
HETATM   25  H   UNL     1      45.771 -12.375   6.942  1.00  0.00     0.217 HD
ENDBRANCH  23  24
ENDBRANCH   1  14
TORSDOF 2
ENDMDL
MODEL 8
REMARK VINA RESULT:      -7.3      3.428      6.284
REMARK  2 active torsions:
REMARK  status: ('A' for Active; 'I' for Inactive)
REMARK    1  A    between atoms: C_5  and  C_6 
REMARK    2  A    between atoms: C_17  and  O_18 
ROOT
HETATM    1  C   UNL     1      43.474 -12.919   5.054  1.00  0.00     0.200 C 
HETATM    2  N   UNL     1      42.799 -12.861   3.783  1.00  0.00    -0.336 N 
HETATM    3  C   UNL     1      42.922 -13.903   2.898  1.00  0.00     0.255 C 
HETATM    4  O   UNL     1      42.822 -13.726   1.691  1.00  0.00    -0.268 OA
HETATM    5  C   UNL     1      43.107 -15.238   3.495  1.00  0.00     0.053 A 
HETATM    6  C   UNL     1      43.184 -15.321   4.890  1.00  0.00     0.026 A 
HETATM    7  N   UNL     1      43.168 -14.181   5.706  1.00  0.00    -0.267 NA
HETATM    8  C   UNL     1      43.116 -16.382   2.693  1.00  0.00     0.019 A 
HETATM    9  C   UNL     1      43.183 -17.638   3.294  1.00  0.00     0.001 A 
HETATM   10  C   UNL     1      43.228 -17.741   4.685  1.00  0.00     0.002 A 
HETATM   11  C   UNL     1      43.221 -16.589   5.478  1.00  0.00     0.024 A 
HETATM   12  H   UNL     1      42.826 -11.966   3.308  1.00  0.00     0.164 HD
HETATM   13  H   UNL     1      42.311 -14.139   6.255  1.00  0.00     0.130 HD
ENDROOT
BRANCH   1  14
HETATM   14  C   UNL     1      43.046 -11.769   5.949  1.00  0.00     0.023 A 
HETATM   15  C   UNL     1      43.992 -11.027   6.730  1.00  0.00    -0.014 A 
HETATM   16  C   UNL     1      43.517  -9.968   7.553  1.00  0.00    -0.025 A 
HETATM   17  C   UNL     1      45.390 -11.270   6.756  1.00  0.00     0.013 A 
HETATM   18  C   UNL     1      44.411  -9.201   8.318  1.00  0.00     0.012 A 
HETATM   19  C   UNL     1      42.148  -9.679   7.616  1.00  0.00     0.015 A 
HETATM   20  C   UNL     1      45.778  -9.459   8.301  1.00  0.00     0.001 A 
HETATM   21  C   UNL     1      46.266 -10.497   7.523  1.00  0.00     0.001 A 
HETATM   22  C   UNL     1      41.231 -10.417   6.880  1.00  0.00     0.038 A 
HETATM   23  C   UNL     1      41.677 -11.439   6.055  1.00  0.00     0.076 A 
BRANCH  23  24
HETATM   24  O   UNL     1      40.697 -12.104   5.366  1.00  0.00    -0.360 OA
HETATM   25  H   UNL     1      40.819 -11.950   4.408  1.00  0.00     0.217 HD
ENDBRANCH  23  24
ENDBRANCH   1  14
TORSDOF 2
ENDMDL
MODEL 9
REMARK VINA RESULT:      -7.3      1.987      6.507
REMARK  2 active torsions:
REMARK  status: ('A' for Active; 'I' for Inactive)
REMARK    1  A    between atoms: C_5  and  C_6 
REMARK    2  A    between atoms: C_17  and  O_18 
ROOT
HETATM    1  C   UNL     1      42.241 -14.672   4.533  1.00  0.00     0.200 C 
HETATM    2  N   UNL     1      43.443 -14.859   5.304  1.00  0.00    -0.336 N 
HETATM    3  C   UNL     1      43.908 -16.129   5.545  1.00  0.00     0.255 C 
HETATM    4  O   UNL     1      44.568 -16.384   6.543  1.00  0.00    -0.268 OA
HETATM    5  C   UNL     1      43.621 -17.129   4.502  1.00  0.00     0.053 A 
HETATM    6  C   UNL     1      42.875 -16.716   3.392  1.00  0.00     0.026 A 
HETATM    7  N   UNL     1      42.341 -15.423   3.293  1.00  0.00    -0.267 NA
HETATM    8  C   UNL     1      44.154 -18.418   4.585  1.00  0.00     0.019 A 
HETATM    9  C   UNL     1      43.958 -19.310   3.531  1.00  0.00     0.001 A 
HETATM   10  C   UNL     1      43.243 -18.904   2.403  1.00  0.00     0.002 A 
HETATM   11  C   UNL     1      42.712 -17.613   2.332  1.00  0.00     0.024 A 
HETATM   12  H   UNL     1      43.543 -14.267   6.120  1.00  0.00     0.164 HD
HETATM   13  H   UNL     1      42.801 -14.896   2.552  1.00  0.00     0.130 HD
ENDROOT
BRANCH   1  14
HETATM   14  C   UNL     1      42.021 -13.202   4.219  1.00  0.00     0.023 A 
HETATM   15  C   UNL     1      40.955 -12.454   4.816  1.00  0.00    -0.014 A 
HETATM   16  C   UNL     1      40.804 -11.083   4.468  1.00  0.00    -0.025 A 
HETATM   17  C   UNL     1      40.015 -12.979   5.741  1.00  0.00     0.013 A 
HETATM   18  C   UNL     1      39.787 -10.306   5.046  1.00  0.00     0.012 A 
HETATM   19  C   UNL     1      41.666 -10.489   3.537  1.00  0.00     0.015 A 
HETATM   20  C   UNL     1      38.897 -10.853   5.964  1.00  0.00     0.001 A 
HETATM   21  C   UNL     1      39.008 -12.191   6.308  1.00  0.00     0.001 A 
HETATM   22  C   UNL     1      42.681 -11.224   2.939  1.00  0.00     0.038 A 
HETATM   23  C   UNL     1      42.857 -12.556   3.282  1.00  0.00     0.076 A 
BRANCH  23  24
HETATM   24  O   UNL     1      43.888 -13.193   2.642  1.00  0.00    -0.360 OA
HETATM   25  H   UNL     1      44.088 -12.722   1.810  1.00  0.00     0.217 HD
ENDBRANCH  23  24
ENDBRANCH   1  14
TORSDOF 2
ENDMDL
MODEL 10
REMARK VINA RESULT:      -7.3     15.189     16.823
REMARK  2 active torsions:
REMARK  status: ('A' for Active; 'I' for Inactive)
REMARK    1  A    between atoms: C_5  and  C_6 
REMARK    2  A    between atoms: C_17  and  O_18 
ROOT
HETATM    1  C   UNL     1      46.645 -29.564  -1.408  1.00  0.00     0.200 C 
HETATM    2  N   UNL     1      45.925 -28.422  -1.911  1.00  0.00    -0.336 N 
HETATM    3  C   UNL     1      45.449 -28.430  -3.199  1.00  0.00     0.255 C 
HETATM    4  O   UNL     1      45.298 -27.391  -3.827  1.00  0.00    -0.268 OA
HETATM    5  C   UNL     1      45.071 -29.750  -3.738  1.00  0.00     0.053 A 
HETATM    6  C   UNL     1      45.267 -30.867  -2.919  1.00  0.00     0.026 A 
HETATM    7  N   UNL     1      45.874 -30.770  -1.659  1.00  0.00    -0.267 NA
HETATM    8  C   UNL     1      44.458 -29.858  -4.989  1.00  0.00     0.019 A 
HETATM    9  C   UNL     1      44.012 -31.105  -5.427  1.00  0.00     0.001 A 
HETATM   10  C   UNL     1      44.172 -32.225  -4.609  1.00  0.00     0.002 A 
HETATM   11  C   UNL     1      44.789 -32.105  -3.360  1.00  0.00     0.024 A 
HETATM   12  H   UNL     1      46.302 -27.515  -1.662  1.00  0.00     0.164 HD
HETATM   13  H   UNL     1      45.204 -30.967  -0.917  1.00  0.00     0.130 HD
ENDROOT
BRANCH   1  14
HETATM   14  C   UNL     1      46.903 -29.428   0.083  1.00  0.00     0.023 A 
HETATM   15  C   UNL     1      48.186 -29.708   0.656  1.00  0.00    -0.014 A 
HETATM   16  C   UNL     1      48.352 -29.568   2.062  1.00  0.00    -0.025 A 
HETATM   17  C   UNL     1      49.327 -30.127  -0.077  1.00  0.00     0.013 A 
HETATM   18  C   UNL     1      49.598 -29.811   2.663  1.00  0.00     0.012 A 
HETATM   19  C   UNL     1      47.271 -29.191   2.868  1.00  0.00     0.015 A 
HETATM   20  C   UNL     1      50.698 -30.202   1.906  1.00  0.00     0.001 A 
HETATM   21  C   UNL     1      50.561 -30.365   0.537  1.00  0.00     0.001 A 
HETATM   22  C   UNL     1      46.022 -28.947   2.315  1.00  0.00     0.038 A 
HETATM   23  C   UNL     1      45.846 -29.057   0.943  1.00  0.00     0.076 A 
BRANCH  23  24
HETATM   24  O   UNL     1      44.580 -28.791   0.493  1.00  0.00    -0.360 OA
HETATM   25  H   UNL     1      43.960 -28.814   1.248  1.00  0.00     0.217 HD
ENDBRANCH  23  24
ENDBRANCH   1  14
TORSDOF 2
ENDMDL
