MODEL 1
REMARK VINA RESULT:      -7.8      0.000      0.000
REMARK  6 active torsions:
REMARK  status: ('A' for Active; 'I' for Inactive)
REMARK    1  A    between atoms: O_2  and  C_3 
REMARK    2  A    between atoms: C_4  and  N_5 
REMARK       I    between atoms: N_5  and  C_6 
REMARK       I    between atoms: C_6  and  N_7 
REMARK    3  A    between atoms: N_7  and  C_8 
REMARK    4  A    between atoms: C_8  and  C_9 
REMARK    5  A    between atoms: C_9  and  C_10 
REMARK    6  A    between atoms: C_10  and  N_11 
ROOT
HETATM    1  N   UNL     1      40.244 -14.173   5.718  1.00  0.00    -0.306 N 
HETATM    2  C   UNL     1      41.506 -14.349   6.232  1.00  0.00     0.320 C 
HETATM    3  N   UNL     1      41.574 -15.539   6.932  1.00  0.00    -0.343 N 
HETATM    4  O   UNL     1      42.440 -13.565   6.156  1.00  0.00    -0.247 OA
HETATM    5  H   UNL     1      39.516 -14.754   6.112  1.00  0.00     0.171 HD
HETATM    6  H   UNL     1      41.045 -16.293   6.515  1.00  0.00     0.164 HD
ENDROOT
BRANCH   3   7
HETATM    7  C   UNL     1      42.779 -15.913   7.647  1.00  0.00     0.126 C 
BRANCH   7   8
HETATM    8  C   UNL     1      43.484 -17.124   7.037  1.00  0.00     0.040 C 
BRANCH   8   9
HETATM    9  C   UNL     1      44.428 -16.722   5.907  1.00  0.00     0.131 C 
BRANCH   9  10
HETATM   10  N   UNL     1      43.896 -17.061   4.599  1.00  0.00    -0.341 N 
HETATM   11  C   UNL     1      43.853 -18.328   4.075  1.00  0.00     0.139 A 
HETATM   12  C   UNL     1      43.296 -18.235   2.801  1.00  0.00     0.011 A 
HETATM   13  N   UNL     1      44.276 -19.448   4.697  1.00  0.00    -0.242 NA
HETATM   14  C   UNL     1      43.151 -19.424   2.069  1.00  0.00     0.017 A 
HETATM   15  C   UNL     1      43.005 -16.864   2.572  1.00  0.00     0.032 A 
HETATM   16  C   UNL     1      43.574 -20.610   2.669  1.00  0.00     0.020 A 
HETATM   17  C   UNL     1      44.112 -20.562   3.948  1.00  0.00     0.119 A 
HETATM   18  C   UNL     1      43.385 -16.162   3.697  1.00  0.00     0.093 A 
ENDBRANCH   9  10
ENDBRANCH   8   9
ENDBRANCH   7   8
ENDBRANCH   3   7
BRANCH   1  19
HETATM   19  C   UNL     1      39.780 -13.099   4.931  1.00  0.00     0.071 A 
HETATM   20  C   UNL     1      39.753 -13.294   3.540  1.00  0.00     0.095 A 
HETATM   21  C   UNL     1      39.356 -12.273   2.675  1.00  0.00     0.041 A 
HETATM   22  C   UNL     1      38.946 -11.051   3.206  1.00  0.00     0.026 A 
HETATM   23  C   UNL     1      38.948 -10.860   4.589  1.00  0.00     0.036 A 
HETATM   24  C   UNL     1      39.364 -11.875   5.455  1.00  0.00     0.056 A 
HETATM   25 CL   UNL     1      38.445  -9.343   5.231  1.00  0.00    -0.084 Cl
BRANCH  20  26
HETATM   26  O   UNL     1      40.159 -14.507   3.034  1.00  0.00    -0.354 OA
HETATM   27  C   UNL     1      40.268 -14.433   1.610  1.00  0.00     0.210 C 
ENDBRANCH  20  26
ENDBRANCH   1  19
TORSDOF 6
ENDMDL
MODEL 2
REMARK VINA RESULT:      -7.6      3.816      7.469
REMARK  6 active torsions:
REMARK  status: ('A' for Active; 'I' for Inactive)
REMARK    1  A    between atoms: O_2  and  C_3 
REMARK    2  A    between atoms: C_4  and  N_5 
REMARK       I    between atoms: N_5  and  C_6 
REMARK       I    between atoms: C_6  and  N_7 
REMARK    3  A    between atoms: N_7  and  C_8 
REMARK    4  A    between atoms: C_8  and  C_9 
REMARK    5  A    between atoms: C_9  and  C_10 
REMARK    6  A    between atoms: C_10  and  N_11 
ROOT
HETATM    1  N   UNL     1      43.199 -15.920   3.819  1.00  0.00    -0.306 N 
HETATM    2  C   UNL     1      42.029 -15.298   4.179  1.00  0.00     0.320 C 
HETATM    3  N   UNL     1      42.161 -13.927   4.063  1.00  0.00    -0.343 N 
HETATM    4  O   UNL     1      41.018 -15.837   4.604  1.00  0.00    -0.247 OA
HETATM    5  H   UNL     1      44.023 -15.334   3.778  1.00  0.00     0.171 HD
HETATM    6  H   UNL     1      42.713 -13.633   3.268  1.00  0.00     0.164 HD
ENDROOT
BRANCH   3   7
HETATM    7  C   UNL     1      41.089 -13.039   4.471  1.00  0.00     0.126 C 
BRANCH   7   8
HETATM    8  C   UNL     1      40.205 -12.598   3.306  1.00  0.00     0.040 C 
BRANCH   8   9
HETATM    9  C   UNL     1      41.018 -12.338   2.040  1.00  0.00     0.131 C 
BRANCH   9  10
HETATM   10  N   UNL     1      40.622 -13.206   0.945  1.00  0.00    -0.341 N 
HETATM   11  C   UNL     1      40.696 -12.875  -0.383  1.00  0.00     0.139 A 
HETATM   12  C   UNL     1      40.205 -13.957  -1.113  1.00  0.00     0.011 A 
HETATM   13  N   UNL     1      41.166 -11.710  -0.876  1.00  0.00    -0.242 NA
HETATM   14  C   UNL     1      40.188 -13.841  -2.511  1.00  0.00     0.017 A 
HETATM   15  C   UNL     1      39.828 -14.955  -0.175  1.00  0.00     0.032 A 
HETATM   16  C   UNL     1      40.664 -12.655  -3.069  1.00  0.00     0.020 A 
HETATM   17  C   UNL     1      41.128 -11.654  -2.226  1.00  0.00     0.119 A 
HETATM   18  C   UNL     1      40.095 -14.466   1.087  1.00  0.00     0.093 A 
ENDBRANCH   9  10
ENDBRANCH   8   9
ENDBRANCH   7   8
ENDBRANCH   3   7
BRANCH   1  19
HETATM   19  C   UNL     1      43.460 -17.305   3.784  1.00  0.00     0.071 A 
HETATM   20  C   UNL     1      43.964 -17.890   4.958  1.00  0.00     0.095 A 
HETATM   21  C   UNL     1      44.299 -19.243   5.005  1.00  0.00     0.041 A 
HETATM   22  C   UNL     1      44.096 -20.035   3.876  1.00  0.00     0.026 A 
HETATM   23  C   UNL     1      43.574 -19.465   2.714  1.00  0.00     0.036 A 
HETATM   24  C   UNL     1      43.257 -18.105   2.659  1.00  0.00     0.056 A 
HETATM   25 CL   UNL     1      43.334 -20.454   1.324  1.00  0.00    -0.084 Cl
BRANCH  20  26
HETATM   26  O   UNL     1      44.156 -17.094   6.063  1.00  0.00    -0.354 OA
HETATM   27  C   UNL     1      43.368 -17.572   7.156  1.00  0.00     0.210 C 
ENDBRANCH  20  26
ENDBRANCH   1  19
TORSDOF 6
ENDMDL
MODEL 3
REMARK VINA RESULT:      -7.5      4.113      7.902
REMARK  6 active torsions:
REMARK  status: ('A' for Active; 'I' for Inactive)
REMARK    1  A    between atoms: O_2  and  C_3 
REMARK    2  A    between atoms: C_4  and  N_5 
REMARK       I    between atoms: N_5  and  C_6 
REMARK       I    between atoms: C_6  and  N_7 
REMARK    3  A    between atoms: N_7  and  C_8 
REMARK    4  A    between atoms: C_8  and  C_9 
REMARK    5  A    between atoms: C_9  and  C_10 
REMARK    6  A    between atoms: C_10  and  N_11 
ROOT
HETATM    1  N   UNL     1      42.788 -15.829   3.420  1.00  0.00    -0.306 N 
HETATM    2  C   UNL     1      41.523 -15.345   3.652  1.00  0.00     0.320 C 
HETATM    3  N   UNL     1      41.473 -13.991   3.381  1.00  0.00    -0.343 N 
HETATM    4  O   UNL     1      40.573 -15.973   4.093  1.00  0.00    -0.247 OA
HETATM    5  H   UNL     1      43.524 -15.139   3.346  1.00  0.00     0.171 HD
HETATM    6  H   UNL     1      42.026 -13.710   2.582  1.00  0.00     0.164 HD
ENDROOT
BRANCH   3   7
HETATM    7  C   UNL     1      40.267 -13.226   3.634  1.00  0.00     0.126 C 
BRANCH   7   8
HETATM    8  C   UNL     1      39.322 -13.189   2.435  1.00  0.00     0.040 C 
BRANCH   8   9
HETATM    9  C   UNL     1      40.029 -12.714   1.168  1.00  0.00     0.131 C 
BRANCH   9  10
HETATM   10  N   UNL     1      39.097 -12.448   0.086  1.00  0.00    -0.341 N 
HETATM   11  C   UNL     1      38.880 -13.278  -0.983  1.00  0.00     0.139 A 
HETATM   12  C   UNL     1      37.938 -12.664  -1.807  1.00  0.00     0.011 A 
HETATM   13  N   UNL     1      39.478 -14.471  -1.183  1.00  0.00    -0.242 NA
HETATM   14  C   UNL     1      37.556 -13.342  -2.974  1.00  0.00     0.017 A 
HETATM   15  C   UNL     1      37.592 -11.429  -1.196  1.00  0.00     0.032 A 
HETATM   16  C   UNL     1      38.147 -14.580  -3.226  1.00  0.00     0.020 A 
HETATM   17  C   UNL     1      39.074 -15.080  -2.321  1.00  0.00     0.119 A 
HETATM   18  C   UNL     1      38.323 -11.320  -0.030  1.00  0.00     0.093 A 
ENDBRANCH   9  10
ENDBRANCH   8   9
ENDBRANCH   7   8
ENDBRANCH   3   7
BRANCH   1  19
HETATM   19  C   UNL     1      43.238 -17.158   3.559  1.00  0.00     0.071 A 
HETATM   20  C   UNL     1      43.806 -17.513   4.794  1.00  0.00     0.095 A 
HETATM   21  C   UNL     1      44.324 -18.790   5.011  1.00  0.00     0.041 A 
HETATM   22  C   UNL     1      44.244 -19.739   3.993  1.00  0.00     0.026 A 
HETATM   23  C   UNL     1      43.660 -19.399   2.772  1.00  0.00     0.036 A 
HETATM   24  C   UNL     1      43.159 -18.115   2.547  1.00  0.00     0.056 A 
HETATM   25 CL   UNL     1      43.574 -20.580   1.521  1.00  0.00    -0.084 Cl
BRANCH  20  26
HETATM   26  O   UNL     1      43.874 -16.564   5.788  1.00  0.00    -0.354 OA
HETATM   27  C   UNL     1      43.265 -17.060   6.983  1.00  0.00     0.210 C 
ENDBRANCH  20  26
ENDBRANCH   1  19
TORSDOF 6
ENDMDL
MODEL 4
REMARK VINA RESULT:      -7.4      4.445      8.061
REMARK  6 active torsions:
REMARK  status: ('A' for Active; 'I' for Inactive)
REMARK    1  A    between atoms: O_2  and  C_3 
REMARK    2  A    between atoms: C_4  and  N_5 
REMARK       I    between atoms: N_5  and  C_6 
REMARK       I    between atoms: C_6  and  N_7 
REMARK    3  A    between atoms: N_7  and  C_8 
REMARK    4  A    between atoms: C_8  and  C_9 
REMARK    5  A    between atoms: C_9  and  C_10 
REMARK    6  A    between atoms: C_10  and  N_11 
ROOT
HETATM    1  N   UNL     1      43.202 -15.460   3.501  1.00  0.00    -0.306 N 
HETATM    2  C   UNL     1      42.083 -14.776   3.909  1.00  0.00     0.320 C 
HETATM    3  N   UNL     1      42.208 -13.433   3.608  1.00  0.00    -0.343 N 
HETATM    4  O   UNL     1      41.124 -15.240   4.508  1.00  0.00    -0.247 OA
HETATM    5  H   UNL     1      44.019 -14.899   3.295  1.00  0.00     0.171 HD
HETATM    6  H   UNL     1      42.667 -13.250   2.725  1.00  0.00     0.164 HD
ENDROOT
BRANCH   3   7
HETATM    7  C   UNL     1      41.194 -12.482   4.019  1.00  0.00     0.126 C 
BRANCH   7   8
HETATM    8  C   UNL     1      41.779 -11.232   4.674  1.00  0.00     0.040 C 
BRANCH   8   9
HETATM    9  C   UNL     1      42.018 -11.432   6.169  1.00  0.00     0.131 C 
BRANCH   9  10
HETATM   10  N   UNL     1      43.405 -11.212   6.537  1.00  0.00    -0.341 N 
HETATM   11  C   UNL     1      43.821 -10.548   7.662  1.00  0.00     0.139 A 
HETATM   12  C   UNL     1      45.215 -10.528   7.646  1.00  0.00     0.011 A 
HETATM   13  N   UNL     1      43.012 -10.019   8.604  1.00  0.00    -0.242 NA
HETATM   14  C   UNL     1      45.866  -9.894   8.716  1.00  0.00     0.017 A 
HETATM   15  C   UNL     1      45.627 -11.205   6.468  1.00  0.00     0.032 A 
HETATM   16  C   UNL     1      45.074  -9.332   9.715  1.00  0.00     0.020 A 
HETATM   17  C   UNL     1      43.692  -9.423   9.609  1.00  0.00     0.119 A 
HETATM   18  C   UNL     1      44.491 -11.616   5.801  1.00  0.00     0.093 A 
ENDBRANCH   9  10
ENDBRANCH   8   9
ENDBRANCH   7   8
ENDBRANCH   3   7
BRANCH   1  19
HETATM   19  C   UNL     1      43.451 -16.843   3.610  1.00  0.00     0.071 A 
HETATM   20  C   UNL     1      43.995 -17.300   4.822  1.00  0.00     0.095 A 
HETATM   21  C   UNL     1      44.321 -18.644   5.007  1.00  0.00     0.041 A 
HETATM   22  C   UNL     1      44.069 -19.554   3.981  1.00  0.00     0.026 A 
HETATM   23  C   UNL     1      43.508 -19.110   2.783  1.00  0.00     0.036 A 
HETATM   24  C   UNL     1      43.199 -17.761   2.590  1.00  0.00     0.056 A 
HETATM   25 CL   UNL     1      43.208 -20.243   1.521  1.00  0.00    -0.084 Cl
BRANCH  20  26
HETATM   26  O   UNL     1      44.234 -16.389   5.825  1.00  0.00    -0.354 OA
HETATM   27  C   UNL     1      43.582 -16.801   7.029  1.00  0.00     0.210 C 
ENDBRANCH  20  26
ENDBRANCH   1  19
TORSDOF 6
ENDMDL
MODEL 5
REMARK VINA RESULT:      -7.3      3.399      7.393
REMARK  6 active torsions:
REMARK  status: ('A' for Active; 'I' for Inactive)
REMARK    1  A    between atoms: O_2  and  C_3 
REMARK    2  A    between atoms: C_4  and  N_5 
REMARK       I    between atoms: N_5  and  C_6 
REMARK       I    between atoms: C_6  and  N_7 
REMARK    3  A    between atoms: N_7  and  C_8 
REMARK    4  A    between atoms: C_8  and  C_9 
REMARK    5  A    between atoms: C_9  and  C_10 
REMARK    6  A    between atoms: C_10  and  N_11 
ROOT
HETATM    1  N   UNL     1      42.424 -15.757   3.652  1.00  0.00    -0.306 N 
HETATM    2  C   UNL     1      41.138 -15.414   3.314  1.00  0.00     0.320 C 
HETATM    3  N   UNL     1      41.023 -14.041   3.203  1.00  0.00    -0.343 N 
HETATM    4  O   UNL     1      40.192 -16.175   3.182  1.00  0.00    -0.247 OA
HETATM    5  H   UNL     1      43.006 -15.011   4.010  1.00  0.00     0.171 HD
HETATM    6  H   UNL     1      41.832 -13.592   2.796  1.00  0.00     0.164 HD
ENDROOT
BRANCH   3   7
HETATM    7  C   UNL     1      39.739 -13.421   2.943  1.00  0.00     0.126 C 
BRANCH   7   8
HETATM    8  C   UNL     1      39.467 -12.212   3.838  1.00  0.00     0.040 C 
BRANCH   8   9
HETATM    9  C   UNL     1      39.705 -12.532   5.311  1.00  0.00     0.131 C 
BRANCH   9  10
HETATM   10  N   UNL     1      40.700 -11.658   5.909  1.00  0.00    -0.341 N 
HETATM   11  C   UNL     1      42.014 -11.993   6.116  1.00  0.00     0.139 A 
HETATM   12  C   UNL     1      42.632 -10.903   6.726  1.00  0.00     0.011 A 
HETATM   13  N   UNL     1      42.586 -13.168   5.779  1.00  0.00    -0.242 NA
HETATM   14  C   UNL     1      43.997 -11.021   7.033  1.00  0.00     0.017 A 
HETATM   15  C   UNL     1      41.643  -9.896   6.883  1.00  0.00     0.032 A 
HETATM   16  C   UNL     1      44.634 -12.217   6.704  1.00  0.00     0.020 A 
HETATM   17  C   UNL     1      43.899 -13.226   6.096  1.00  0.00     0.119 A 
HETATM   18  C   UNL     1      40.460 -10.388   6.371  1.00  0.00     0.093 A 
ENDBRANCH   9  10
ENDBRANCH   8   9
ENDBRANCH   7   8
ENDBRANCH   3   7
BRANCH   1  19
HETATM   19  C   UNL     1      42.947 -17.053   3.837  1.00  0.00     0.071 A 
HETATM   20  C   UNL     1      43.269 -17.429   5.153  1.00  0.00     0.095 A 
HETATM   21  C   UNL     1      43.837 -18.672   5.431  1.00  0.00     0.041 A 
HETATM   22  C   UNL     1      44.055 -19.570   4.387  1.00  0.00     0.026 A 
HETATM   23  C   UNL     1      43.716 -19.212   3.082  1.00  0.00     0.036 A 
HETATM   24  C   UNL     1      43.165 -17.959   2.799  1.00  0.00     0.056 A 
HETATM   25 CL   UNL     1      43.997 -20.329   1.801  1.00  0.00    -0.084 Cl
BRANCH  20  26
HETATM   26  O   UNL     1      43.044 -16.531   6.171  1.00  0.00    -0.354 OA
HETATM   27  C   UNL     1      43.871 -16.844   7.294  1.00  0.00     0.210 C 
ENDBRANCH  20  26
ENDBRANCH   1  19
TORSDOF 6
ENDMDL
MODEL 6
REMARK VINA RESULT:      -7.1      3.808      5.004
REMARK  6 active torsions:
REMARK  status: ('A' for Active; 'I' for Inactive)
REMARK    1  A    between atoms: O_2  and  C_3 
REMARK    2  A    between atoms: C_4  and  N_5 
REMARK       I    between atoms: N_5  and  C_6 
REMARK       I    between atoms: C_6  and  N_7 
REMARK    3  A    between atoms: N_7  and  C_8 
REMARK    4  A    between atoms: C_8  and  C_9 
REMARK    5  A    between atoms: C_9  and  C_10 
REMARK    6  A    between atoms: C_10  and  N_11 
ROOT
HETATM    1  N   UNL     1      42.370 -11.206   7.216  1.00  0.00    -0.306 N 
HETATM    2  C   UNL     1      41.899 -11.343   5.933  1.00  0.00     0.320 C 
HETATM    3  N   UNL     1      41.053 -12.432   5.848  1.00  0.00    -0.343 N 
HETATM    4  O   UNL     1      42.208 -10.661   4.967  1.00  0.00    -0.247 OA
HETATM    5  H   UNL     1      42.260 -12.009   7.821  1.00  0.00     0.171 HD
HETATM    6  H   UNL     1      40.465 -12.560   6.661  1.00  0.00     0.164 HD
ENDROOT
BRANCH   3   7
HETATM    7  C   UNL     1      40.494 -12.843   4.575  1.00  0.00     0.126 C 
BRANCH   7   8
HETATM    8  C   UNL     1      40.901 -14.260   4.175  1.00  0.00     0.040 C 
BRANCH   8   9
HETATM    9  C   UNL     1      42.369 -14.337   3.765  1.00  0.00     0.131 C 
BRANCH   9  10
HETATM   10  N   UNL     1      43.069 -15.420   4.431  1.00  0.00    -0.341 N 
HETATM   11  C   UNL     1      43.284 -16.663   3.893  1.00  0.00     0.139 A 
HETATM   12  C   UNL     1      43.966 -17.420   4.844  1.00  0.00     0.011 A 
HETATM   13  N   UNL     1      42.900 -17.061   2.662  1.00  0.00    -0.242 NA
HETATM   14  C   UNL     1      44.298 -18.741   4.505  1.00  0.00     0.017 A 
HETATM   15  C   UNL     1      44.155 -16.589   5.981  1.00  0.00     0.032 A 
HETATM   16  C   UNL     1      43.922 -19.199   3.243  1.00  0.00     0.020 A 
HETATM   17  C   UNL     1      43.246 -18.339   2.388  1.00  0.00     0.119 A 
HETATM   18  C   UNL     1      43.592 -15.361   5.700  1.00  0.00     0.093 A 
ENDBRANCH   9  10
ENDBRANCH   8   9
ENDBRANCH   7   8
ENDBRANCH   3   7
BRANCH   1  19
HETATM   19  C   UNL     1      43.238 -10.211   7.711  1.00  0.00     0.071 A 
HETATM   20  C   UNL     1      44.613 -10.498   7.694  1.00  0.00     0.095 A 
HETATM   21  C   UNL     1      45.546  -9.597   8.207  1.00  0.00     0.041 A 
HETATM   22  C   UNL     1      45.105  -8.375   8.714  1.00  0.00     0.026 A 
HETATM   23  C   UNL     1      43.742  -8.075   8.713  1.00  0.00     0.036 A 
HETATM   24  C   UNL     1      42.806  -8.985   8.217  1.00  0.00     0.056 A 
HETATM   25 CL   UNL     1      43.211  -6.564   9.348  1.00  0.00    -0.084 Cl
BRANCH  20  26
HETATM   26  O   UNL     1      45.030 -11.707   7.187  1.00  0.00    -0.354 OA
HETATM   27  C   UNL     1      45.820 -11.502   6.013  1.00  0.00     0.210 C 
ENDBRANCH  20  26
ENDBRANCH   1  19
TORSDOF 6
ENDMDL
MODEL 7
REMARK VINA RESULT:      -7.0      3.593      7.565
REMARK  6 active torsions:
REMARK  status: ('A' for Active; 'I' for Inactive)
REMARK    1  A    between atoms: O_2  and  C_3 
REMARK    2  A    between atoms: C_4  and  N_5 
REMARK       I    between atoms: N_5  and  C_6 
REMARK       I    between atoms: C_6  and  N_7 
REMARK    3  A    between atoms: N_7  and  C_8 
REMARK    4  A    between atoms: C_8  and  C_9 
REMARK    5  A    between atoms: C_9  and  C_10 
REMARK    6  A    between atoms: C_10  and  N_11 
ROOT
HETATM    1  N   UNL     1      42.667 -15.325   1.915  1.00  0.00    -0.306 N 
HETATM    2  C   UNL     1      41.447 -15.107   1.322  1.00  0.00     0.320 C 
HETATM    3  N   UNL     1      41.453 -13.901   0.647  1.00  0.00    -0.343 N 
HETATM    4  O   UNL     1      40.458 -15.819   1.407  1.00  0.00    -0.247 OA
HETATM    5  H   UNL     1      43.273 -14.519   2.000  1.00  0.00     0.171 HD
HETATM    6  H   UNL     1      42.328 -13.691   0.185  1.00  0.00     0.164 HD
ENDROOT
BRANCH   3   7
HETATM    7  C   UNL     1      40.250 -13.398   0.010  1.00  0.00     0.126 C 
BRANCH   7   8
HETATM    8  C   UNL     1      39.399 -12.536   0.941  1.00  0.00     0.040 C 
BRANCH   8   9
HETATM    9  C   UNL     1      40.093 -11.222   1.292  1.00  0.00     0.131 C 
BRANCH   9  10
HETATM   10  N   UNL     1      40.354 -11.103   2.715  1.00  0.00    -0.341 N 
HETATM   11  C   UNL     1      41.580 -11.275   3.305  1.00  0.00     0.139 A 
HETATM   12  C   UNL     1      41.414 -11.102   4.678  1.00  0.00     0.011 A 
HETATM   13  N   UNL     1      42.729 -11.558   2.655  1.00  0.00    -0.242 NA
HETATM   14  C   UNL     1      42.551 -11.231   5.490  1.00  0.00     0.017 A 
HETATM   15  C   UNL     1      40.039 -10.819   4.898  1.00  0.00     0.032 A 
HETATM   16  C   UNL     1      43.763 -11.523   4.865  1.00  0.00     0.020 A 
HETATM   17  C   UNL     1      43.790 -11.671   3.485  1.00  0.00     0.119 A 
HETATM   18  C   UNL     1      39.408 -10.827   3.671  1.00  0.00     0.093 A 
ENDBRANCH   9  10
ENDBRANCH   8   9
ENDBRANCH   7   8
ENDBRANCH   3   7
BRANCH   1  19
HETATM   19  C   UNL     1      43.065 -16.444   2.673  1.00  0.00     0.071 A 
HETATM   20  C   UNL     1      43.349 -16.225   4.032  1.00  0.00     0.095 A 
HETATM   21  C   UNL     1      43.798 -17.261   4.852  1.00  0.00     0.041 A 
HETATM   22  C   UNL     1      43.932 -18.543   4.320  1.00  0.00     0.026 A 
HETATM   23  C   UNL     1      43.629 -18.770   2.976  1.00  0.00     0.036 A 
HETATM   24  C   UNL     1      43.198 -17.730   2.149  1.00  0.00     0.056 A 
HETATM   25 CL   UNL     1      43.805 -20.357   2.330  1.00  0.00    -0.084 Cl
BRANCH  20  26
HETATM   26  O   UNL     1      43.209 -14.955   4.541  1.00  0.00    -0.354 OA
HETATM   27  C   UNL     1      42.411 -14.986   5.726  1.00  0.00     0.210 C 
ENDBRANCH  20  26
ENDBRANCH   1  19
TORSDOF 6
ENDMDL
MODEL 8
REMARK VINA RESULT:      -7.0      3.117      4.862
REMARK  6 active torsions:
REMARK  status: ('A' for Active; 'I' for Inactive)
REMARK    1  A    between atoms: O_2  and  C_3 
REMARK    2  A    between atoms: C_4  and  N_5 
REMARK       I    between atoms: N_5  and  C_6 
REMARK       I    between atoms: C_6  and  N_7 
REMARK    3  A    between atoms: N_7  and  C_8 
REMARK    4  A    between atoms: C_8  and  C_9 
REMARK    5  A    between atoms: C_9  and  C_10 
REMARK    6  A    between atoms: C_10  and  N_11 
ROOT
HETATM    1  N   UNL     1      42.389 -12.712   4.984  1.00  0.00    -0.306 N 
HETATM    2  C   UNL     1      42.747 -12.851   3.666  1.00  0.00     0.320 C 
HETATM    3  N   UNL     1      42.007 -13.857   3.073  1.00  0.00    -0.343 N 
HETATM    4  O   UNL     1      43.628 -12.239   3.082  1.00  0.00    -0.247 OA
HETATM    5  H   UNL     1      41.866 -13.479   5.389  1.00  0.00     0.171 HD
HETATM    6  H   UNL     1      41.046 -13.899   3.384  1.00  0.00     0.164 HD
ENDROOT
BRANCH   3   7
HETATM    7  C   UNL     1      42.262 -14.260   1.704  1.00  0.00     0.126 C 
BRANCH   7   8
HETATM    8  C   UNL     1      42.933 -15.629   1.600  1.00  0.00     0.040 C 
BRANCH   8   9
HETATM    9  C   UNL     1      42.133 -16.711   2.321  1.00  0.00     0.131 C 
BRANCH   9  10
HETATM   10  N   UNL     1      42.865 -17.281   3.438  1.00  0.00    -0.341 N 
HETATM   11  C   UNL     1      42.730 -16.890   4.746  1.00  0.00     0.139 A 
HETATM   12  C   UNL     1      43.613 -17.655   5.506  1.00  0.00     0.011 A 
HETATM   13  N   UNL     1      41.887 -15.937   5.196  1.00  0.00    -0.242 NA
HETATM   14  C   UNL     1      43.644 -17.425   6.890  1.00  0.00     0.017 A 
HETATM   15  C   UNL     1      44.289 -18.524   4.609  1.00  0.00     0.032 A 
HETATM   16  C   UNL     1      42.791 -16.449   7.404  1.00  0.00     0.020 A 
HETATM   17  C   UNL     1      41.959 -15.758   6.534  1.00  0.00     0.119 A 
HETATM   18  C   UNL     1      43.810 -18.272   3.340  1.00  0.00     0.093 A 
ENDBRANCH   9  10
ENDBRANCH   8   9
ENDBRANCH   7   8
ENDBRANCH   3   7
BRANCH   1  19
HETATM   19  C   UNL     1      42.896 -11.787   5.919  1.00  0.00     0.071 A 
HETATM   20  C   UNL     1      41.981 -10.876   6.475  1.00  0.00     0.095 A 
HETATM   21  C   UNL     1      42.397  -9.891   7.371  1.00  0.00     0.041 A 
HETATM   22  C   UNL     1      43.738  -9.835   7.748  1.00  0.00     0.026 A 
HETATM   23  C   UNL     1      44.647 -10.752   7.217  1.00  0.00     0.036 A 
HETATM   24  C   UNL     1      44.235 -11.726   6.304  1.00  0.00     0.056 A 
HETATM   25 CL   UNL     1      46.302 -10.666   7.686  1.00  0.00    -0.084 Cl
BRANCH  20  26
HETATM   26  O   UNL     1      40.662 -10.948   6.094  1.00  0.00    -0.354 OA
HETATM   27  C   UNL     1      40.268  -9.733   5.453  1.00  0.00     0.210 C 
ENDBRANCH  20  26
ENDBRANCH   1  19
TORSDOF 6
ENDMDL
MODEL 9
REMARK VINA RESULT:      -7.0      2.822      4.160
REMARK  6 active torsions:
REMARK  status: ('A' for Active; 'I' for Inactive)
REMARK    1  A    between atoms: O_2  and  C_3 
REMARK    2  A    between atoms: C_4  and  N_5 
REMARK       I    between atoms: N_5  and  C_6 
REMARK       I    between atoms: C_6  and  N_7 
REMARK    3  A    between atoms: N_7  and  C_8 
REMARK    4  A    between atoms: C_8  and  C_9 
REMARK    5  A    between atoms: C_9  and  C_10 
REMARK    6  A    between atoms: C_10  and  N_11 
ROOT
HETATM    1  N   UNL     1      41.540 -12.819   5.134  1.00  0.00    -0.306 N 
HETATM    2  C   UNL     1      41.786 -13.043   3.801  1.00  0.00     0.320 C 
HETATM    3  N   UNL     1      40.980 -14.063   3.332  1.00  0.00    -0.343 N 
HETATM    4  O   UNL     1      42.628 -12.487   3.113  1.00  0.00    -0.247 OA
HETATM    5  H   UNL     1      41.037 -13.547   5.624  1.00  0.00     0.171 HD
HETATM    6  H   UNL     1      40.047 -14.063   3.721  1.00  0.00     0.164 HD
ENDROOT
BRANCH   3   7
HETATM    7  C   UNL     1      41.114 -14.551   1.973  1.00  0.00     0.126 C 
BRANCH   7   8
HETATM    8  C   UNL     1      41.410 -16.048   1.903  1.00  0.00     0.040 C 
BRANCH   8   9
HETATM    9  C   UNL     1      42.910 -16.332   1.898  1.00  0.00     0.131 C 
BRANCH   9  10
HETATM   10  N   UNL     1      43.346 -17.002   3.110  1.00  0.00    -0.341 N 
HETATM   11  C   UNL     1      43.535 -18.354   3.235  1.00  0.00     0.139 A 
HETATM   12  C   UNL     1      43.930 -18.603   4.548  1.00  0.00     0.011 A 
HETATM   13  N   UNL     1      43.368 -19.262   2.251  1.00  0.00    -0.242 NA
HETATM   14  C   UNL     1      44.185 -19.936   4.906  1.00  0.00     0.017 A 
HETATM   15  C   UNL     1      43.972 -17.350   5.215  1.00  0.00     0.032 A 
HETATM   16  C   UNL     1      44.026 -20.913   3.924  1.00  0.00     0.020 A 
HETATM   17  C   UNL     1      43.627 -20.528   2.651  1.00  0.00     0.119 A 
HETATM   18  C   UNL     1      43.607 -16.379   4.306  1.00  0.00     0.093 A 
ENDBRANCH   9  10
ENDBRANCH   8   9
ENDBRANCH   7   8
ENDBRANCH   3   7
BRANCH   1  19
HETATM   19  C   UNL     1      42.140 -11.853   5.968  1.00  0.00     0.071 A 
HETATM   20  C   UNL     1      41.359 -10.739   6.318  1.00  0.00     0.095 A 
HETATM   21  C   UNL     1      41.881  -9.707   7.099  1.00  0.00     0.041 A 
HETATM   22  C   UNL     1      43.191  -9.803   7.568  1.00  0.00     0.026 A 
HETATM   23  C   UNL     1      43.964 -10.919   7.242  1.00  0.00     0.036 A 
HETATM   24  C   UNL     1      43.448 -11.943   6.444  1.00  0.00     0.056 A 
HETATM   25 CL   UNL     1      45.582 -11.021   7.822  1.00  0.00    -0.084 Cl
BRANCH  20  26
HETATM   26  O   UNL     1      40.068 -10.662   5.849  1.00  0.00    -0.354 OA
HETATM   27  C   UNL     1      39.144 -10.747   6.937  1.00  0.00     0.210 C 
ENDBRANCH  20  26
ENDBRANCH   1  19
TORSDOF 6
ENDMDL
MODEL 10
REMARK VINA RESULT:      -6.9      3.022      6.885
REMARK  6 active torsions:
REMARK  status: ('A' for Active; 'I' for Inactive)
REMARK    1  A    between atoms: O_2  and  C_3 
REMARK    2  A    between atoms: C_4  and  N_5 
REMARK       I    between atoms: N_5  and  C_6 
REMARK       I    between atoms: C_6  and  N_7 
REMARK    3  A    between atoms: N_7  and  C_8 
REMARK    4  A    between atoms: C_8  and  C_9 
REMARK    5  A    between atoms: C_9  and  C_10 
REMARK    6  A    between atoms: C_10  and  N_11 
ROOT
HETATM    1  N   UNL     1      42.594 -15.489   2.535  1.00  0.00    -0.306 N 
HETATM    2  C   UNL     1      41.395 -15.500   1.865  1.00  0.00     0.320 C 
HETATM    3  N   UNL     1      41.492 -14.765   0.699  1.00  0.00    -0.343 N 
HETATM    4  O   UNL     1      40.355 -16.019   2.242  1.00  0.00    -0.247 OA
HETATM    5  H   UNL     1      43.259 -14.782   2.249  1.00  0.00     0.171 HD
HETATM    6  H   UNL     1      42.381 -14.859   0.226  1.00  0.00     0.164 HD
ENDROOT
BRANCH   3   7
HETATM    7  C   UNL     1      40.331 -14.549  -0.143  1.00  0.00     0.126 C 
BRANCH   7   8
HETATM    8  C   UNL     1      39.601 -13.244   0.171  1.00  0.00     0.040 C 
BRANCH   8   9
HETATM    9  C   UNL     1      40.551 -12.175   0.703  1.00  0.00     0.131 C 
BRANCH   9  10
HETATM   10  N   UNL     1      40.451 -12.018   2.143  1.00  0.00    -0.341 N 
HETATM   11  C   UNL     1      41.514 -12.031   3.009  1.00  0.00     0.139 A 
HETATM   12  C   UNL     1      41.007 -11.875   4.298  1.00  0.00     0.011 A 
HETATM   13  N   UNL     1      42.809 -12.168   2.657  1.00  0.00    -0.242 NA
HETATM   14  C   UNL     1      41.926 -11.856   5.358  1.00  0.00     0.017 A 
HETATM   15  C   UNL     1      39.596 -11.768   4.180  1.00  0.00     0.032 A 
HETATM   16  C   UNL     1      43.278 -11.995   5.046  1.00  0.00     0.020 A 
HETATM   17  C   UNL     1      43.650 -12.143   3.716  1.00  0.00     0.119 A 
HETATM   18  C   UNL     1      39.279 -11.860   2.841  1.00  0.00     0.093 A 
ENDBRANCH   9  10
ENDBRANCH   8   9
ENDBRANCH   7   8
ENDBRANCH   3   7
BRANCH   1  19
HETATM   19  C   UNL     1      42.906 -16.135   3.748  1.00  0.00     0.071 A 
HETATM   20  C   UNL     1      43.475 -17.417   3.661  1.00  0.00     0.095 A 
HETATM   21  C   UNL     1      43.773 -18.155   4.806  1.00  0.00     0.041 A 
HETATM   22  C   UNL     1      43.534 -17.594   6.060  1.00  0.00     0.026 A 
HETATM   23  C   UNL     1      42.990 -16.312   6.153  1.00  0.00     0.036 A 
HETATM   24  C   UNL     1      42.673 -15.580   5.006  1.00  0.00     0.056 A 
HETATM   25 CL   UNL     1      42.693 -15.634   7.709  1.00  0.00    -0.084 Cl
BRANCH  20  26
HETATM   26  O   UNL     1      43.708 -17.953   2.415  1.00  0.00    -0.354 OA
HETATM   27  C   UNL     1      43.563 -19.375   2.458  1.00  0.00     0.210 C 
ENDBRANCH  20  26
ENDBRANCH   1  19
TORSDOF 6
ENDMDL
