MODEL 1
REMARK VINA RESULT:      -6.8      0.000      0.000
REMARK  6 active torsions:
REMARK  status: ('A' for Active; 'I' for Inactive)
REMARK    1  A    between atoms: N_2  and  C_5 
REMARK    2  A    between atoms: C_5  and  C_6 
REMARK    3  A    between atoms: C_6  and  C_7 
REMARK    4  A    between atoms: C_7  and  C_8 
REMARK    5  A    between atoms: C_12  and  N_13 
REMARK       I    between atoms: N_13  and  C_14 
REMARK    6  A    between atoms: C_14  and  C_15 
ROOT
HETATM    1  C   UNL     1      39.349 -12.402   2.683  1.00  0.00     0.079 A 
HETATM    2  N   UNL     1      39.276 -12.466   4.025  1.00  0.00    -0.176 NA
HETATM    3  N   UNL     1      39.948 -13.610   4.317  1.00  0.00    -0.261 N 
HETATM    4  H   UNL     1      40.081 -13.898   5.286  1.00  0.00     0.191 HD
HETATM    5  C   UNL     1      40.377 -14.299   3.208  1.00  0.00     0.147 A 
HETATM    6  C   UNL     1      40.011 -13.525   2.130  1.00  0.00     0.116 A 
HETATM    7  C   UNL     1      40.249 -13.807   0.754  1.00  0.00     0.105 C 
HETATM    8  N   UNL     1      40.419 -14.034  -0.369  1.00  0.00    -0.191 NA
ENDROOT
BRANCH   1   9
HETATM    9  C   UNL     1      38.756 -11.223   1.982  1.00  0.00     0.064 C 
BRANCH   9  10
HETATM   10  C   UNL     1      37.455 -11.529   1.232  1.00  0.00     0.033 C 
BRANCH  10  11
HETATM   11  C   UNL     1      37.450 -11.316  -0.284  1.00  0.00     0.232 C 
BRANCH  11  12
HETATM   12  N   UNL     1      37.613 -12.596  -1.026  1.00  0.00    -0.079 N 
HETATM   13  C   UNL     1      37.958 -12.443  -2.460  1.00  0.00     0.266 C 
HETATM   14  H   UNL     1      36.785 -13.195  -0.930  1.00  0.00     0.276 HD
HETATM   15  H   UNL     1      38.397 -13.107  -0.562  1.00  0.00     0.276 HD
ENDBRANCH  11  12
ENDBRANCH  10  11
ENDBRANCH   9  10
ENDBRANCH   1   9
BRANCH   5  16
HETATM   16  N   UNL     1      41.041 -15.515   3.266  1.00  0.00    -0.306 N 
HETATM   17  C   UNL     1      42.414 -15.598   3.431  1.00  0.00     0.259 C 
HETATM   18  O   UNL     1      43.121 -14.592   3.516  1.00  0.00    -0.267 OA
HETATM   19  H   UNL     1      40.497 -16.373   3.193  1.00  0.00     0.170 HD
BRANCH  17  20
HETATM   20  C   UNL     1      42.998 -16.941   3.497  1.00  0.00     0.063 A 
HETATM   21  C   UNL     1      43.722 -17.518   4.524  1.00  0.00     0.091 A 
HETATM   22 CL   UNL     1      44.174 -16.847   6.049  1.00  0.00    -0.075 Cl
HETATM   23  S   UNL     1      44.237 -19.109   4.209  1.00  0.00    -0.065 SA
HETATM   24  C   UNL     1      43.515 -19.077   2.684  1.00  0.00     0.077 A 
HETATM   25 CL   UNL     1      43.614 -20.448   1.659  1.00  0.00    -0.076 Cl
HETATM   26  C   UNL     1      42.891 -17.889   2.408  1.00  0.00     0.050 A 
ENDBRANCH  17  20
ENDBRANCH   5  16
TORSDOF 6
ENDMDL
MODEL 2
REMARK VINA RESULT:      -6.8      1.258      2.311
REMARK  6 active torsions:
REMARK  status: ('A' for Active; 'I' for Inactive)
REMARK    1  A    between atoms: N_2  and  C_5 
REMARK    2  A    between atoms: C_5  and  C_6 
REMARK    3  A    between atoms: C_6  and  C_7 
REMARK    4  A    between atoms: C_7  and  C_8 
REMARK    5  A    between atoms: C_12  and  N_13 
REMARK       I    between atoms: N_13  and  C_14 
REMARK    6  A    between atoms: C_14  and  C_15 
ROOT
HETATM    1  C   UNL     1      39.202 -12.597   2.612  1.00  0.00     0.079 A 
HETATM    2  N   UNL     1      39.214 -12.617   3.958  1.00  0.00    -0.176 NA
HETATM    3  N   UNL     1      39.953 -13.721   4.243  1.00  0.00    -0.261 N 
HETATM    4  H   UNL     1      40.159 -13.968   5.211  1.00  0.00     0.191 HD
HETATM    5  C   UNL     1      40.346 -14.428   3.133  1.00  0.00     0.147 A 
HETATM    6  C   UNL     1      39.881 -13.709   2.056  1.00  0.00     0.116 A 
HETATM    7  C   UNL     1      40.047 -14.028   0.677  1.00  0.00     0.105 C 
HETATM    8  N   UNL     1      40.159 -14.287  -0.447  1.00  0.00    -0.191 NA
ENDROOT
BRANCH   1   9
HETATM    9  C   UNL     1      38.515 -11.471   1.912  1.00  0.00     0.064 C 
BRANCH   9  10
HETATM   10  C   UNL     1      39.264 -10.135   1.987  1.00  0.00     0.033 C 
BRANCH  10  11
HETATM   11  C   UNL     1      40.743 -10.134   1.596  1.00  0.00     0.232 C 
BRANCH  11  12
HETATM   12  N   UNL     1      41.613  -9.677   2.714  1.00  0.00    -0.079 N 
HETATM   13  C   UNL     1      42.260 -10.767   3.483  1.00  0.00     0.266 C 
HETATM   14  H   UNL     1      41.108  -9.053   3.353  1.00  0.00     0.276 HD
HETATM   15  H   UNL     1      42.369  -9.100   2.281  1.00  0.00     0.276 HD
ENDBRANCH  11  12
ENDBRANCH  10  11
ENDBRANCH   9  10
ENDBRANCH   1   9
BRANCH   5  16
HETATM   16  N   UNL     1      41.067 -15.612   3.189  1.00  0.00    -0.306 N 
HETATM   17  C   UNL     1      42.417 -15.637   3.498  1.00  0.00     0.259 C 
HETATM   18  O   UNL     1      43.054 -14.606   3.721  1.00  0.00    -0.267 OA
HETATM   19  H   UNL     1      40.583 -16.487   3.004  1.00  0.00     0.170 HD
BRANCH  17  20
HETATM   20  C   UNL     1      43.065 -16.951   3.545  1.00  0.00     0.063 A 
HETATM   21  C   UNL     1      43.895 -17.470   4.522  1.00  0.00     0.091 A 
HETATM   22 CL   UNL     1      44.437 -16.742   5.990  1.00  0.00    -0.075 Cl
HETATM   23  S   UNL     1      44.455 -19.044   4.200  1.00  0.00    -0.065 SA
HETATM   24  C   UNL     1      43.613 -19.082   2.739  1.00  0.00     0.077 A 
HETATM   25 CL   UNL     1      43.692 -20.473   1.739  1.00  0.00    -0.076 Cl
HETATM   26  C   UNL     1      42.915 -17.930   2.489  1.00  0.00     0.050 A 
ENDBRANCH  17  20
ENDBRANCH   5  16
TORSDOF 6
ENDMDL
MODEL 3
REMARK VINA RESULT:      -6.7      4.282      7.098
REMARK  6 active torsions:
REMARK  status: ('A' for Active; 'I' for Inactive)
REMARK    1  A    between atoms: N_2  and  C_5 
REMARK    2  A    between atoms: C_5  and  C_6 
REMARK    3  A    between atoms: C_6  and  C_7 
REMARK    4  A    between atoms: C_7  and  C_8 
REMARK    5  A    between atoms: C_12  and  N_13 
REMARK       I    between atoms: N_13  and  C_14 
REMARK    6  A    between atoms: C_14  and  C_15 
ROOT
HETATM    1  C   UNL     1      43.490 -16.715   4.073  1.00  0.00     0.079 A 
HETATM    2  N   UNL     1      43.472 -17.808   3.287  1.00  0.00    -0.176 NA
HETATM    3  N   UNL     1      42.974 -17.336   2.114  1.00  0.00    -0.261 N 
HETATM    4  H   UNL     1      42.879 -17.953   1.308  1.00  0.00     0.191 HD
HETATM    5  C   UNL     1      42.617 -16.010   2.157  1.00  0.00     0.147 A 
HETATM    6  C   UNL     1      42.957 -15.578   3.419  1.00  0.00     0.116 A 
HETATM    7  C   UNL     1      42.794 -14.265   3.947  1.00  0.00     0.105 C 
HETATM    8  N   UNL     1      42.651 -13.205   4.394  1.00  0.00    -0.191 NA
ENDROOT
BRANCH   1   9
HETATM    9  C   UNL     1      44.040 -16.830   5.458  1.00  0.00     0.064 C 
BRANCH   9  10
HETATM   10  C   UNL     1      42.970 -16.976   6.546  1.00  0.00     0.033 C 
BRANCH  10  11
HETATM   11  C   UNL     1      42.746 -15.783   7.477  1.00  0.00     0.232 C 
BRANCH  11  12
HETATM   12  N   UNL     1      41.597 -14.944   7.038  1.00  0.00    -0.079 N 
HETATM   13  C   UNL     1      40.453 -15.703   6.476  1.00  0.00     0.266 C 
HETATM   14  H   UNL     1      41.892 -14.219   6.374  1.00  0.00     0.276 HD
HETATM   15  H   UNL     1      41.259 -14.439   7.888  1.00  0.00     0.276 HD
ENDBRANCH  11  12
ENDBRANCH  10  11
ENDBRANCH   9  10
ENDBRANCH   1   9
BRANCH   5  16
HETATM   16  N   UNL     1      42.043 -15.332   1.092  1.00  0.00    -0.306 N 
HETATM   17  C   UNL     1      40.675 -15.138   0.993  1.00  0.00     0.259 C 
HETATM   18  O   UNL     1      39.893 -15.575   1.840  1.00  0.00    -0.267 OA
HETATM   19  H   UNL     1      42.651 -14.960   0.365  1.00  0.00     0.170 HD
BRANCH  17  20
HETATM   20  C   UNL     1      40.190 -14.390  -0.170  1.00  0.00     0.063 A 
HETATM   21  C   UNL     1      40.351 -13.047  -0.462  1.00  0.00     0.091 A 
HETATM   22 CL   UNL     1      41.166 -11.826   0.446  1.00  0.00    -0.075 Cl
HETATM   23  S   UNL     1      39.624 -12.556  -1.919  1.00  0.00    -0.065 SA
HETATM   24  C   UNL     1      39.062 -14.120  -2.206  1.00  0.00     0.077 A 
HETATM   25 CL   UNL     1      38.148 -14.459  -3.617  1.00  0.00    -0.076 Cl
HETATM   26  C   UNL     1      39.413 -15.008  -1.224  1.00  0.00     0.050 A 
ENDBRANCH  17  20
ENDBRANCH   5  16
TORSDOF 6
ENDMDL
MODEL 4
REMARK VINA RESULT:      -6.7      1.223      2.284
REMARK  6 active torsions:
REMARK  status: ('A' for Active; 'I' for Inactive)
REMARK    1  A    between atoms: N_2  and  C_5 
REMARK    2  A    between atoms: C_5  and  C_6 
REMARK    3  A    between atoms: C_6  and  C_7 
REMARK    4  A    between atoms: C_7  and  C_8 
REMARK    5  A    between atoms: C_12  and  N_13 
REMARK       I    between atoms: N_13  and  C_14 
REMARK    6  A    between atoms: C_14  and  C_15 
ROOT
HETATM    1  C   UNL     1      39.817 -12.782   0.372  1.00  0.00     0.079 A 
HETATM    2  N   UNL     1      40.367 -13.351  -0.716  1.00  0.00    -0.176 NA
HETATM    3  N   UNL     1      40.927 -14.486  -0.222  1.00  0.00    -0.261 N 
HETATM    4  H   UNL     1      41.395 -15.145  -0.844  1.00  0.00     0.191 HD
HETATM    5  C   UNL     1      40.809 -14.615   1.141  1.00  0.00     0.147 A 
HETATM    6  C   UNL     1      40.077 -13.523   1.551  1.00  0.00     0.116 A 
HETATM    7  C   UNL     1      39.678 -13.212   2.882  1.00  0.00     0.105 C 
HETATM    8  N   UNL     1      39.362 -12.938   3.963  1.00  0.00    -0.191 NA
ENDROOT
BRANCH   1   9
HETATM    9  C   UNL     1      39.046 -11.512   0.213  1.00  0.00     0.064 C 
BRANCH   9  10
HETATM   10  C   UNL     1      37.792 -11.646  -0.658  1.00  0.00     0.033 C 
BRANCH  10  11
HETATM   11  C   UNL     1      37.907 -11.230  -2.126  1.00  0.00     0.232 C 
BRANCH  11  12
HETATM   12  N   UNL     1      38.304 -12.370  -2.997  1.00  0.00    -0.079 N 
HETATM   13  C   UNL     1      37.486 -13.596  -2.828  1.00  0.00     0.266 C 
HETATM   14  H   UNL     1      39.299 -12.600  -2.887  1.00  0.00     0.276 HD
HETATM   15  H   UNL     1      38.189 -12.043  -3.982  1.00  0.00     0.276 HD
ENDBRANCH  11  12
ENDBRANCH  10  11
ENDBRANCH   9  10
ENDBRANCH   1   9
BRANCH   5  16
HETATM   16  N   UNL     1      41.347 -15.668   1.865  1.00  0.00    -0.306 N 
HETATM   17  C   UNL     1      42.709 -15.793   2.080  1.00  0.00     0.259 C 
HETATM   18  O   UNL     1      43.518 -14.983   1.624  1.00  0.00    -0.267 OA
HETATM   19  H   UNL     1      40.716 -16.365   2.255  1.00  0.00     0.170 HD
BRANCH  17  20
HETATM   20  C   UNL     1      43.155 -16.940   2.877  1.00  0.00     0.063 A 
HETATM   21  C   UNL     1      43.547 -16.970   4.204  1.00  0.00     0.091 A 
HETATM   22 CL   UNL     1      43.641 -15.675   5.341  1.00  0.00    -0.075 Cl
HETATM   23  S   UNL     1      44.006 -18.510   4.763  1.00  0.00    -0.065 SA
HETATM   24  C   UNL     1      43.705 -19.188   3.248  1.00  0.00     0.077 A 
HETATM   25 CL   UNL     1      43.962 -20.863   2.991  1.00  0.00    -0.076 Cl
HETATM   26  C   UNL     1      43.263 -18.275   2.327  1.00  0.00     0.050 A 
ENDBRANCH  17  20
ENDBRANCH   5  16
TORSDOF 6
ENDMDL
MODEL 5
REMARK VINA RESULT:      -6.6      3.699      4.916
REMARK  6 active torsions:
REMARK  status: ('A' for Active; 'I' for Inactive)
REMARK    1  A    between atoms: N_2  and  C_5 
REMARK    2  A    between atoms: C_5  and  C_6 
REMARK    3  A    between atoms: C_6  and  C_7 
REMARK    4  A    between atoms: C_7  and  C_8 
REMARK    5  A    between atoms: C_12  and  N_13 
REMARK       I    between atoms: N_13  and  C_14 
REMARK    6  A    between atoms: C_14  and  C_15 
ROOT
HETATM    1  C   UNL     1      41.913 -11.166   4.522  1.00  0.00     0.079 A 
HETATM    2  N   UNL     1      43.037 -11.055   3.789  1.00  0.00    -0.176 NA
HETATM    3  N   UNL     1      43.442 -12.344   3.648  1.00  0.00    -0.261 N 
HETATM    4  H   UNL     1      44.270 -12.567   3.096  1.00  0.00     0.191 HD
HETATM    5  C   UNL     1      42.656 -13.249   4.319  1.00  0.00     0.147 A 
HETATM    6  C   UNL     1      41.644 -12.508   4.886  1.00  0.00     0.116 A 
HETATM    7  C   UNL     1      40.564 -12.998   5.675  1.00  0.00     0.105 C 
HETATM    8  N   UNL     1      39.690 -13.382   6.333  1.00  0.00    -0.191 NA
ENDROOT
BRANCH   1   9
HETATM    9  C   UNL     1      41.133  -9.933   4.842  1.00  0.00     0.064 C 
BRANCH   9  10
HETATM   10  C   UNL     1      41.113  -9.574   6.332  1.00  0.00     0.033 C 
BRANCH  10  11
HETATM   11  C   UNL     1      42.462  -9.401   7.033  1.00  0.00     0.232 C 
BRANCH  11  12
HETATM   12  N   UNL     1      42.784 -10.558   7.912  1.00  0.00    -0.079 N 
HETATM   13  C   UNL     1      44.047 -11.260   7.577  1.00  0.00     0.266 C 
HETATM   14  H   UNL     1      42.011 -11.232   7.946  1.00  0.00     0.276 HD
HETATM   15  H   UNL     1      42.878 -10.175   8.880  1.00  0.00     0.276 HD
ENDBRANCH  11  12
ENDBRANCH  10  11
ENDBRANCH   9  10
ENDBRANCH   1   9
BRANCH   5  16
HETATM   16  N   UNL     1      42.910 -14.612   4.354  1.00  0.00    -0.306 N 
HETATM   17  C   UNL     1      43.201 -15.337   3.209  1.00  0.00     0.259 C 
HETATM   18  O   UNL     1      43.232 -14.810   2.095  1.00  0.00    -0.267 OA
HETATM   19  H   UNL     1      42.888 -15.090   5.252  1.00  0.00     0.170 HD
BRANCH  17  20
HETATM   20  C   UNL     1      43.470 -16.768   3.377  1.00  0.00     0.063 A 
HETATM   21  C   UNL     1      44.002 -17.424   4.472  1.00  0.00     0.091 A 
HETATM   22 CL   UNL     1      44.522 -16.774   5.984  1.00  0.00    -0.075 Cl
HETATM   23  S   UNL     1      44.166 -19.105   4.268  1.00  0.00    -0.065 SA
HETATM   24  C   UNL     1      43.539 -19.011   2.705  1.00  0.00     0.077 A 
HETATM   25 CL   UNL     1      43.379 -20.432   1.758  1.00  0.00    -0.076 Cl
HETATM   26  C   UNL     1      43.206 -17.736   2.333  1.00  0.00     0.050 A 
ENDBRANCH  17  20
ENDBRANCH   5  16
TORSDOF 6
ENDMDL
MODEL 6
REMARK VINA RESULT:      -6.5      1.574      1.618
REMARK  6 active torsions:
REMARK  status: ('A' for Active; 'I' for Inactive)
REMARK    1  A    between atoms: N_2  and  C_5 
REMARK    2  A    between atoms: C_5  and  C_6 
REMARK    3  A    between atoms: C_6  and  C_7 
REMARK    4  A    between atoms: C_7  and  C_8 
REMARK    5  A    between atoms: C_12  and  N_13 
REMARK       I    between atoms: N_13  and  C_14 
REMARK    6  A    between atoms: C_14  and  C_15 
ROOT
HETATM    1  C   UNL     1      41.333 -11.845   1.367  1.00  0.00     0.079 A 
HETATM    2  N   UNL     1      42.228 -11.416   2.276  1.00  0.00    -0.176 NA
HETATM    3  N   UNL     1      42.896 -12.552   2.610  1.00  0.00    -0.261 N 
HETATM    4  H   UNL     1      43.672 -12.518   3.271  1.00  0.00     0.191 HD
HETATM    5  C   UNL     1      42.409 -13.682   1.998  1.00  0.00     0.147 A 
HETATM    6  C   UNL     1      41.398 -13.246   1.172  1.00  0.00     0.116 A 
HETATM    7  C   UNL     1      40.591 -14.045   0.313  1.00  0.00     0.105 C 
HETATM    8  N   UNL     1      39.916 -14.687  -0.377  1.00  0.00    -0.191 NA
ENDROOT
BRANCH   1   9
HETATM    9  C   UNL     1      40.432 -10.848   0.714  1.00  0.00     0.064 C 
BRANCH   9  10
HETATM   10  C   UNL     1      38.961 -11.275   0.654  1.00  0.00     0.033 C 
BRANCH  10  11
HETATM   11  C   UNL     1      38.280 -11.263  -0.716  1.00  0.00     0.232 C 
BRANCH  11  12
HETATM   12  N   UNL     1      37.590 -12.550  -1.005  1.00  0.00    -0.079 N 
HETATM   13  C   UNL     1      37.526 -12.912  -2.442  1.00  0.00     0.266 C 
HETATM   14  H   UNL     1      36.648 -12.573  -0.599  1.00  0.00     0.276 HD
HETATM   15  H   UNL     1      38.136 -13.294  -0.514  1.00  0.00     0.276 HD
ENDBRANCH  11  12
ENDBRANCH  10  11
ENDBRANCH   9  10
ENDBRANCH   1   9
BRANCH   5  16
HETATM   16  N   UNL     1      42.905 -14.956   2.228  1.00  0.00    -0.306 N 
HETATM   17  C   UNL     1      42.697 -15.622   3.425  1.00  0.00     0.259 C 
HETATM   18  O   UNL     1      42.074 -15.110   4.356  1.00  0.00    -0.267 OA
HETATM   19  H   UNL     1      43.432 -15.416   1.489  1.00  0.00     0.170 HD
BRANCH  17  20
HETATM   20  C   UNL     1      43.255 -16.973   3.541  1.00  0.00     0.063 A 
HETATM   21  C   UNL     1      43.998 -17.514   4.575  1.00  0.00     0.091 A 
HETATM   22 CL   UNL     1      44.510 -16.778   6.050  1.00  0.00    -0.075 Cl
HETATM   23  S   UNL     1      44.471 -19.129   4.325  1.00  0.00    -0.065 SA
HETATM   24  C   UNL     1      43.705 -19.157   2.823  1.00  0.00     0.077 A 
HETATM   25 CL   UNL     1      43.745 -20.579   1.865  1.00  0.00    -0.076 Cl
HETATM   26  C   UNL     1      43.097 -17.971   2.505  1.00  0.00     0.050 A 
ENDBRANCH  17  20
ENDBRANCH   5  16
TORSDOF 6
ENDMDL
MODEL 7
REMARK VINA RESULT:      -6.5      4.463      8.014
REMARK  6 active torsions:
REMARK  status: ('A' for Active; 'I' for Inactive)
REMARK    1  A    between atoms: N_2  and  C_5 
REMARK    2  A    between atoms: C_5  and  C_6 
REMARK    3  A    between atoms: C_6  and  C_7 
REMARK    4  A    between atoms: C_7  and  C_8 
REMARK    5  A    between atoms: C_12  and  N_13 
REMARK       I    between atoms: N_13  and  C_14 
REMARK    6  A    between atoms: C_14  and  C_15 
ROOT
HETATM    1  C   UNL     1      43.010 -16.485   3.181  1.00  0.00     0.079 A 
HETATM    2  N   UNL     1      43.585 -16.910   2.041  1.00  0.00    -0.176 NA
HETATM    3  N   UNL     1      43.062 -16.078   1.103  1.00  0.00    -0.261 N 
HETATM    4  H   UNL     1      43.354 -16.150   0.129  1.00  0.00     0.191 HD
HETATM    5  C   UNL     1      42.133 -15.196   1.600  1.00  0.00     0.147 A 
HETATM    6  C   UNL     1      42.091 -15.432   2.955  1.00  0.00     0.116 A 
HETATM    7  C   UNL     1      41.284 -14.757   3.916  1.00  0.00     0.105 C 
HETATM    8  N   UNL     1      40.620 -14.229   4.705  1.00  0.00    -0.191 NA
ENDROOT
BRANCH   1   9
HETATM    9  C   UNL     1      43.389 -17.139   4.470  1.00  0.00     0.064 C 
BRANCH   9  10
HETATM   10  C   UNL     1      44.348 -18.325   4.313  1.00  0.00     0.033 C 
BRANCH  10  11
HETATM   11  C   UNL     1      44.046 -19.587   5.124  1.00  0.00     0.232 C 
BRANCH  11  12
HETATM   12  N   UNL     1      43.914 -20.788   4.255  1.00  0.00    -0.079 N 
HETATM   13  C   UNL     1      43.681 -20.494   2.820  1.00  0.00     0.266 C 
HETATM   14  H   UNL     1      43.187 -21.425   4.601  1.00  0.00     0.276 HD
HETATM   15  H   UNL     1      44.817 -21.308   4.332  1.00  0.00     0.276 HD
ENDBRANCH  11  12
ENDBRANCH  10  11
ENDBRANCH   9  10
ENDBRANCH   1   9
BRANCH   5  16
HETATM   16  N   UNL     1      41.437 -14.288   0.816  1.00  0.00    -0.306 N 
HETATM   17  C   UNL     1      40.226 -14.604   0.223  1.00  0.00     0.259 C 
HETATM   18  O   UNL     1      39.711 -15.717   0.346  1.00  0.00    -0.267 OA
HETATM   19  H   UNL     1      41.828 -13.358   0.681  1.00  0.00     0.170 HD
BRANCH  17  20
HETATM   20  C   UNL     1      39.576 -13.554  -0.567  1.00  0.00     0.063 A 
HETATM   21  C   UNL     1      38.986 -13.651  -1.814  1.00  0.00     0.091 A 
HETATM   22 CL   UNL     1      38.831 -15.031  -2.841  1.00  0.00    -0.075 Cl
HETATM   23  S   UNL     1      38.344 -12.189  -2.400  1.00  0.00    -0.065 SA
HETATM   24  C   UNL     1      38.839 -11.374  -1.009  1.00  0.00     0.077 A 
HETATM   25 CL   UNL     1      38.525  -9.697  -0.839  1.00  0.00    -0.076 Cl
HETATM   26  C   UNL     1      39.480 -12.184  -0.109  1.00  0.00     0.050 A 
ENDBRANCH  17  20
ENDBRANCH   5  16
TORSDOF 6
ENDMDL
MODEL 8
REMARK VINA RESULT:      -6.5      3.297      3.855
REMARK  6 active torsions:
REMARK  status: ('A' for Active; 'I' for Inactive)
REMARK    1  A    between atoms: N_2  and  C_5 
REMARK    2  A    between atoms: C_5  and  C_6 
REMARK    3  A    between atoms: C_6  and  C_7 
REMARK    4  A    between atoms: C_7  and  C_8 
REMARK    5  A    between atoms: C_12  and  N_13 
REMARK       I    between atoms: N_13  and  C_14 
REMARK    6  A    between atoms: C_14  and  C_15 
ROOT
HETATM    1  C   UNL     1      40.421 -11.968   5.687  1.00  0.00     0.079 A 
HETATM    2  N   UNL     1      39.382 -12.514   5.028  1.00  0.00    -0.176 NA
HETATM    3  N   UNL     1      39.806 -13.782   4.782  1.00  0.00    -0.261 N 
HETATM    4  H   UNL     1      39.193 -14.448   4.313  1.00  0.00     0.191 HD
HETATM    5  C   UNL     1      41.092 -14.028   5.197  1.00  0.00     0.147 A 
HETATM    6  C   UNL     1      41.511 -12.865   5.803  1.00  0.00     0.116 A 
HETATM    7  C   UNL     1      42.777 -12.625   6.410  1.00  0.00     0.105 C 
HETATM    8  N   UNL     1      43.810 -12.411   6.890  1.00  0.00    -0.191 NA
ENDROOT
BRANCH   1   9
HETATM    9  C   UNL     1      40.305 -10.564   6.183  1.00  0.00     0.064 C 
BRANCH   9  10
HETATM   10  C   UNL     1      40.461  -9.498   5.093  1.00  0.00     0.033 C 
BRANCH  10  11
HETATM   11  C   UNL     1      41.819  -9.399   4.394  1.00  0.00     0.232 C 
BRANCH  11  12
HETATM   12  N   UNL     1      41.748  -9.848   2.977  1.00  0.00    -0.079 N 
HETATM   13  C   UNL     1      42.456 -11.120   2.692  1.00  0.00     0.266 C 
HETATM   14  H   UNL     1      42.073  -9.118   2.333  1.00  0.00     0.276 HD
HETATM   15  H   UNL     1      40.735  -9.993   2.764  1.00  0.00     0.276 HD
ENDBRANCH  11  12
ENDBRANCH  10  11
ENDBRANCH   9  10
ENDBRANCH   1   9
BRANCH   5  16
HETATM   16  N   UNL     1      41.745 -15.236   5.005  1.00  0.00    -0.306 N 
HETATM   17  C   UNL     1      42.323 -15.575   3.792  1.00  0.00     0.259 C 
HETATM   18  O   UNL     1      42.271 -14.827   2.814  1.00  0.00    -0.267 OA
HETATM   19  H   UNL     1      41.807 -15.887   5.784  1.00  0.00     0.170 HD
BRANCH  17  20
HETATM   20  C   UNL     1      43.003 -16.872   3.718  1.00  0.00     0.063 A 
HETATM   21  C   UNL     1      43.939 -17.407   4.584  1.00  0.00     0.091 A 
HETATM   22 CL   UNL     1      44.610 -16.724   6.020  1.00  0.00    -0.075 Cl
HETATM   23  S   UNL     1      44.500 -18.951   4.140  1.00  0.00    -0.065 SA
HETATM   24  C   UNL     1      43.516 -18.952   2.770  1.00  0.00     0.077 A 
HETATM   25 CL   UNL     1      43.525 -20.299   1.708  1.00  0.00    -0.076 Cl
HETATM   26  C   UNL     1      42.770 -17.810   2.640  1.00  0.00     0.050 A 
ENDBRANCH  17  20
ENDBRANCH   5  16
TORSDOF 6
ENDMDL
MODEL 9
REMARK VINA RESULT:      -6.5      2.071      2.260
REMARK  6 active torsions:
REMARK  status: ('A' for Active; 'I' for Inactive)
REMARK    1  A    between atoms: N_2  and  C_5 
REMARK    2  A    between atoms: C_5  and  C_6 
REMARK    3  A    between atoms: C_6  and  C_7 
REMARK    4  A    between atoms: C_7  and  C_8 
REMARK    5  A    between atoms: C_12  and  N_13 
REMARK       I    between atoms: N_13  and  C_14 
REMARK    6  A    between atoms: C_14  and  C_15 
ROOT
HETATM    1  C   UNL     1      41.470 -11.764   1.432  1.00  0.00     0.079 A 
HETATM    2  N   UNL     1      42.442 -11.351   2.267  1.00  0.00    -0.176 NA
HETATM    3  N   UNL     1      43.083 -12.504   2.589  1.00  0.00    -0.261 N 
HETATM    4  H   UNL     1      43.903 -12.487   3.195  1.00  0.00     0.191 HD
HETATM    5  C   UNL     1      42.511 -13.628   2.045  1.00  0.00     0.147 A 
HETATM    6  C   UNL     1      41.465 -13.172   1.275  1.00  0.00     0.116 A 
HETATM    7  C   UNL     1      40.569 -13.959   0.495  1.00  0.00     0.105 C 
HETATM    8  N   UNL     1      39.823 -14.589  -0.129  1.00  0.00    -0.191 NA
ENDROOT
BRANCH   1   9
HETATM    9  C   UNL     1      40.568 -10.748   0.812  1.00  0.00     0.064 C 
BRANCH   9  10
HETATM   10  C   UNL     1      40.329 -10.954  -0.688  1.00  0.00     0.033 C 
BRANCH  10  11
HETATM   11  C   UNL     1      41.555 -10.951  -1.604  1.00  0.00     0.232 C 
BRANCH  11  12
HETATM   12  N   UNL     1      41.574 -12.131  -2.511  1.00  0.00    -0.079 N 
HETATM   13  C   UNL     1      40.251 -12.513  -3.062  1.00  0.00     0.266 C 
HETATM   14  H   UNL     1      42.011 -12.945  -2.062  1.00  0.00     0.276 HD
HETATM   15  H   UNL     1      42.192 -11.875  -3.314  1.00  0.00     0.276 HD
ENDBRANCH  11  12
ENDBRANCH  10  11
ENDBRANCH   9  10
ENDBRANCH   1   9
BRANCH   5  16
HETATM   16  N   UNL     1      42.969 -14.916   2.278  1.00  0.00    -0.306 N 
HETATM   17  C   UNL     1      42.812 -15.542   3.504  1.00  0.00     0.259 C 
HETATM   18  O   UNL     1      42.272 -14.980   4.459  1.00  0.00    -0.267 OA
HETATM   19  H   UNL     1      43.428 -15.417   1.521  1.00  0.00     0.170 HD
BRANCH  17  20
HETATM   20  C   UNL     1      43.322 -16.912   3.623  1.00  0.00     0.063 A 
HETATM   21  C   UNL     1      43.983 -17.498   4.687  1.00  0.00     0.091 A 
HETATM   22 CL   UNL     1      44.425 -16.810   6.208  1.00  0.00    -0.075 Cl
HETATM   23  S   UNL     1      44.422 -19.121   4.429  1.00  0.00    -0.065 SA
HETATM   24  C   UNL     1      43.749 -19.093   2.883  1.00  0.00     0.077 A 
HETATM   25 CL   UNL     1      43.806 -20.495   1.897  1.00  0.00    -0.076 Cl
HETATM   26  C   UNL     1      43.198 -17.882   2.556  1.00  0.00     0.050 A 
ENDBRANCH  17  20
ENDBRANCH   5  16
TORSDOF 6
ENDMDL
MODEL 10
REMARK VINA RESULT:      -6.5      4.254      7.079
REMARK  6 active torsions:
REMARK  status: ('A' for Active; 'I' for Inactive)
REMARK    1  A    between atoms: N_2  and  C_5 
REMARK    2  A    between atoms: C_5  and  C_6 
REMARK    3  A    between atoms: C_6  and  C_7 
REMARK    4  A    between atoms: C_7  and  C_8 
REMARK    5  A    between atoms: C_12  and  N_13 
REMARK       I    between atoms: N_13  and  C_14 
REMARK    6  A    between atoms: C_14  and  C_15 
ROOT
HETATM    1  C   UNL     1      41.076 -15.378   4.944  1.00  0.00     0.079 A 
HETATM    2  N   UNL     1      40.376 -14.269   5.246  1.00  0.00    -0.176 NA
HETATM    3  N   UNL     1      39.875 -13.882   4.044  1.00  0.00    -0.261 N 
HETATM    4  H   UNL     1      39.264 -13.069   3.977  1.00  0.00     0.191 HD
HETATM    5  C   UNL     1      40.289 -14.664   2.993  1.00  0.00     0.147 A 
HETATM    6  C   UNL     1      41.062 -15.655   3.555  1.00  0.00     0.116 A 
HETATM    7  C   UNL     1      41.711 -16.725   2.873  1.00  0.00     0.105 C 
HETATM    8  N   UNL     1      42.258 -17.588   2.327  1.00  0.00    -0.191 NA
ENDROOT
BRANCH   1   9
HETATM    9  C   UNL     1      41.742 -16.136   6.045  1.00  0.00     0.064 C 
BRANCH   9  10
HETATM   10  C   UNL     1      43.215 -15.769   6.257  1.00  0.00     0.033 C 
BRANCH  10  11
HETATM   11  C   UNL     1      44.228 -16.915   6.293  1.00  0.00     0.232 C 
BRANCH  11  12
HETATM   12  N   UNL     1      44.328 -17.610   4.981  1.00  0.00    -0.079 N 
HETATM   13  C   UNL     1      44.088 -19.073   5.033  1.00  0.00     0.266 C 
HETATM   14  H   UNL     1      45.226 -17.422   4.521  1.00  0.00     0.276 HD
HETATM   15  H   UNL     1      43.593 -17.189   4.368  1.00  0.00     0.276 HD
ENDBRANCH  11  12
ENDBRANCH  10  11
ENDBRANCH   9  10
ENDBRANCH   1   9
BRANCH   5  16
HETATM   16  N   UNL     1      39.941 -14.426   1.672  1.00  0.00    -0.306 N 
HETATM   17  C   UNL     1      40.667 -13.567   0.863  1.00  0.00     0.259 C 
HETATM   18  O   UNL     1      41.651 -12.955   1.281  1.00  0.00    -0.267 OA
HETATM   19  H   UNL     1      39.130 -14.906   1.286  1.00  0.00     0.170 HD
BRANCH  17  20
HETATM   20  C   UNL     1      40.211 -13.412  -0.522  1.00  0.00     0.063 A 
HETATM   21  C   UNL     1      40.408 -12.347  -1.382  1.00  0.00     0.091 A 
HETATM   22 CL   UNL     1      41.245 -10.862  -1.102  1.00  0.00    -0.075 Cl
HETATM   23  S   UNL     1      39.708 -12.549  -2.918  1.00  0.00    -0.065 SA
HETATM   24  C   UNL     1      39.110 -14.065  -2.484  1.00  0.00     0.077 A 
HETATM   25 CL   UNL     1      38.201 -14.985  -3.611  1.00  0.00    -0.076 Cl
HETATM   26  C   UNL     1      39.429 -14.424  -1.201  1.00  0.00     0.050 A 
ENDBRANCH  17  20
ENDBRANCH   5  16
TORSDOF 6
ENDMDL
