MODEL 1
REMARK VINA RESULT:      -7.7      0.000      0.000
REMARK  4 active torsions:
REMARK  status: ('A' for Active; 'I' for Inactive)
REMARK    1  A    between atoms: C_2  and  C_3 
REMARK    2  A    between atoms: C_4  and  N_5 
REMARK       I    between atoms: N_5  and  C_6 
REMARK       I    between atoms: C_6  and  N_7 
REMARK    3  A    between atoms: C_8  and  C_9 
REMARK    4  A    between atoms: C_21  and  C_22 
ROOT
HETATM    1  N   UNL     1      42.040 -14.422   3.392  1.00  0.00    -0.308 N 
HETATM    2  C   UNL     1      40.767 -14.025   3.741  1.00  0.00     0.323 C 
HETATM    3  N   UNL     1      40.191 -13.118   2.866  1.00  0.00    -0.325 N 
HETATM    4  C   UNL     1      40.895 -12.298   1.879  1.00  0.00     0.126 C 
HETATM    5  C   UNL     1      40.231 -10.923   2.060  1.00  0.00     0.032 C 
HETATM    6  C   UNL     1      38.782 -11.281   2.364  1.00  0.00     0.022 C 
HETATM    7  C   UNL     1      38.933 -12.496   3.263  1.00  0.00     0.128 C 
HETATM    8  O   UNL     1      40.167 -14.421   4.737  1.00  0.00    -0.247 OA
HETATM    9  H   UNL     1      42.098 -14.648   2.410  1.00  0.00     0.170 HD
ENDROOT
BRANCH   1  10
HETATM   10  C   UNL     1      42.850 -15.194   4.265  1.00  0.00     0.049 A 
HETATM   11  C   UNL     1      43.133 -16.539   3.922  1.00  0.00    -0.031 A 
HETATM   12  C   UNL     1      43.930 -17.318   4.779  1.00  0.00     0.009 A 
HETATM   13  C   UNL     1      44.440 -16.788   5.956  1.00  0.00     0.001 A 
HETATM   14  C   UNL     1      44.185 -15.461   6.280  1.00  0.00     0.009 A 
HETATM   15  C   UNL     1      43.413 -14.631   5.439  1.00  0.00    -0.031 A 
BRANCH  11  16
HETATM   16  C   UNL     1      42.582 -17.218   2.687  1.00  0.00     0.036 C 
HETATM   17  C   UNL     1      43.253 -18.558   2.425  1.00  0.00     0.010 C 
ENDBRANCH  11  16
BRANCH  15  18
HETATM   18  C   UNL     1      43.275 -13.184   5.877  1.00  0.00     0.036 C 
HETATM   19  C   UNL     1      44.416 -12.635   6.727  1.00  0.00     0.010 C 
ENDBRANCH  15  18
ENDBRANCH   1  10
BRANCH   4  20
HETATM   20  C   UNL     1      40.750 -12.836   0.471  1.00  0.00     0.014 A 
HETATM   21  C   UNL     1      40.349 -14.126  -0.007  1.00  0.00     0.061 A 
HETATM   22  C   UNL     1      39.945 -15.343   0.745  1.00  0.00     0.073 C 
HETATM   23  N   UNL     1      40.348 -14.186  -1.344  1.00  0.00    -0.179 NA
HETATM   24  N   UNL     1      40.714 -12.966  -1.734  1.00  0.00    -0.282 N 
HETATM   25  H   UNL     1      40.755 -12.774  -2.730  1.00  0.00     0.189 HD
HETATM   26  C   UNL     1      40.993 -12.121  -0.699  1.00  0.00     0.034 A 
HETATM   27  C   UNL     1      41.422 -10.724  -0.953  1.00  0.00     0.070 C 
ENDBRANCH   4  20
TORSDOF 4
ENDMDL
MODEL 2
REMARK VINA RESULT:      -7.6      0.161      2.746
REMARK  4 active torsions:
REMARK  status: ('A' for Active; 'I' for Inactive)
REMARK    1  A    between atoms: C_2  and  C_3 
REMARK    2  A    between atoms: C_4  and  N_5 
REMARK       I    between atoms: N_5  and  C_6 
REMARK       I    between atoms: C_6  and  N_7 
REMARK    3  A    between atoms: C_8  and  C_9 
REMARK    4  A    between atoms: C_21  and  C_22 
ROOT
HETATM    1  N   UNL     1      42.040 -14.454   3.307  1.00  0.00    -0.308 N 
HETATM    2  C   UNL     1      40.752 -14.104   3.652  1.00  0.00     0.323 C 
HETATM    3  N   UNL     1      40.175 -13.158   2.820  1.00  0.00    -0.325 N 
HETATM    4  C   UNL     1      40.882 -12.267   1.898  1.00  0.00     0.126 C 
HETATM    5  C   UNL     1      40.185 -10.919   2.146  1.00  0.00     0.032 C 
HETATM    6  C   UNL     1      38.738 -11.323   2.396  1.00  0.00     0.022 C 
HETATM    7  C   UNL     1      38.896 -12.586   3.224  1.00  0.00     0.128 C 
HETATM    8  O   UNL     1      40.140 -14.571   4.609  1.00  0.00    -0.247 OA
HETATM    9  H   UNL     1      42.123 -14.620   2.316  1.00  0.00     0.170 HD
ENDROOT
BRANCH   1  10
HETATM   10  C   UNL     1      42.848 -15.260   4.151  1.00  0.00     0.049 A 
HETATM   11  C   UNL     1      43.380 -14.690   5.334  1.00  0.00    -0.031 A 
HETATM   12  C   UNL     1      44.186 -15.474   6.178  1.00  0.00     0.009 A 
HETATM   13  C   UNL     1      44.468 -16.797   5.867  1.00  0.00     0.001 A 
HETATM   14  C   UNL     1      43.924 -17.365   4.721  1.00  0.00     0.009 A 
HETATM   15  C   UNL     1      43.089 -16.626   3.856  1.00  0.00    -0.031 A 
BRANCH  11  16
HETATM   16  C   UNL     1      43.169 -13.245   5.731  1.00  0.00     0.036 C 
HETATM   17  C   UNL     1      44.213 -12.768   6.729  1.00  0.00     0.010 C 
ENDBRANCH  11  16
BRANCH  15  18
HETATM   18  C   UNL     1      42.505 -17.391   2.681  1.00  0.00     0.036 C 
HETATM   19  C   UNL     1      43.190 -18.710   2.341  1.00  0.00     0.010 C 
ENDBRANCH  15  18
ENDBRANCH   1  10
BRANCH   4  20
HETATM   20  C   UNL     1      40.778 -12.722   0.458  1.00  0.00     0.014 A 
HETATM   21  C   UNL     1      40.394 -13.983  -0.104  1.00  0.00     0.061 A 
HETATM   22  C   UNL     1      39.973 -15.242   0.564  1.00  0.00     0.073 C 
HETATM   23  N   UNL     1      40.430 -13.966  -1.442  1.00  0.00    -0.179 NA
HETATM   24  N   UNL     1      40.804 -12.725  -1.750  1.00  0.00    -0.282 N 
HETATM   25  H   UNL     1      40.871 -12.476  -2.732  1.00  0.00     0.189 HD
HETATM   26  C   UNL     1      41.050 -11.941  -0.662  1.00  0.00     0.034 A 
HETATM   27  C   UNL     1      41.483 -10.531  -0.822  1.00  0.00     0.070 C 
ENDBRANCH   4  20
TORSDOF 4
ENDMDL
MODEL 3
REMARK VINA RESULT:      -7.5      2.502      5.138
REMARK  4 active torsions:
REMARK  status: ('A' for Active; 'I' for Inactive)
REMARK    1  A    between atoms: C_2  and  C_3 
REMARK    2  A    between atoms: C_4  and  N_5 
REMARK       I    between atoms: N_5  and  C_6 
REMARK       I    between atoms: C_6  and  N_7 
REMARK    3  A    between atoms: C_8  and  C_9 
REMARK    4  A    between atoms: C_21  and  C_22 
ROOT
HETATM    1  N   UNL     1      42.423 -14.357   4.123  1.00  0.00    -0.308 N 
HETATM    2  C   UNL     1      42.807 -13.380   3.230  1.00  0.00     0.323 C 
HETATM    3  N   UNL     1      42.157 -12.167   3.395  1.00  0.00    -0.325 N 
HETATM    4  C   UNL     1      40.910 -11.944   4.129  1.00  0.00     0.126 C 
HETATM    5  C   UNL     1      40.133 -11.018   3.180  1.00  0.00     0.032 C 
HETATM    6  C   UNL     1      41.228 -10.148   2.577  1.00  0.00     0.022 C 
HETATM    7  C   UNL     1      42.355 -11.145   2.375  1.00  0.00     0.128 C 
HETATM    8  O   UNL     1      43.649 -13.538   2.349  1.00  0.00    -0.247 OA
HETATM    9  H   UNL     1      42.380 -13.997   5.065  1.00  0.00     0.170 HD
ENDROOT
BRANCH   1  10
HETATM   10  C   UNL     1      42.841 -15.706   3.982  1.00  0.00     0.049 A 
HETATM   11  C   UNL     1      43.654 -16.277   4.992  1.00  0.00    -0.031 A 
HETATM   12  C   UNL     1      44.080 -17.610   4.865  1.00  0.00     0.009 A 
HETATM   13  C   UNL     1      43.717 -18.373   3.764  1.00  0.00     0.001 A 
HETATM   14  C   UNL     1      42.898 -17.822   2.786  1.00  0.00     0.009 A 
HETATM   15  C   UNL     1      42.423 -16.497   2.882  1.00  0.00    -0.031 A 
BRANCH  11  16
HETATM   16  C   UNL     1      44.141 -15.511   6.204  1.00  0.00     0.036 C 
HETATM   17  C   UNL     1      43.235 -15.714   7.409  1.00  0.00     0.010 C 
ENDBRANCH  11  16
BRANCH  15  18
HETATM   18  C   UNL     1      41.477 -16.047   1.781  1.00  0.00     0.036 C 
HETATM   19  C   UNL     1      40.033 -15.807   2.205  1.00  0.00     0.010 C 
ENDBRANCH  15  18
ENDBRANCH   1  10
BRANCH   4  20
HETATM   20  C   UNL     1      41.142 -11.324   5.490  1.00  0.00     0.014 A 
HETATM   21  C   UNL     1      42.355 -10.998   6.181  1.00  0.00     0.061 A 
HETATM   22  C   UNL     1      43.771 -11.169   5.765  1.00  0.00     0.073 C 
HETATM   23  N   UNL     1      42.116 -10.450   7.379  1.00  0.00    -0.179 NA
HETATM   24  N   UNL     1      40.787 -10.395   7.463  1.00  0.00    -0.282 N 
HETATM   25  H   UNL     1      40.377  -9.982   8.294  1.00  0.00     0.189 HD
HETATM   26  C   UNL     1      40.148 -10.923   6.380  1.00  0.00     0.034 A 
HETATM   27  C   UNL     1      38.667 -10.950   6.309  1.00  0.00     0.070 C 
ENDBRANCH   4  20
TORSDOF 4
ENDMDL
MODEL 4
REMARK VINA RESULT:      -7.4      4.567      7.458
REMARK  4 active torsions:
REMARK  status: ('A' for Active; 'I' for Inactive)
REMARK    1  A    between atoms: C_2  and  C_3 
REMARK    2  A    between atoms: C_4  and  N_5 
REMARK       I    between atoms: N_5  and  C_6 
REMARK       I    between atoms: C_6  and  N_7 
REMARK    3  A    between atoms: C_8  and  C_9 
REMARK    4  A    between atoms: C_21  and  C_22 
ROOT
HETATM    1  N   UNL     1      42.512 -10.289   8.358  1.00  0.00    -0.308 N 
HETATM    2  C   UNL     1      42.290  -9.530   7.229  1.00  0.00     0.323 C 
HETATM    3  N   UNL     1      42.135 -10.268   6.066  1.00  0.00    -0.325 N 
HETATM    4  C   UNL     1      42.538 -11.661   5.862  1.00  0.00     0.126 C 
HETATM    5  C   UNL     1      43.202 -11.611   4.477  1.00  0.00     0.032 C 
HETATM    6  C   UNL     1      42.359 -10.587   3.729  1.00  0.00     0.022 C 
HETATM    7  C   UNL     1      42.095  -9.543   4.801  1.00  0.00     0.128 C 
HETATM    8  O   UNL     1      42.230  -8.303   7.219  1.00  0.00    -0.247 OA
HETATM    9  H   UNL     1      41.877 -11.071   8.406  1.00  0.00     0.170 HD
ENDROOT
BRANCH   1  10
HETATM   10  C   UNL     1      42.880  -9.699   9.596  1.00  0.00     0.049 A 
HETATM   11  C   UNL     1      41.857  -9.261  10.473  1.00  0.00    -0.031 A 
HETATM   12  C   UNL     1      42.205  -8.671  11.700  1.00  0.00     0.009 A 
HETATM   13  C   UNL     1      43.535  -8.509  12.062  1.00  0.00     0.001 A 
HETATM   14  C   UNL     1      44.538  -8.962  11.214  1.00  0.00     0.009 A 
HETATM   15  C   UNL     1      44.239  -9.585   9.983  1.00  0.00    -0.031 A 
BRANCH  11  16
HETATM   16  C   UNL     1      40.382  -9.350  10.145  1.00  0.00     0.036 C 
HETATM   17  C   UNL     1      39.591 -10.031  11.251  1.00  0.00     0.010 C 
ENDBRANCH  11  16
BRANCH  15  18
HETATM   18  C   UNL     1      45.429 -10.097   9.190  1.00  0.00     0.036 C 
HETATM   19  C   UNL     1      46.050  -9.108   8.211  1.00  0.00     0.010 C 
ENDBRANCH  15  18
ENDBRANCH   1  10
BRANCH   4  20
HETATM   20  C   UNL     1      41.364 -12.615   5.913  1.00  0.00     0.014 A 
HETATM   21  C   UNL     1      39.970 -12.381   6.148  1.00  0.00     0.061 A 
HETATM   22  C   UNL     1      39.243 -11.113   6.414  1.00  0.00     0.073 C 
HETATM   23  N   UNL     1      39.258 -13.513   6.102  1.00  0.00    -0.179 NA
HETATM   24  N   UNL     1      40.152 -14.460   5.822  1.00  0.00    -0.282 N 
HETATM   25  H   UNL     1      39.821 -15.413   5.712  1.00  0.00     0.189 HD
HETATM   26  C   UNL     1      41.430 -13.993   5.722  1.00  0.00     0.034 A 
HETATM   27  C   UNL     1      42.554 -14.913   5.420  1.00  0.00     0.070 C 
ENDBRANCH   4  20
TORSDOF 4
ENDMDL
MODEL 5
REMARK VINA RESULT:      -7.3      4.419      7.315
REMARK  4 active torsions:
REMARK  status: ('A' for Active; 'I' for Inactive)
REMARK    1  A    between atoms: C_2  and  C_3 
REMARK    2  A    between atoms: C_4  and  N_5 
REMARK       I    between atoms: N_5  and  C_6 
REMARK       I    between atoms: C_6  and  N_7 
REMARK    3  A    between atoms: C_8  and  C_9 
REMARK    4  A    between atoms: C_21  and  C_22 
ROOT
HETATM    1  N   UNL     1      42.627 -10.454   8.233  1.00  0.00    -0.308 N 
HETATM    2  C   UNL     1      42.400  -9.723   7.086  1.00  0.00     0.323 C 
HETATM    3  N   UNL     1      42.260 -10.487   5.939  1.00  0.00    -0.325 N 
HETATM    4  C   UNL     1      42.681 -11.879   5.767  1.00  0.00     0.126 C 
HETATM    5  C   UNL     1      43.352 -11.850   4.384  1.00  0.00     0.032 C 
HETATM    6  C   UNL     1      42.499 -10.853   3.611  1.00  0.00     0.022 C 
HETATM    7  C   UNL     1      42.218  -9.791   4.659  1.00  0.00     0.128 C 
HETATM    8  O   UNL     1      42.325  -8.497   7.050  1.00  0.00    -0.247 OA
HETATM    9  H   UNL     1      42.001 -11.243   8.295  1.00  0.00     0.170 HD
ENDROOT
BRANCH   1  10
HETATM   10  C   UNL     1      42.981  -9.833   9.459  1.00  0.00     0.049 A 
HETATM   11  C   UNL     1      44.354  -9.704   9.786  1.00  0.00    -0.031 A 
HETATM   12  C   UNL     1      44.721  -9.095  10.999  1.00  0.00     0.009 A 
HETATM   13  C   UNL     1      43.758  -8.622  11.880  1.00  0.00     0.001 A 
HETATM   14  C   UNL     1      42.413  -8.725  11.547  1.00  0.00     0.009 A 
HETATM   15  C   UNL     1      41.995  -9.304  10.330  1.00  0.00    -0.031 A 
BRANCH  11  16
HETATM   16  C   UNL     1      45.472 -10.231   8.913  1.00  0.00     0.036 C 
HETATM   17  C   UNL     1      46.135  -9.127   8.104  1.00  0.00     0.010 C 
ENDBRANCH  11  16
BRANCH  15  18
HETATM   18  C   UNL     1      40.500  -9.285  10.062  1.00  0.00     0.036 C 
HETATM   19  C   UNL     1      39.626  -9.932  11.130  1.00  0.00     0.010 C 
ENDBRANCH  15  18
ENDBRANCH   1  10
BRANCH   4  20
HETATM   20  C   UNL     1      41.520 -12.847   5.834  1.00  0.00     0.014 A 
HETATM   21  C   UNL     1      40.130 -12.633   6.114  1.00  0.00     0.061 A 
HETATM   22  C   UNL     1      39.399 -11.378   6.426  1.00  0.00     0.073 C 
HETATM   23  N   UNL     1      39.429 -13.771   6.066  1.00  0.00    -0.179 NA
HETATM   24  N   UNL     1      40.325 -14.703   5.742  1.00  0.00    -0.282 N 
HETATM   25  H   UNL     1      40.001 -15.657   5.622  1.00  0.00     0.189 HD
HETATM   26  C   UNL     1      41.594 -14.220   5.613  1.00  0.00     0.034 A 
HETATM   27  C   UNL     1      42.718 -15.121   5.260  1.00  0.00     0.070 C 
ENDBRANCH   4  20
TORSDOF 4
ENDMDL
MODEL 6
REMARK VINA RESULT:      -7.2      6.444      9.742
REMARK  4 active torsions:
REMARK  status: ('A' for Active; 'I' for Inactive)
REMARK    1  A    between atoms: C_2  and  C_3 
REMARK    2  A    between atoms: C_4  and  N_5 
REMARK       I    between atoms: N_5  and  C_6 
REMARK       I    between atoms: C_6  and  N_7 
REMARK    3  A    between atoms: C_8  and  C_9 
REMARK    4  A    between atoms: C_21  and  C_22 
ROOT
HETATM    1  N   UNL     1      42.748  -9.849   8.699  1.00  0.00    -0.308 N 
HETATM    2  C   UNL     1      42.092  -8.673   8.405  1.00  0.00     0.323 C 
HETATM    3  N   UNL     1      41.036  -8.380   9.253  1.00  0.00    -0.325 N 
HETATM    4  C   UNL     1      40.348  -9.322  10.138  1.00  0.00     0.126 C 
HETATM    5  C   UNL     1      38.870  -8.967   9.909  1.00  0.00     0.032 C 
HETATM    6  C   UNL     1      38.906  -7.456   9.722  1.00  0.00     0.022 C 
HETATM    7  C   UNL     1      40.167  -7.265   8.897  1.00  0.00     0.128 C 
HETATM    8  O   UNL     1      42.392  -7.925   7.477  1.00  0.00    -0.247 OA
HETATM    9  H   UNL     1      42.933  -9.930   9.687  1.00  0.00     0.170 HD
ENDROOT
BRANCH   1  10
HETATM   10  C   UNL     1      43.726 -10.399   7.828  1.00  0.00     0.049 A 
HETATM   11  C   UNL     1      45.096 -10.195   8.126  1.00  0.00    -0.031 A 
HETATM   12  C   UNL     1      46.076 -10.729   7.272  1.00  0.00     0.009 A 
HETATM   13  C   UNL     1      45.719 -11.449   6.140  1.00  0.00     0.001 A 
HETATM   14  C   UNL     1      44.376 -11.671   5.861  1.00  0.00     0.009 A 
HETATM   15  C   UNL     1      43.356 -11.179   6.703  1.00  0.00    -0.031 A 
BRANCH  11  16
HETATM   16  C   UNL     1      45.581  -9.384   9.309  1.00  0.00     0.036 C 
HETATM   17  C   UNL     1      45.316 -10.087  10.631  1.00  0.00     0.010 C 
ENDBRANCH  11  16
BRANCH  15  18
HETATM   18  C   UNL     1      41.936 -11.557   6.320  1.00  0.00     0.036 C 
HETATM   19  C   UNL     1      41.752 -12.962   5.756  1.00  0.00     0.010 C 
ENDBRANCH  15  18
ENDBRANCH   1  10
BRANCH   4  20
HETATM   20  C   UNL     1      40.768  -9.169  11.584  1.00  0.00     0.014 A 
HETATM   21  C   UNL     1      41.724  -8.296  12.200  1.00  0.00     0.061 A 
HETATM   22  C   UNL     1      42.601  -7.259  11.597  1.00  0.00     0.073 C 
HETATM   23  N   UNL     1      41.790  -8.480  13.524  1.00  0.00    -0.179 NA
HETATM   24  N   UNL     1      40.888  -9.428  13.775  1.00  0.00    -0.282 N 
HETATM   25  H   UNL     1      40.748  -9.711  14.739  1.00  0.00     0.189 HD
HETATM   26  C   UNL     1      40.263  -9.899  12.658  1.00  0.00     0.034 A 
HETATM   27  C   UNL     1      39.234 -10.963  12.754  1.00  0.00     0.070 C 
ENDBRANCH   4  20
TORSDOF 4
ENDMDL
MODEL 7
REMARK VINA RESULT:      -7.1     15.384     17.487
REMARK  4 active torsions:
REMARK  status: ('A' for Active; 'I' for Inactive)
REMARK    1  A    between atoms: C_2  and  C_3 
REMARK    2  A    between atoms: C_4  and  N_5 
REMARK       I    between atoms: N_5  and  C_6 
REMARK       I    between atoms: C_6  and  N_7 
REMARK    3  A    between atoms: C_8  and  C_9 
REMARK    4  A    between atoms: C_21  and  C_22 
ROOT
HETATM    1  N   UNL     1      47.413 -30.171   1.433  1.00  0.00    -0.308 N 
HETATM    2  C   UNL     1      46.925 -28.980   0.942  1.00  0.00     0.323 C 
HETATM    3  N   UNL     1      45.922 -29.119  -0.005  1.00  0.00    -0.325 N 
HETATM    4  C   UNL     1      45.613 -30.329  -0.769  1.00  0.00     0.126 C 
HETATM    5  C   UNL     1      45.410 -29.777  -2.189  1.00  0.00     0.032 C 
HETATM    6  C   UNL     1      44.744 -28.430  -1.941  1.00  0.00     0.022 C 
HETATM    7  C   UNL     1      45.490 -27.924  -0.718  1.00  0.00     0.128 C 
HETATM    8  O   UNL     1      47.323 -27.871   1.291  1.00  0.00    -0.247 OA
HETATM    9  H   UNL     1      46.665 -30.808   1.664  1.00  0.00     0.170 HD
ENDROOT
BRANCH   1  10
HETATM   10  C   UNL     1      48.564 -30.224   2.262  1.00  0.00     0.049 A 
HETATM   11  C   UNL     1      48.390 -30.300   3.666  1.00  0.00    -0.031 A 
HETATM   12  C   UNL     1      49.520 -30.349   4.501  1.00  0.00     0.009 A 
HETATM   13  C   UNL     1      50.802 -30.320   3.969  1.00  0.00     0.001 A 
HETATM   14  C   UNL     1      50.973 -30.272   2.590  1.00  0.00     0.009 A 
HETATM   15  C   UNL     1      49.870 -30.248   1.710  1.00  0.00    -0.031 A 
BRANCH  11  16
HETATM   16  C   UNL     1      47.035 -30.288   4.340  1.00  0.00     0.036 C 
HETATM   17  C   UNL     1      46.976 -31.245   5.521  1.00  0.00     0.010 C 
ENDBRANCH  11  16
BRANCH  15  18
HETATM   18  C   UNL     1      50.201 -30.270   0.228  1.00  0.00     0.036 C 
HETATM   19  C   UNL     1      51.272 -31.269  -0.199  1.00  0.00     0.010 C 
ENDBRANCH  15  18
ENDBRANCH   1  10
BRANCH   4  20
HETATM   20  C   UNL     1      44.391 -31.050  -0.241  1.00  0.00     0.014 A 
HETATM   21  C   UNL     1      43.505 -30.733   0.839  1.00  0.00     0.061 A 
HETATM   22  C   UNL     1      43.515 -29.584   1.782  1.00  0.00     0.073 C 
HETATM   23  N   UNL     1      42.531 -31.642   0.971  1.00  0.00    -0.179 NA
HETATM   24  N   UNL     1      42.756 -32.517  -0.008  1.00  0.00    -0.282 N 
HETATM   25  H   UNL     1      42.109 -33.292  -0.115  1.00  0.00     0.189 HD
HETATM   26  C   UNL     1      43.864 -32.234  -0.751  1.00  0.00     0.034 A 
HETATM   27  C   UNL     1      44.267 -33.109  -1.880  1.00  0.00     0.070 C 
ENDBRANCH   4  20
TORSDOF 4
ENDMDL
MODEL 8
REMARK VINA RESULT:      -7.1      2.285      4.516
REMARK  4 active torsions:
REMARK  status: ('A' for Active; 'I' for Inactive)
REMARK    1  A    between atoms: C_2  and  C_3 
REMARK    2  A    between atoms: C_4  and  N_5 
REMARK       I    between atoms: N_5  and  C_6 
REMARK       I    between atoms: C_6  and  N_7 
REMARK    3  A    between atoms: C_8  and  C_9 
REMARK    4  A    between atoms: C_21  and  C_22 
ROOT
HETATM    1  N   UNL     1      40.932 -12.963   1.584  1.00  0.00    -0.308 N 
HETATM    2  C   UNL     1      41.285 -11.730   1.079  1.00  0.00     0.323 C 
HETATM    3  N   UNL     1      40.941 -11.537  -0.250  1.00  0.00    -0.325 N 
HETATM    4  C   UNL     1      40.605 -12.581  -1.220  1.00  0.00     0.126 C 
HETATM    5  C   UNL     1      41.389 -12.136  -2.465  1.00  0.00     0.032 C 
HETATM    6  C   UNL     1      41.295 -10.617  -2.404  1.00  0.00     0.022 C 
HETATM    7  C   UNL     1      41.451 -10.346  -0.918  1.00  0.00     0.128 C 
HETATM    8  O   UNL     1      41.857 -10.855   1.724  1.00  0.00    -0.247 OA
HETATM    9  H   UNL     1      39.988 -13.209   1.325  1.00  0.00     0.170 HD
ENDROOT
BRANCH   1  10
HETATM   10  C   UNL     1      41.371 -13.403   2.860  1.00  0.00     0.049 A 
HETATM   11  C   UNL     1      40.582 -13.095   3.996  1.00  0.00    -0.031 A 
HETATM   12  C   UNL     1      41.006 -13.520   5.267  1.00  0.00     0.009 A 
HETATM   13  C   UNL     1      42.186 -14.233   5.424  1.00  0.00     0.001 A 
HETATM   14  C   UNL     1      42.947 -14.558   4.307  1.00  0.00     0.009 A 
HETATM   15  C   UNL     1      42.550 -14.177   3.007  1.00  0.00    -0.031 A 
BRANCH  11  16
HETATM   16  C   UNL     1      39.307 -12.282   3.931  1.00  0.00     0.036 C 
HETATM   17  C   UNL     1      39.501 -10.872   4.468  1.00  0.00     0.010 C 
ENDBRANCH  11  16
BRANCH  15  18
HETATM   18  C   UNL     1      43.435 -14.661   1.872  1.00  0.00     0.036 C 
HETATM   19  C   UNL     1      43.307 -16.137   1.513  1.00  0.00     0.010 C 
ENDBRANCH  15  18
ENDBRANCH   1  10
BRANCH   4  20
HETATM   20  C   UNL     1      39.116 -12.680  -1.471  1.00  0.00     0.014 A 
HETATM   21  C   UNL     1      38.048 -11.771  -1.172  1.00  0.00     0.061 A 
HETATM   22  C   UNL     1      38.081 -10.437  -0.518  1.00  0.00     0.073 C 
HETATM   23  N   UNL     1      36.862 -12.244  -1.572  1.00  0.00    -0.179 NA
HETATM   24  N   UNL     1      37.143 -13.417  -2.138  1.00  0.00    -0.282 N 
HETATM   25  H   UNL     1      36.379 -13.948  -2.543  1.00  0.00     0.189 HD
HETATM   26  C   UNL     1      38.466 -13.746  -2.088  1.00  0.00     0.034 A 
HETATM   27  C   UNL     1      38.955 -15.022  -2.666  1.00  0.00     0.070 C 
ENDBRANCH   4  20
TORSDOF 4
ENDMDL
MODEL 9
REMARK VINA RESULT:      -7.0      2.345      6.411
REMARK  4 active torsions:
REMARK  status: ('A' for Active; 'I' for Inactive)
REMARK    1  A    between atoms: C_2  and  C_3 
REMARK    2  A    between atoms: C_4  and  N_5 
REMARK       I    between atoms: N_5  and  C_6 
REMARK       I    between atoms: C_6  and  N_7 
REMARK    3  A    between atoms: C_8  and  C_9 
REMARK    4  A    between atoms: C_21  and  C_22 
ROOT
HETATM    1  N   UNL     1      40.391 -12.557   1.980  1.00  0.00    -0.308 N 
HETATM    2  C   UNL     1      41.588 -11.887   2.119  1.00  0.00     0.323 C 
HETATM    3  N   UNL     1      42.369 -12.325   3.176  1.00  0.00    -0.325 N 
HETATM    4  C   UNL     1      41.915 -13.118   4.320  1.00  0.00     0.126 C 
HETATM    5  C   UNL     1      42.598 -12.409   5.501  1.00  0.00     0.032 C 
HETATM    6  C   UNL     1      43.938 -11.984   4.918  1.00  0.00     0.022 C 
HETATM    7  C   UNL     1      43.553 -11.545   3.515  1.00  0.00     0.128 C 
HETATM    8  O   UNL     1      41.959 -10.974   1.386  1.00  0.00    -0.247 OA
HETATM    9  H   UNL     1      40.517 -13.555   2.059  1.00  0.00     0.170 HD
ENDROOT
BRANCH   1  10
HETATM   10  C   UNL     1      39.388 -12.118   1.077  1.00  0.00     0.049 A 
HETATM   11  C   UNL     1      39.298 -12.736  -0.195  1.00  0.00    -0.031 A 
HETATM   12  C   UNL     1      38.313 -12.310  -1.103  1.00  0.00     0.009 A 
HETATM   13  C   UNL     1      37.430 -11.292  -0.771  1.00  0.00     0.001 A 
HETATM   14  C   UNL     1      37.501 -10.704   0.487  1.00  0.00     0.009 A 
HETATM   15  C   UNL     1      38.454 -11.115   1.442  1.00  0.00    -0.031 A 
BRANCH  11  16
HETATM   16  C   UNL     1      40.246 -13.819  -0.665  1.00  0.00     0.036 C 
HETATM   17  C   UNL     1      40.184 -14.018  -2.172  1.00  0.00     0.010 C 
ENDBRANCH  11  16
BRANCH  15  18
HETATM   18  C   UNL     1      38.372 -10.439   2.799  1.00  0.00     0.036 C 
HETATM   19  C   UNL     1      39.085  -9.097   2.917  1.00  0.00     0.010 C 
ENDBRANCH  15  18
ENDBRANCH   1  10
BRANCH   4  20
HETATM   20  C   UNL     1      42.309 -14.575   4.206  1.00  0.00     0.014 A 
HETATM   21  C   UNL     1      42.969 -15.293   3.156  1.00  0.00     0.061 A 
HETATM   22  C   UNL     1      43.477 -14.818   1.843  1.00  0.00     0.073 C 
HETATM   23  N   UNL     1      43.135 -16.586   3.461  1.00  0.00    -0.179 NA
HETATM   24  N   UNL     1      42.622 -16.710   4.684  1.00  0.00    -0.282 N 
HETATM   25  H   UNL     1      42.666 -17.619   5.132  1.00  0.00     0.189 HD
HETATM   26  C   UNL     1      42.091 -15.553   5.174  1.00  0.00     0.034 A 
HETATM   27  C   UNL     1      41.471 -15.512   6.521  1.00  0.00     0.070 C 
ENDBRANCH   4  20
TORSDOF 4
ENDMDL
MODEL 10
REMARK VINA RESULT:      -6.9      2.583      4.461
REMARK  4 active torsions:
REMARK  status: ('A' for Active; 'I' for Inactive)
REMARK    1  A    between atoms: C_2  and  C_3 
REMARK    2  A    between atoms: C_4  and  N_5 
REMARK       I    between atoms: N_5  and  C_6 
REMARK       I    between atoms: C_6  and  N_7 
REMARK    3  A    between atoms: C_8  and  C_9 
REMARK    4  A    between atoms: C_21  and  C_22 
ROOT
HETATM    1  N   UNL     1      40.291 -13.109   0.940  1.00  0.00    -0.308 N 
HETATM    2  C   UNL     1      40.898 -11.989   0.414  1.00  0.00     0.323 C 
HETATM    3  N   UNL     1      40.684 -11.806  -0.942  1.00  0.00    -0.325 N 
HETATM    4  C   UNL     1      40.224 -12.820  -1.893  1.00  0.00     0.126 C 
HETATM    5  C   UNL     1      41.156 -12.591  -3.094  1.00  0.00     0.032 C 
HETATM    6  C   UNL     1      41.341 -11.079  -3.099  1.00  0.00     0.022 C 
HETATM    7  C   UNL     1      41.448 -10.764  -1.617  1.00  0.00     0.128 C 
HETATM    8  O   UNL     1      41.580 -11.201   1.065  1.00  0.00    -0.247 OA
HETATM    9  H   UNL     1      39.337 -13.192   0.623  1.00  0.00     0.170 HD
ENDROOT
BRANCH   1  10
HETATM   10  C   UNL     1      40.557 -13.555   2.261  1.00  0.00     0.049 A 
HETATM   11  C   UNL     1      41.499 -14.595   2.453  1.00  0.00    -0.031 A 
HETATM   12  C   UNL     1      41.771 -15.051   3.754  1.00  0.00     0.009 A 
HETATM   13  C   UNL     1      41.127 -14.498   4.852  1.00  0.00     0.001 A 
HETATM   14  C   UNL     1      40.222 -13.460   4.667  1.00  0.00     0.009 A 
HETATM   15  C   UNL     1      39.936 -12.950   3.383  1.00  0.00    -0.031 A 
BRANCH  11  16
HETATM   16  C   UNL     1      42.215 -15.292   1.315  1.00  0.00     0.036 C 
HETATM   17  C   UNL     1      43.166 -16.370   1.814  1.00  0.00     0.010 C 
ENDBRANCH  11  16
BRANCH  15  18
HETATM   18  C   UNL     1      38.984 -11.767   3.333  1.00  0.00     0.036 C 
HETATM   19  C   UNL     1      39.277 -10.637   4.314  1.00  0.00     0.010 C 
ENDBRANCH  15  18
ENDBRANCH   1  10
BRANCH   4  20
HETATM   20  C   UNL     1      38.761 -12.659  -2.248  1.00  0.00     0.014 A 
HETATM   21  C   UNL     1      37.848 -11.580  -2.010  1.00  0.00     0.061 A 
HETATM   22  C   UNL     1      38.063 -10.274  -1.335  1.00  0.00     0.073 C 
HETATM   23  N   UNL     1      36.629 -11.840  -2.499  1.00  0.00    -0.179 NA
HETATM   24  N   UNL     1      36.744 -13.041  -3.063  1.00  0.00    -0.282 N 
HETATM   25  H   UNL     1      35.930 -13.431  -3.528  1.00  0.00     0.189 HD
HETATM   26  C   UNL     1      37.983 -13.595  -2.926  1.00  0.00     0.034 A 
HETATM   27  C   UNL     1      38.285 -14.933  -3.489  1.00  0.00     0.070 C 
ENDBRANCH   4  20
TORSDOF 4
ENDMDL
