MODEL 1
REMARK VINA RESULT:      -9.1      0.000      0.000
REMARK  6 active torsions:
REMARK  status: ('A' for Active; 'I' for Inactive)
REMARK    1  A    between atoms: C_5  and  C_6 
REMARK    2  A    between atoms: C_11  and  C_12 
REMARK       I    between atoms: C_12  and  N_13 
REMARK    3  A    between atoms: N_13  and  C_14 
REMARK    4  A    between atoms: C_17  and  C_18 
REMARK    5  A    between atoms: C_18  and  O_19 
REMARK    6  A    between atoms: C_25  and  C_26 
ROOT
HETATM    1  C   UNL     1      44.349  -9.350   8.941  1.00  0.00     0.118 C 
HETATM    2  N   UNL     1      44.573 -10.739   8.563  1.00  0.00    -0.366 N 
HETATM    3  C   UNL     1      43.814 -11.379   7.652  1.00  0.00     0.123 A 
HETATM    4  N   UNL     1      42.819 -10.744   6.963  1.00  0.00    -0.240 N 
HETATM    5  N   UNL     1      42.224 -11.512   6.028  1.00  0.00    -0.165 NA
HETATM    6  C   UNL     1      42.812 -12.720   6.195  1.00  0.00     0.148 A 
HETATM    7  C   UNL     1      43.814 -12.672   7.204  1.00  0.00     0.089 A 
HETATM    8  C   UNL     1      42.456  -9.355   7.161  1.00  0.00     0.221 C 
HETATM    9  C   UNL     1      43.610  -8.583   7.829  1.00  0.00     0.066 C 
HETATM   10  H   UNL     1      45.228 -11.250   9.153  1.00  0.00     0.161 HD
ENDROOT
BRANCH   6  11
HETATM   11  C   UNL     1      42.442 -13.902   5.395  1.00  0.00     0.276 C 
HETATM   12  N   UNL     1      43.522 -14.733   5.164  1.00  0.00    -0.322 N 
HETATM   13  H   UNL     1      44.386 -14.401   5.583  1.00  0.00     0.169 HD
HETATM   14  O   UNL     1      41.288 -14.075   5.019  1.00  0.00    -0.266 OA
BRANCH  12  15
HETATM   15  C   UNL     1      43.545 -15.951   4.463  1.00  0.00     0.035 A 
HETATM   16  C   UNL     1      43.145 -16.089   3.133  1.00  0.00     0.030 A 
HETATM   17  C   UNL     1      43.184 -17.340   2.505  1.00  0.00     0.012 A 
HETATM   18  C   UNL     1      43.625 -18.478   3.192  1.00  0.00    -0.030 A 
HETATM   19  C   UNL     1      44.028 -18.335   4.525  1.00  0.00     0.012 A 
HETATM   20  C   UNL     1      43.993 -17.082   5.151  1.00  0.00     0.030 A 
BRANCH  18  21
HETATM   21  C   UNL     1      43.625 -19.839   2.533  1.00  0.00     0.147 C 
HETATM   22  C   UNL     1      43.860 -20.950   3.550  1.00  0.00     0.044 C 
BRANCH  21  23
HETATM   23  O   UNL     1      42.377 -20.059   1.877  1.00  0.00    -0.391 OA
HETATM   24  H   UNL     1      42.148 -20.993   2.004  1.00  0.00     0.210 HD
ENDBRANCH  21  23
ENDBRANCH  18  21
ENDBRANCH  12  15
ENDBRANCH   6  11
BRANCH   8  25
HETATM   25  C   UNL     1      41.143  -9.258   7.903  1.00  0.00     0.409 C 
HETATM   26  F   UNL     1      41.046 -10.085   8.958  1.00  0.00    -0.169 F 
HETATM   27  F   UNL     1      40.958  -7.994   8.363  1.00  0.00    -0.169 F 
HETATM   28  F   UNL     1      40.090  -9.518   7.089  1.00  0.00    -0.169 F 
ENDBRANCH   8  25
BRANCH   1  29
HETATM   29  C   UNL     1      43.753  -9.211  10.331  1.00  0.00    -0.035 A 
HETATM   30  C   UNL     1      43.591 -10.361  11.123  1.00  0.00     0.010 A 
HETATM   31  C   UNL     1      43.006 -10.287  12.392  1.00  0.00     0.007 A 
HETATM   32  C   UNL     1      42.566  -9.062  12.900  1.00  0.00    -0.062 A 
HETATM   33  C   UNL     1      41.956  -8.966  14.265  1.00  0.00     0.048 C 
HETATM   34  C   UNL     1      42.739  -7.911  12.127  1.00  0.00     0.007 A 
HETATM   35  C   UNL     1      43.317  -7.986  10.856  1.00  0.00     0.010 A 
ENDBRANCH   1  29
TORSDOF 6
ENDMDL
MODEL 2
REMARK VINA RESULT:      -8.8      3.661      9.943
REMARK  6 active torsions:
REMARK  status: ('A' for Active; 'I' for Inactive)
REMARK    1  A    between atoms: C_5  and  C_6 
REMARK    2  A    between atoms: C_11  and  C_12 
REMARK       I    between atoms: C_12  and  N_13 
REMARK    3  A    between atoms: N_13  and  C_14 
REMARK    4  A    between atoms: C_17  and  C_18 
REMARK    5  A    between atoms: C_18  and  O_19 
REMARK    6  A    between atoms: C_25  and  C_26 
ROOT
HETATM    1  C   UNL     1      40.544 -14.449   3.088  1.00  0.00     0.118 C 
HETATM    2  N   UNL     1      39.891 -14.030   4.322  1.00  0.00    -0.366 N 
HETATM    3  C   UNL     1      40.181 -12.869   4.942  1.00  0.00     0.123 A 
HETATM    4  N   UNL     1      41.061 -11.966   4.416  1.00  0.00    -0.240 N 
HETATM    5  N   UNL     1      41.161 -10.822   5.123  1.00  0.00    -0.165 NA
HETATM    6  C   UNL     1      40.371 -11.050   6.199  1.00  0.00     0.148 A 
HETATM    7  C   UNL     1      39.740 -12.323   6.117  1.00  0.00     0.089 A 
HETATM    8  C   UNL     1      41.790 -12.171   3.180  1.00  0.00     0.221 C 
HETATM    9  C   UNL     1      41.098 -13.239   2.313  1.00  0.00     0.066 C 
HETATM   10  H   UNL     1      39.329 -14.745   4.781  1.00  0.00     0.161 HD
ENDROOT
BRANCH   6  11
HETATM   11  C   UNL     1      40.200 -10.066   7.283  1.00  0.00     0.276 C 
HETATM   12  N   UNL     1      41.316  -9.986   8.095  1.00  0.00    -0.322 N 
HETATM   13  H   UNL     1      42.067 -10.609   7.813  1.00  0.00     0.169 HD
HETATM   14  O   UNL     1      39.166  -9.416   7.390  1.00  0.00    -0.266 OA
BRANCH  12  15
HETATM   15  C   UNL     1      41.522  -9.153   9.207  1.00  0.00     0.035 A 
HETATM   16  C   UNL     1      42.476  -8.135   9.248  1.00  0.00     0.030 A 
HETATM   17  C   UNL     1      42.632  -7.354  10.399  1.00  0.00     0.012 A 
HETATM   18  C   UNL     1      41.838  -7.571  11.532  1.00  0.00    -0.030 A 
HETATM   19  C   UNL     1      40.880  -8.591  11.486  1.00  0.00     0.012 A 
HETATM   20  C   UNL     1      40.721  -9.370  10.332  1.00  0.00     0.030 A 
BRANCH  18  21
HETATM   21  C   UNL     1      42.035  -6.761  12.793  1.00  0.00     0.147 C 
HETATM   22  C   UNL     1      43.112  -7.369  13.684  1.00  0.00     0.044 C 
BRANCH  21  23
HETATM   23  O   UNL     1      42.403  -5.424  12.457  1.00  0.00    -0.391 OA
HETATM   24  H   UNL     1      43.147  -5.479  11.836  1.00  0.00     0.210 HD
ENDBRANCH  21  23
ENDBRANCH  18  21
ENDBRANCH  12  15
ENDBRANCH   6  11
BRANCH   8  25
HETATM   25  C   UNL     1      43.244 -12.467   3.474  1.00  0.00     0.409 C 
HETATM   26  F   UNL     1      43.455 -13.051   4.665  1.00  0.00    -0.169 F 
HETATM   27  F   UNL     1      43.753 -13.292   2.523  1.00  0.00    -0.169 F 
HETATM   28  F   UNL     1      43.999 -11.342   3.437  1.00  0.00    -0.169 F 
ENDBRANCH   8  25
BRANCH   1  29
HETATM   29  C   UNL     1      41.526 -15.587   3.303  1.00  0.00    -0.035 A 
HETATM   30  C   UNL     1      41.871 -15.954   4.615  1.00  0.00     0.010 A 
HETATM   31  C   UNL     1      42.804 -16.967   4.860  1.00  0.00     0.007 A 
HETATM   32  C   UNL     1      43.420 -17.635   3.799  1.00  0.00    -0.062 A 
HETATM   33  C   UNL     1      44.408 -18.735   4.048  1.00  0.00     0.048 C 
HETATM   34  C   UNL     1      43.071 -17.290   2.491  1.00  0.00     0.007 A 
HETATM   35  C   UNL     1      42.143 -16.273   2.247  1.00  0.00     0.010 A 
ENDBRANCH   1  29
TORSDOF 6
ENDMDL
MODEL 3
REMARK VINA RESULT:      -8.7      1.972      2.903
REMARK  6 active torsions:
REMARK  status: ('A' for Active; 'I' for Inactive)
REMARK    1  A    between atoms: C_5  and  C_6 
REMARK    2  A    between atoms: C_11  and  C_12 
REMARK       I    between atoms: C_12  and  N_13 
REMARK    3  A    between atoms: N_13  and  C_14 
REMARK    4  A    between atoms: C_17  and  C_18 
REMARK    5  A    between atoms: C_18  and  O_19 
REMARK    6  A    between atoms: C_25  and  C_26 
ROOT
HETATM    1  C   UNL     1      42.802  -6.738   9.874  1.00  0.00     0.118 C 
HETATM    2  N   UNL     1      43.892  -7.554   9.354  1.00  0.00    -0.366 N 
HETATM    3  C   UNL     1      43.685  -8.699   8.674  1.00  0.00     0.123 A 
HETATM    4  N   UNL     1      42.430  -9.140   8.362  1.00  0.00    -0.240 N 
HETATM    5  N   UNL     1      42.414 -10.253   7.601  1.00  0.00    -0.165 NA
HETATM    6  C   UNL     1      43.723 -10.582   7.501  1.00  0.00     0.148 A 
HETATM    7  C   UNL     1      44.547  -9.629   8.161  1.00  0.00     0.089 A 
HETATM    8  C   UNL     1      41.211  -8.459   8.753  1.00  0.00     0.221 C 
HETATM    9  C   UNL     1      41.500  -6.984   9.092  1.00  0.00     0.066 C 
HETATM   10  H   UNL     1      44.822  -7.299   9.683  1.00  0.00     0.161 HD
ENDROOT
BRANCH   6  11
HETATM   11  C   UNL     1      44.190 -11.777   6.773  1.00  0.00     0.276 C 
HETATM   12  N   UNL     1      43.177 -12.697   6.579  1.00  0.00    -0.322 N 
HETATM   13  H   UNL     1      42.282 -12.401   6.961  1.00  0.00     0.169 HD
HETATM   14  O   UNL     1      45.353 -11.876   6.402  1.00  0.00    -0.266 OA
BRANCH  12  15
HETATM   15  C   UNL     1      43.243 -13.933   5.915  1.00  0.00     0.035 A 
HETATM   16  C   UNL     1      42.815 -14.134   4.603  1.00  0.00     0.030 A 
HETATM   17  C   UNL     1      42.900 -15.401   4.013  1.00  0.00     0.012 A 
HETATM   18  C   UNL     1      43.418 -16.493   4.721  1.00  0.00    -0.030 A 
HETATM   19  C   UNL     1      43.849 -16.286   6.037  1.00  0.00     0.012 A 
HETATM   20  C   UNL     1      43.768 -15.018   6.625  1.00  0.00     0.030 A 
BRANCH  18  21
HETATM   21  C   UNL     1      43.469 -17.873   4.105  1.00  0.00     0.147 C 
HETATM   22  C   UNL     1      43.347 -17.809   2.587  1.00  0.00     0.044 C 
BRANCH  21  23
HETATM   23  O   UNL     1      44.698 -18.511   4.451  1.00  0.00    -0.391 OA
HETATM   24  H   UNL     1      44.771 -19.308   3.902  1.00  0.00     0.210 HD
ENDBRANCH  21  23
ENDBRANCH  18  21
ENDBRANCH  12  15
ENDBRANCH   6  11
BRANCH   8  25
HETATM   25  C   UNL     1      40.520  -9.219   9.861  1.00  0.00     0.409 C 
HETATM   26  F   UNL     1      41.346  -9.970  10.610  1.00  0.00    -0.169 F 
HETATM   27  F   UNL     1      39.890  -8.355  10.698  1.00  0.00    -0.169 F 
HETATM   28  F   UNL     1      39.557 -10.041   9.377  1.00  0.00    -0.169 F 
ENDBRANCH   8  25
BRANCH   1  29
HETATM   29  C   UNL     1      42.677  -6.824  11.385  1.00  0.00    -0.035 A 
HETATM   30  C   UNL     1      42.056  -5.772  12.080  1.00  0.00     0.010 A 
HETATM   31  C   UNL     1      41.957  -5.786  13.476  1.00  0.00     0.007 A 
HETATM   32  C   UNL     1      42.481  -6.852  14.212  1.00  0.00    -0.062 A 
HETATM   33  C   UNL     1      42.366  -6.890  15.706  1.00  0.00     0.048 C 
HETATM   34  C   UNL     1      43.086  -7.911  13.529  1.00  0.00     0.007 A 
HETATM   35  C   UNL     1      43.190  -7.892  12.135  1.00  0.00     0.010 A 
ENDBRANCH   1  29
TORSDOF 6
ENDMDL
MODEL 4
REMARK VINA RESULT:      -8.6      6.309      9.950
REMARK  6 active torsions:
REMARK  status: ('A' for Active; 'I' for Inactive)
REMARK    1  A    between atoms: C_5  and  C_6 
REMARK    2  A    between atoms: C_11  and  C_12 
REMARK       I    between atoms: C_12  and  N_13 
REMARK    3  A    between atoms: N_13  and  C_14 
REMARK    4  A    between atoms: C_17  and  C_18 
REMARK    5  A    between atoms: C_18  and  O_19 
REMARK    6  A    between atoms: C_25  and  C_26 
ROOT
HETATM    1  C   UNL     1      43.576 -15.329   3.794  1.00  0.00     0.118 C 
HETATM    2  N   UNL     1      43.041 -14.694   2.597  1.00  0.00    -0.366 N 
HETATM    3  C   UNL     1      41.816 -14.136   2.553  1.00  0.00     0.123 A 
HETATM    4  N   UNL     1      41.013 -14.063   3.656  1.00  0.00    -0.240 N 
HETATM    5  N   UNL     1      39.861 -13.391   3.452  1.00  0.00    -0.165 NA
HETATM    6  C   UNL     1      39.898 -13.102   2.130  1.00  0.00     0.148 A 
HETATM    7  C   UNL     1      41.110 -13.553   1.536  1.00  0.00     0.089 A 
HETATM    8  C   UNL     1      41.369 -14.600   4.954  1.00  0.00     0.221 C 
HETATM    9  C   UNL     1      42.894 -14.788   5.063  1.00  0.00     0.066 C 
HETATM   10  H   UNL     1      43.579 -14.850   1.745  1.00  0.00     0.161 HD
ENDROOT
BRANCH   6  11
HETATM   11  C   UNL     1      38.807 -12.390   1.441  1.00  0.00     0.276 C 
HETATM   12  N   UNL     1      38.867 -12.546   0.069  1.00  0.00    -0.322 N 
HETATM   13  H   UNL     1      39.644 -13.126  -0.239  1.00  0.00     0.169 HD
HETATM   14  O   UNL     1      37.967 -11.758   2.072  1.00  0.00    -0.266 OA
BRANCH  12  15
HETATM   15  C   UNL     1      37.992 -12.033  -0.903  1.00  0.00     0.035 A 
HETATM   16  C   UNL     1      37.536 -10.714  -0.917  1.00  0.00     0.030 A 
HETATM   17  C   UNL     1      36.651 -10.279  -1.913  1.00  0.00     0.012 A 
HETATM   18  C   UNL     1      36.207 -11.151  -2.914  1.00  0.00    -0.030 A 
HETATM   19  C   UNL     1      36.670 -12.473  -2.897  1.00  0.00     0.012 A 
HETATM   20  C   UNL     1      37.557 -12.906  -1.904  1.00  0.00     0.030 A 
BRANCH  18  21
HETATM   21  C   UNL     1      35.216 -10.699  -3.963  1.00  0.00     0.147 C 
HETATM   22  C   UNL     1      34.073 -11.695  -4.115  1.00  0.00     0.044 C 
BRANCH  21  23
HETATM   23  O   UNL     1      34.684  -9.424  -3.608  1.00  0.00    -0.391 OA
HETATM   24  H   UNL     1      33.793  -9.574  -3.253  1.00  0.00     0.210 HD
ENDBRANCH  21  23
ENDBRANCH  18  21
ENDBRANCH  12  15
ENDBRANCH   6  11
BRANCH   8  25
HETATM   25  C   UNL     1      40.575 -15.855   5.237  1.00  0.00     0.409 C 
HETATM   26  F   UNL     1      40.086 -16.454   4.137  1.00  0.00    -0.169 F 
HETATM   27  F   UNL     1      41.352 -16.764   5.881  1.00  0.00    -0.169 F 
HETATM   28  F   UNL     1      39.527 -15.608   6.060  1.00  0.00    -0.169 F 
ENDBRANCH   8  25
BRANCH   1  29
HETATM   29  C   UNL     1      43.628 -16.843   3.681  1.00  0.00    -0.035 A 
HETATM   30  C   UNL     1      44.216 -17.586   4.718  1.00  0.00     0.010 A 
HETATM   31  C   UNL     1      44.325 -18.979   4.638  1.00  0.00     0.007 A 
HETATM   32  C   UNL     1      43.852 -19.663   3.516  1.00  0.00    -0.062 A 
HETATM   33  C   UNL     1      43.946 -21.156   3.424  1.00  0.00     0.048 C 
HETATM   34  C   UNL     1      43.250 -18.935   2.486  1.00  0.00     0.007 A 
HETATM   35  C   UNL     1      43.148 -17.542   2.564  1.00  0.00     0.010 A 
ENDBRANCH   1  29
TORSDOF 6
ENDMDL
MODEL 5
REMARK VINA RESULT:      -8.5     18.528     21.030
REMARK  6 active torsions:
REMARK  status: ('A' for Active; 'I' for Inactive)
REMARK    1  A    between atoms: C_5  and  C_6 
REMARK    2  A    between atoms: C_11  and  C_12 
REMARK       I    between atoms: C_12  and  N_13 
REMARK    3  A    between atoms: N_13  and  C_14 
REMARK    4  A    between atoms: C_17  and  C_18 
REMARK    5  A    between atoms: C_18  and  O_19 
REMARK    6  A    between atoms: C_25  and  C_26 
ROOT
HETATM    1  C   UNL     1      44.186 -28.893  -1.051  1.00  0.00     0.118 C 
HETATM    2  N   UNL     1      44.145 -29.611   0.216  1.00  0.00    -0.366 N 
HETATM    3  C   UNL     1      45.202 -29.681   1.049  1.00  0.00     0.123 A 
HETATM    4  N   UNL     1      46.370 -29.020   0.794  1.00  0.00    -0.240 N 
HETATM    5  N   UNL     1      47.287 -29.128   1.778  1.00  0.00    -0.165 NA
HETATM    6  C   UNL     1      46.701 -29.974   2.658  1.00  0.00     0.148 A 
HETATM    7  C   UNL     1      45.394 -30.339   2.234  1.00  0.00     0.089 A 
HETATM    8  C   UNL     1      46.607 -28.220  -0.391  1.00  0.00     0.221 C 
HETATM    9  C   UNL     1      45.273 -27.803  -1.038  1.00  0.00     0.066 C 
HETATM   10  H   UNL     1      43.326 -30.202   0.355  1.00  0.00     0.161 HD
ENDROOT
BRANCH   6  11
HETATM   11  C   UNL     1      47.366 -30.416   3.898  1.00  0.00     0.276 C 
HETATM   12  N   UNL     1      48.655 -30.858   3.669  1.00  0.00    -0.322 N 
HETATM   13  H   UNL     1      48.935 -30.802   2.693  1.00  0.00     0.169 HD
HETATM   14  O   UNL     1      46.789 -30.363   4.978  1.00  0.00    -0.266 OA
BRANCH  12  15
HETATM   15  C   UNL     1      49.589 -31.333   4.605  1.00  0.00     0.035 A 
HETATM   16  C   UNL     1      49.360 -32.420   5.447  1.00  0.00     0.030 A 
HETATM   17  C   UNL     1      50.336 -32.826   6.366  1.00  0.00     0.012 A 
HETATM   18  C   UNL     1      51.562 -32.155   6.460  1.00  0.00    -0.030 A 
HETATM   19  C   UNL     1      51.789 -31.065   5.610  1.00  0.00     0.012 A 
HETATM   20  C   UNL     1      50.814 -30.663   4.688  1.00  0.00     0.030 A 
BRANCH  18  21
HETATM   21  C   UNL     1      52.600 -32.560   7.481  1.00  0.00     0.147 C 
HETATM   22  C   UNL     1      53.564 -31.417   7.779  1.00  0.00     0.044 C 
BRANCH  21  23
HETATM   23  O   UNL     1      51.959 -32.960   8.691  1.00  0.00    -0.391 OA
HETATM   24  H   UNL     1      51.081 -32.546   8.701  1.00  0.00     0.210 HD
ENDBRANCH  21  23
ENDBRANCH  18  21
ENDBRANCH  12  15
ENDBRANCH   6  11
BRANCH   8  25
HETATM   25  C   UNL     1      47.545 -28.943  -1.330  1.00  0.00     0.409 C 
HETATM   26  F   UNL     1      47.398 -28.603  -2.623  1.00  0.00    -0.169 F 
HETATM   27  F   UNL     1      48.835 -28.686  -0.991  1.00  0.00    -0.169 F 
HETATM   28  F   UNL     1      47.397 -30.287  -1.248  1.00  0.00    -0.169 F 
ENDBRANCH   8  25
BRANCH   1  29
HETATM   29  C   UNL     1      44.215 -29.824  -2.251  1.00  0.00    -0.035 A 
HETATM   30  C   UNL     1      44.179 -29.274  -3.544  1.00  0.00     0.010 A 
HETATM   31  C   UNL     1      44.160 -30.093  -4.677  1.00  0.00     0.007 A 
HETATM   32  C   UNL     1      44.171 -31.484  -4.547  1.00  0.00    -0.062 A 
HETATM   33  C   UNL     1      44.169 -32.374  -5.753  1.00  0.00     0.048 C 
HETATM   34  C   UNL     1      44.223 -32.041  -3.266  1.00  0.00     0.007 A 
HETATM   35  C   UNL     1      44.236 -31.221  -2.133  1.00  0.00     0.010 A 
ENDBRANCH   1  29
TORSDOF 6
ENDMDL
MODEL 6
REMARK VINA RESULT:      -8.5      3.964     10.153
REMARK  6 active torsions:
REMARK  status: ('A' for Active; 'I' for Inactive)
REMARK    1  A    between atoms: C_5  and  C_6 
REMARK    2  A    between atoms: C_11  and  C_12 
REMARK       I    between atoms: C_12  and  N_13 
REMARK    3  A    between atoms: N_13  and  C_14 
REMARK    4  A    between atoms: C_17  and  C_18 
REMARK    5  A    between atoms: C_18  and  O_19 
REMARK    6  A    between atoms: C_25  and  C_26 
ROOT
HETATM    1  C   UNL     1      40.555 -14.694   3.456  1.00  0.00     0.118 C 
HETATM    2  N   UNL     1      40.098 -14.121   4.716  1.00  0.00    -0.366 N 
HETATM    3  C   UNL     1      40.475 -12.900   5.140  1.00  0.00     0.123 A 
HETATM    4  N   UNL     1      41.259 -12.078   4.381  1.00  0.00    -0.240 N 
HETATM    5  N   UNL     1      41.460 -10.859   4.921  1.00  0.00    -0.165 NA
HETATM    6  C   UNL     1      40.846 -10.946   6.125  1.00  0.00     0.148 A 
HETATM    7  C   UNL     1      40.217 -12.210   6.294  1.00  0.00     0.089 A 
HETATM    8  C   UNL     1      41.790 -12.439   3.081  1.00  0.00     0.221 C 
HETATM    9  C   UNL     1      40.978 -13.594   2.466  1.00  0.00     0.066 C 
HETATM   10  H   UNL     1      39.616 -14.769   5.338  1.00  0.00     0.161 HD
ENDROOT
BRANCH   6  11
HETATM   11  C   UNL     1      40.840  -9.836   7.096  1.00  0.00     0.276 C 
HETATM   12  N   UNL     1      39.966 -10.066   8.143  1.00  0.00    -0.322 N 
HETATM   13  H   UNL     1      39.479 -10.955   8.076  1.00  0.00     0.169 HD
HETATM   14  O   UNL     1      41.558  -8.856   6.941  1.00  0.00    -0.266 OA
BRANCH  12  15
HETATM   15  C   UNL     1      39.710  -9.246   9.255  1.00  0.00     0.035 A 
HETATM   16  C   UNL     1      38.973  -8.063   9.194  1.00  0.00     0.030 A 
HETATM   17  C   UNL     1      38.771  -7.291  10.345  1.00  0.00     0.012 A 
HETATM   18  C   UNL     1      39.300  -7.686  11.580  1.00  0.00    -0.030 A 
HETATM   19  C   UNL     1      40.038  -8.875  11.637  1.00  0.00     0.012 A 
HETATM   20  C   UNL     1      40.235  -9.649  10.487  1.00  0.00     0.030 A 
BRANCH  18  21
HETATM   21  C   UNL     1      39.125  -6.833  12.816  1.00  0.00     0.147 C 
HETATM   22  C   UNL     1      37.652  -6.652  13.164  1.00  0.00     0.044 C 
BRANCH  21  23
HETATM   23  O   UNL     1      39.798  -7.436  13.920  1.00  0.00    -0.391 OA
HETATM   24  H   UNL     1      40.361  -8.141  13.562  1.00  0.00     0.210 HD
ENDBRANCH  21  23
ENDBRANCH  18  21
ENDBRANCH  12  15
ENDBRANCH   6  11
BRANCH   8  25
HETATM   25  C   UNL     1      43.272 -12.717   3.182  1.00  0.00     0.409 C 
HETATM   26  F   UNL     1      44.045 -11.622   3.082  1.00  0.00    -0.169 F 
HETATM   27  F   UNL     1      43.557 -13.304   4.373  1.00  0.00    -0.169 F 
HETATM   28  F   UNL     1      43.683 -13.588   2.228  1.00  0.00    -0.169 F 
ENDBRANCH   8  25
BRANCH   1  29
HETATM   29  C   UNL     1      41.564 -15.812   3.653  1.00  0.00    -0.035 A 
HETATM   30  C   UNL     1      41.979 -16.562   2.539  1.00  0.00     0.010 A 
HETATM   31  C   UNL     1      42.873 -17.629   2.678  1.00  0.00     0.007 A 
HETATM   32  C   UNL     1      43.371 -17.976   3.936  1.00  0.00    -0.062 A 
HETATM   33  C   UNL     1      44.344 -19.105   4.097  1.00  0.00     0.048 C 
HETATM   34  C   UNL     1      42.978 -17.226   5.048  1.00  0.00     0.007 A 
HETATM   35  C   UNL     1      42.079 -16.164   4.908  1.00  0.00     0.010 A 
ENDBRANCH   1  29
TORSDOF 6
ENDMDL
MODEL 7
REMARK VINA RESULT:      -8.4      3.853      9.815
REMARK  6 active torsions:
REMARK  status: ('A' for Active; 'I' for Inactive)
REMARK    1  A    between atoms: C_5  and  C_6 
REMARK    2  A    between atoms: C_11  and  C_12 
REMARK       I    between atoms: C_12  and  N_13 
REMARK    3  A    between atoms: N_13  and  C_14 
REMARK    4  A    between atoms: C_17  and  C_18 
REMARK    5  A    between atoms: C_18  and  O_19 
REMARK    6  A    between atoms: C_25  and  C_26 
ROOT
HETATM    1  C   UNL     1      43.051 -13.582   2.561  1.00  0.00     0.118 C 
HETATM    2  N   UNL     1      43.718 -12.479   3.239  1.00  0.00    -0.366 N 
HETATM    3  C   UNL     1      43.704 -12.330   4.578  1.00  0.00     0.123 A 
HETATM    4  N   UNL     1      43.120 -13.249   5.404  1.00  0.00    -0.240 N 
HETATM    5  N   UNL     1      43.281 -12.987   6.717  1.00  0.00    -0.165 NA
HETATM    6  C   UNL     1      43.922 -11.795   6.721  1.00  0.00     0.148 A 
HETATM    7  C   UNL     1      44.204 -11.355   5.398  1.00  0.00     0.089 A 
HETATM    8  C   UNL     1      42.435 -14.438   4.936  1.00  0.00     0.221 C 
HETATM    9  C   UNL     1      42.875 -14.788   3.502  1.00  0.00     0.066 C 
HETATM   10  H   UNL     1      44.049 -11.731   2.631  1.00  0.00     0.161 HD
ENDROOT
BRANCH   6  11
HETATM   11  C   UNL     1      44.280 -11.089   7.965  1.00  0.00     0.276 C 
HETATM   12  N   UNL     1      43.189 -10.470   8.545  1.00  0.00    -0.322 N 
HETATM   13  H   UNL     1      42.325 -10.605   8.028  1.00  0.00     0.169 HD
HETATM   14  O   UNL     1      45.431 -11.098   8.388  1.00  0.00    -0.266 OA
BRANCH  12  15
HETATM   15  C   UNL     1      43.145  -9.727   9.737  1.00  0.00     0.035 A 
HETATM   16  C   UNL     1      43.025  -8.338   9.782  1.00  0.00     0.030 A 
HETATM   17  C   UNL     1      43.002  -7.666  11.010  1.00  0.00     0.012 A 
HETATM   18  C   UNL     1      43.096  -8.367  12.219  1.00  0.00    -0.030 A 
HETATM   19  C   UNL     1      43.215  -9.762  12.169  1.00  0.00     0.012 A 
HETATM   20  C   UNL     1      43.233 -10.434  10.940  1.00  0.00     0.030 A 
BRANCH  18  21
HETATM   21  C   UNL     1      43.119  -7.643  13.545  1.00  0.00     0.147 C 
HETATM   22  C   UNL     1      42.481  -6.262  13.436  1.00  0.00     0.044 C 
BRANCH  21  23
HETATM   23  O   UNL     1      42.419  -8.407  14.526  1.00  0.00    -0.391 OA
HETATM   24  H   UNL     1      43.006  -8.496  15.293  1.00  0.00     0.210 HD
ENDBRANCH  21  23
ENDBRANCH  18  21
ENDBRANCH  12  15
ENDBRANCH   6  11
BRANCH   8  25
HETATM   25  C   UNL     1      40.940 -14.276   5.097  1.00  0.00     0.409 C 
HETATM   26  F   UNL     1      40.467 -14.695   6.284  1.00  0.00    -0.169 F 
HETATM   27  F   UNL     1      40.595 -12.970   4.963  1.00  0.00    -0.169 F 
HETATM   28  F   UNL     1      40.259 -14.945   4.134  1.00  0.00    -0.169 F 
ENDBRANCH   8  25
BRANCH   1  29
HETATM   29  C   UNL     1      41.797 -13.145   1.826  1.00  0.00    -0.035 A 
HETATM   30  C   UNL     1      41.146 -14.060   0.981  1.00  0.00     0.010 A 
HETATM   31  C   UNL     1      40.013 -13.689   0.249  1.00  0.00     0.007 A 
HETATM   32  C   UNL     1      39.505 -12.391   0.340  1.00  0.00    -0.062 A 
HETATM   33  C   UNL     1      38.280 -11.984  -0.424  1.00  0.00     0.048 C 
HETATM   34  C   UNL     1      40.134 -11.478   1.191  1.00  0.00     0.007 A 
HETATM   35  C   UNL     1      41.270 -11.848   1.917  1.00  0.00     0.010 A 
ENDBRANCH   1  29
TORSDOF 6
ENDMDL
MODEL 8
REMARK VINA RESULT:      -8.4      7.509      9.439
REMARK  6 active torsions:
REMARK  status: ('A' for Active; 'I' for Inactive)
REMARK    1  A    between atoms: C_5  and  C_6 
REMARK    2  A    between atoms: C_11  and  C_12 
REMARK       I    between atoms: C_12  and  N_13 
REMARK    3  A    between atoms: N_13  and  C_14 
REMARK    4  A    between atoms: C_17  and  C_18 
REMARK    5  A    between atoms: C_18  and  O_19 
REMARK    6  A    between atoms: C_25  and  C_26 
ROOT
HETATM    1  C   UNL     1      39.552 -10.210  -0.606  1.00  0.00     0.118 C 
HETATM    2  N   UNL     1      39.678 -10.870   0.687  1.00  0.00    -0.366 N 
HETATM    3  C   UNL     1      39.988 -12.175   0.812  1.00  0.00     0.123 A 
HETATM    4  N   UNL     1      40.278 -12.959  -0.270  1.00  0.00    -0.240 N 
HETATM    5  N   UNL     1      40.655 -14.214   0.048  1.00  0.00    -0.165 NA
HETATM    6  C   UNL     1      40.510 -14.252   1.393  1.00  0.00     0.148 A 
HETATM    7  C   UNL     1      40.095 -12.992   1.905  1.00  0.00     0.089 A 
HETATM    8  C   UNL     1      40.247 -12.490  -1.641  1.00  0.00     0.221 C 
HETATM    9  C   UNL     1      40.352 -10.954  -1.691  1.00  0.00     0.066 C 
HETATM   10  H   UNL     1      39.348 -10.329   1.485  1.00  0.00     0.161 HD
ENDROOT
BRANCH   6  11
HETATM   11  C   UNL     1      40.780 -15.465   2.188  1.00  0.00     0.276 C 
HETATM   12  N   UNL     1      42.030 -15.993   1.924  1.00  0.00    -0.322 N 
HETATM   13  H   UNL     1      42.557 -15.461   1.236  1.00  0.00     0.169 HD
HETATM   14  O   UNL     1      39.952 -15.898   2.981  1.00  0.00    -0.266 OA
BRANCH  12  15
HETATM   15  C   UNL     1      42.634 -17.123   2.501  1.00  0.00     0.035 A 
HETATM   16  C   UNL     1      42.730 -18.361   1.865  1.00  0.00     0.030 A 
HETATM   17  C   UNL     1      43.335 -19.446   2.511  1.00  0.00     0.012 A 
HETATM   18  C   UNL     1      43.858 -19.317   3.803  1.00  0.00    -0.030 A 
HETATM   19  C   UNL     1      43.762 -18.071   4.437  1.00  0.00     0.012 A 
HETATM   20  C   UNL     1      43.161 -16.985   3.789  1.00  0.00     0.030 A 
BRANCH  18  21
HETATM   21  C   UNL     1      44.470 -20.497   4.522  1.00  0.00     0.147 C 
HETATM   22  C   UNL     1      43.868 -20.677   5.911  1.00  0.00     0.044 C 
BRANCH  21  23
HETATM   23  O   UNL     1      44.263 -21.687   3.763  1.00  0.00    -0.391 OA
HETATM   24  H   UNL     1      45.036 -22.256   3.904  1.00  0.00     0.210 HD
ENDBRANCH  21  23
ENDBRANCH  18  21
ENDBRANCH  12  15
ENDBRANCH   6  11
BRANCH   8  25
HETATM   25  C   UNL     1      39.036 -13.045  -2.356  1.00  0.00     0.409 C 
HETATM   26  F   UNL     1      37.940 -13.143  -1.584  1.00  0.00    -0.169 F 
HETATM   27  F   UNL     1      38.715 -12.255  -3.413  1.00  0.00    -0.169 F 
HETATM   28  F   UNL     1      39.280 -14.276  -2.868  1.00  0.00    -0.169 F 
ENDBRANCH   8  25
BRANCH   1  29
HETATM   29  C   UNL     1      38.110  -9.895  -0.965  1.00  0.00    -0.035 A 
HETATM   30  C   UNL     1      37.118 -10.018   0.023  1.00  0.00     0.010 A 
HETATM   31  C   UNL     1      35.771  -9.781  -0.272  1.00  0.00     0.007 A 
HETATM   32  C   UNL     1      35.382  -9.419  -1.564  1.00  0.00    -0.062 A 
HETATM   33  C   UNL     1      33.945  -9.144  -1.890  1.00  0.00     0.048 C 
HETATM   34  C   UNL     1      36.363  -9.277  -2.549  1.00  0.00     0.007 A 
HETATM   35  C   UNL     1      37.708  -9.521  -2.255  1.00  0.00     0.010 A 
ENDBRANCH   1  29
TORSDOF 6
ENDMDL
MODEL 9
REMARK VINA RESULT:      -8.1      5.549      9.844
REMARK  6 active torsions:
REMARK  status: ('A' for Active; 'I' for Inactive)
REMARK    1  A    between atoms: C_5  and  C_6 
REMARK    2  A    between atoms: C_11  and  C_12 
REMARK       I    between atoms: C_12  and  N_13 
REMARK    3  A    between atoms: N_13  and  C_14 
REMARK    4  A    between atoms: C_17  and  C_18 
REMARK    5  A    between atoms: C_18  and  O_19 
REMARK    6  A    between atoms: C_25  and  C_26 
ROOT
HETATM    1  C   UNL     1      43.643 -15.163   4.876  1.00  0.00     0.118 C 
HETATM    2  N   UNL     1      43.158 -14.063   4.054  1.00  0.00    -0.366 N 
HETATM    3  C   UNL     1      41.982 -13.446   4.281  1.00  0.00     0.123 A 
HETATM    4  N   UNL     1      41.191 -13.764   5.349  1.00  0.00    -0.240 N 
HETATM    5  N   UNL     1      40.097 -12.984   5.472  1.00  0.00    -0.165 NA
HETATM    6  C   UNL     1      40.154 -12.191   4.376  1.00  0.00     0.148 A 
HETATM    7  C   UNL     1      41.322 -12.453   3.609  1.00  0.00     0.089 A 
HETATM    8  C   UNL     1      41.506 -14.803   6.310  1.00  0.00     0.221 C 
HETATM    9  C   UNL     1      43.011 -15.130   6.280  1.00  0.00     0.066 C 
HETATM   10  H   UNL     1      43.678 -13.902   3.193  1.00  0.00     0.161 HD
ENDROOT
BRANCH   6  11
HETATM   11  C   UNL     1      39.122 -11.184   4.070  1.00  0.00     0.276 C 
HETATM   12  N   UNL     1      38.892 -11.070   2.711  1.00  0.00    -0.322 N 
HETATM   13  H   UNL     1      39.462 -11.697   2.150  1.00  0.00     0.169 HD
HETATM   14  O   UNL     1      38.562 -10.560   4.964  1.00  0.00    -0.266 OA
BRANCH  12  15
HETATM   15  C   UNL     1      37.975 -10.234   2.053  1.00  0.00     0.035 A 
HETATM   16  C   UNL     1      37.919  -8.852   2.230  1.00  0.00     0.030 A 
HETATM   17  C   UNL     1      36.965  -8.086   1.548  1.00  0.00     0.012 A 
HETATM   18  C   UNL     1      36.049  -8.685   0.674  1.00  0.00    -0.030 A 
HETATM   19  C   UNL     1      36.111 -10.073   0.498  1.00  0.00     0.012 A 
HETATM   20  C   UNL     1      37.068 -10.838   1.176  1.00  0.00     0.030 A 
BRANCH  18  21
HETATM   21  C   UNL     1      34.988  -7.869  -0.028  1.00  0.00     0.147 C 
HETATM   22  C   UNL     1      33.712  -8.676  -0.236  1.00  0.00     0.044 C 
BRANCH  21  23
HETATM   23  O   UNL     1      34.687  -6.703   0.738  1.00  0.00    -0.391 OA
HETATM   24  H   UNL     1      34.533  -5.979   0.111  1.00  0.00     0.210 HD
ENDBRANCH  21  23
ENDBRANCH  18  21
ENDBRANCH  12  15
ENDBRANCH   6  11
BRANCH   8  25
HETATM   25  C   UNL     1      40.613 -16.003   6.093  1.00  0.00     0.409 C 
HETATM   26  F   UNL     1      39.518 -16.021   6.873  1.00  0.00    -0.169 F 
HETATM   27  F   UNL     1      40.190 -16.044   4.804  1.00  0.00    -0.169 F 
HETATM   28  F   UNL     1      41.278 -17.165   6.306  1.00  0.00    -0.169 F 
ENDBRANCH   8  25
BRANCH   1  29
HETATM   29  C   UNL     1      43.570 -16.503   4.164  1.00  0.00    -0.035 A 
HETATM   30  C   UNL     1      44.192 -17.621   4.746  1.00  0.00     0.010 A 
HETATM   31  C   UNL     1      44.189 -18.865   4.106  1.00  0.00     0.007 A 
HETATM   32  C   UNL     1      43.567 -19.021   2.865  1.00  0.00    -0.062 A 
HETATM   33  C   UNL     1      43.540 -20.352   2.176  1.00  0.00     0.048 C 
HETATM   34  C   UNL     1      42.931 -17.920   2.286  1.00  0.00     0.007 A 
HETATM   35  C   UNL     1      42.941 -16.675   2.923  1.00  0.00     0.010 A 
ENDBRANCH   1  29
TORSDOF 6
ENDMDL
MODEL 10
REMARK VINA RESULT:      -7.9     18.085     20.599
REMARK  6 active torsions:
REMARK  status: ('A' for Active; 'I' for Inactive)
REMARK    1  A    between atoms: C_5  and  C_6 
REMARK    2  A    between atoms: C_11  and  C_12 
REMARK       I    between atoms: C_12  and  N_13 
REMARK    3  A    between atoms: N_13  and  C_14 
REMARK    4  A    between atoms: C_17  and  C_18 
REMARK    5  A    between atoms: C_18  and  O_19 
REMARK    6  A    between atoms: C_25  and  C_26 
ROOT
HETATM    1  C   UNL     1      47.701 -28.292   2.043  1.00  0.00     0.118 C 
HETATM    2  N   UNL     1      47.950 -28.067   0.625  1.00  0.00    -0.366 N 
HETATM    3  C   UNL     1      47.109 -28.489  -0.339  1.00  0.00     0.123 A 
HETATM    4  N   UNL     1      45.921 -29.099  -0.049  1.00  0.00    -0.240 N 
HETATM    5  N   UNL     1      45.165 -29.372  -1.132  1.00  0.00    -0.165 NA
HETATM    6  C   UNL     1      45.955 -28.996  -2.166  1.00  0.00     0.148 A 
HETATM    7  C   UNL     1      47.179 -28.438  -1.705  1.00  0.00     0.089 A 
HETATM    8  C   UNL     1      45.465 -29.385   1.297  1.00  0.00     0.221 C 
HETATM    9  C   UNL     1      46.200 -28.497   2.319  1.00  0.00     0.066 C 
HETATM   10  H   UNL     1      48.882 -27.725   0.396  1.00  0.00     0.161 HD
ENDROOT
BRANCH   6  11
HETATM   11  C   UNL     1      45.547 -29.147  -3.575  1.00  0.00     0.276 C 
HETATM   12  N   UNL     1      45.717 -30.441  -4.030  1.00  0.00    -0.322 N 
HETATM   13  H   UNL     1      46.087 -31.073  -3.326  1.00  0.00     0.169 HD
HETATM   14  O   UNL     1      45.105 -28.197  -4.210  1.00  0.00    -0.266 OA
BRANCH  12  15
HETATM   15  C   UNL     1      45.420 -30.959  -5.302  1.00  0.00     0.035 A 
HETATM   16  C   UNL     1      44.215 -30.738  -5.969  1.00  0.00     0.030 A 
HETATM   17  C   UNL     1      43.987 -31.301  -7.231  1.00  0.00     0.012 A 
HETATM   18  C   UNL     1      44.959 -32.093  -7.854  1.00  0.00    -0.030 A 
HETATM   19  C   UNL     1      46.169 -32.310  -7.182  1.00  0.00     0.012 A 
HETATM   20  C   UNL     1      46.398 -31.743  -5.922  1.00  0.00     0.030 A 
BRANCH  18  21
HETATM   21  C   UNL     1      44.700 -32.740  -9.195  1.00  0.00     0.147 C 
HETATM   22  C   UNL     1      44.153 -34.154  -9.035  1.00  0.00     0.044 C 
BRANCH  21  23
HETATM   23  O   UNL     1      43.767 -31.957  -9.938  1.00  0.00    -0.391 OA
HETATM   24  H   UNL     1      43.613 -32.417 -10.779  1.00  0.00     0.210 HD
ENDBRANCH  21  23
ENDBRANCH  18  21
ENDBRANCH  12  15
ENDBRANCH   6  11
BRANCH   8  25
HETATM   25  C   UNL     1      45.573 -30.866   1.582  1.00  0.00     0.409 C 
HETATM   26  F   UNL     1      45.689 -31.168   2.887  1.00  0.00    -0.169 F 
HETATM   27  F   UNL     1      44.473 -31.512   1.115  1.00  0.00    -0.169 F 
HETATM   28  F   UNL     1      46.632 -31.421   0.944  1.00  0.00    -0.169 F 
ENDBRANCH   8  25
BRANCH   1  29
HETATM   29  C   UNL     1      48.620 -29.345   2.639  1.00  0.00    -0.035 A 
HETATM   30  C   UNL     1      48.444 -29.724   3.981  1.00  0.00     0.010 A 
HETATM   31  C   UNL     1      49.294 -30.657   4.585  1.00  0.00     0.007 A 
HETATM   32  C   UNL     1      50.343 -31.231   3.864  1.00  0.00    -0.062 A 
HETATM   33  C   UNL     1      51.250 -32.245   4.493  1.00  0.00     0.048 C 
HETATM   34  C   UNL     1      50.516 -30.873   2.524  1.00  0.00     0.007 A 
HETATM   35  C   UNL     1      49.670 -29.936   1.923  1.00  0.00     0.010 A 
ENDBRANCH   1  29
TORSDOF 6
ENDMDL
