MODEL 1
REMARK VINA RESULT:      -7.8      0.000      0.000
REMARK  7 active torsions:
REMARK  status: ('A' for Active; 'I' for Inactive)
REMARK    1  A    between atoms: C_2  and  C_3 
REMARK    2  A    between atoms: C_3  and  N_4 
REMARK    3  A    between atoms: C_7  and  C_8 
REMARK       I    between atoms: C_8  and  N_9 
REMARK    4  A    between atoms: N_9  and  C_10 
REMARK    5  A    between atoms: C_11  and  O_12 
REMARK    6  A    between atoms: C_16  and  C_17 
REMARK       I    between atoms: C_17  and  N_18 
REMARK    7  A    between atoms: C_23  and  C_24 
ROOT
HETATM    1  C   UNL     1      40.590 -14.073   5.809  1.00  0.00     0.259 C 
HETATM    2  N   UNL     1      40.487 -14.612   4.550  1.00  0.00    -0.320 N 
HETATM    3  O   UNL     1      39.550 -13.976   6.464  1.00  0.00    -0.267 OA
HETATM    4  H   UNL     1      39.536 -14.561   4.195  1.00  0.00     0.169 HD
ENDROOT
BRANCH   2   5
HETATM    5  C   UNL     1      41.405 -15.201   3.662  1.00  0.00     0.069 A 
HETATM    6  C   UNL     1      41.684 -14.478   2.481  1.00  0.00     0.095 A 
HETATM    7  C   UNL     1      42.576 -14.992   1.540  1.00  0.00     0.040 A 
HETATM    8  C   UNL     1      43.177 -16.231   1.763  1.00  0.00     0.020 A 
HETATM    9  C   UNL     1      42.870 -16.973   2.909  1.00  0.00     0.034 A 
HETATM   10  C   UNL     1      41.986 -16.455   3.867  1.00  0.00     0.049 A 
BRANCH   6  11
HETATM   11  O   UNL     1      41.024 -13.279   2.346  1.00  0.00    -0.354 OA
HETATM   12  C   UNL     1      40.945 -12.756   1.023  1.00  0.00     0.210 C 
ENDBRANCH   6  11
BRANCH   9  13
HETATM   13  C   UNL     1      43.500 -18.312   3.052  1.00  0.00     0.251 C 
HETATM   14  N   UNL     1      43.106 -19.272   2.142  1.00  0.00    -0.361 N 
HETATM   15  C   UNL     1      43.784 -20.544   2.091  1.00  0.00     0.149 C 
HETATM   16  H   UNL     1      42.574 -18.989   1.330  1.00  0.00     0.162 HD
HETATM   17  O   UNL     1      44.365 -18.496   3.902  1.00  0.00    -0.268 OA
ENDBRANCH   9  13
ENDBRANCH   2   5
BRANCH   1  18
HETATM   18  C   UNL     1      41.851 -13.502   6.270  1.00  0.00     0.076 A 
HETATM   19  C   UNL     1      42.938 -14.174   6.876  1.00  0.00     0.158 A 
HETATM   20  N   UNL     1      43.981 -13.384   7.106  1.00  0.00    -0.183 NA
HETATM   21  N   UNL     1      43.602 -12.186   6.610  1.00  0.00    -0.268 N 
HETATM   22  C   UNL     1      42.356 -12.223   6.026  1.00  0.00     0.052 A 
BRANCH  21  23
HETATM   23  C   UNL     1      44.495 -11.057   6.851  1.00  0.00     0.106 C 
HETATM   24  C   UNL     1      45.847 -11.287   6.174  1.00  0.00     0.034 C 
BRANCH  23  25
HETATM   25  C   UNL     1      44.673 -10.741   8.351  1.00  0.00     0.022 C 
HETATM   26  C   UNL     1      45.627  -9.577   8.593  1.00  0.00     0.007 C 
ENDBRANCH  23  25
ENDBRANCH  21  23
BRANCH  22  27
HETATM   27  C   UNL     1      41.605 -11.179   5.196  1.00  0.00     0.038 A 
HETATM   28  C   UNL     1      41.899  -9.709   5.074  1.00  0.00     0.011 A 
HETATM   29  C   UNL     1      42.353 -10.636   3.995  1.00  0.00     0.011 A 
ENDBRANCH  22  27
ENDBRANCH   1  18
TORSDOF 7
ENDMDL
MODEL 2
REMARK VINA RESULT:      -7.5      2.317      4.347
REMARK  7 active torsions:
REMARK  status: ('A' for Active; 'I' for Inactive)
REMARK    1  A    between atoms: C_2  and  C_3 
REMARK    2  A    between atoms: C_3  and  N_4 
REMARK    3  A    between atoms: C_7  and  C_8 
REMARK       I    between atoms: C_8  and  N_9 
REMARK    4  A    between atoms: N_9  and  C_10 
REMARK    5  A    between atoms: C_11  and  O_12 
REMARK    6  A    between atoms: C_16  and  C_17 
REMARK       I    between atoms: C_17  and  N_18 
REMARK    7  A    between atoms: C_23  and  C_24 
ROOT
HETATM    1  C   UNL     1      40.190 -15.173   6.069  1.00  0.00     0.259 C 
HETATM    2  N   UNL     1      40.223 -15.995   4.970  1.00  0.00    -0.320 N 
HETATM    3  O   UNL     1      39.861 -15.683   7.142  1.00  0.00    -0.267 OA
HETATM    4  H   UNL     1      39.664 -16.833   5.109  1.00  0.00     0.169 HD
ENDROOT
BRANCH   2   5
HETATM    5  C   UNL     1      40.847 -15.920   3.712  1.00  0.00     0.069 A 
HETATM    6  C   UNL     1      42.123 -16.517   3.609  1.00  0.00     0.095 A 
HETATM    7  C   UNL     1      42.817 -16.481   2.400  1.00  0.00     0.040 A 
HETATM    8  C   UNL     1      42.253 -15.838   1.298  1.00  0.00     0.020 A 
HETATM    9  C   UNL     1      41.009 -15.205   1.406  1.00  0.00     0.034 A 
HETATM   10  C   UNL     1      40.299 -15.250   2.614  1.00  0.00     0.049 A 
BRANCH   6  11
HETATM   11  O   UNL     1      42.600 -17.105   4.757  1.00  0.00    -0.354 OA
HETATM   12  C   UNL     1      44.017 -17.143   4.896  1.00  0.00     0.210 C 
ENDBRANCH   6  11
BRANCH   9  13
HETATM   13  C   UNL     1      40.496 -14.487   0.210  1.00  0.00     0.251 C 
HETATM   14  N   UNL     1      41.086 -13.270  -0.071  1.00  0.00    -0.361 N 
HETATM   15  C   UNL     1      40.778 -12.582  -1.301  1.00  0.00     0.149 C 
HETATM   16  H   UNL     1      41.937 -13.016   0.411  1.00  0.00     0.162 HD
HETATM   17  O   UNL     1      39.642 -15.008  -0.500  1.00  0.00    -0.268 OA
ENDBRANCH   9  13
ENDBRANCH   2   5
BRANCH   1  18
HETATM   18  C   UNL     1      40.384 -13.734   5.925  1.00  0.00     0.076 A 
HETATM   19  C   UNL     1      39.414 -12.712   6.037  1.00  0.00     0.158 A 
HETATM   20  N   UNL     1      39.925 -11.489   5.934  1.00  0.00    -0.183 NA
HETATM   21  N   UNL     1      41.252 -11.699   5.795  1.00  0.00    -0.268 N 
HETATM   22  C   UNL     1      41.590 -13.032   5.860  1.00  0.00     0.052 A 
BRANCH  21  23
HETATM   23  C   UNL     1      42.080 -10.532   5.508  1.00  0.00     0.106 C 
HETATM   24  C   UNL     1      41.748  -9.387   6.466  1.00  0.00     0.034 C 
BRANCH  23  25
HETATM   25  C   UNL     1      41.979 -10.071   4.038  1.00  0.00     0.022 C 
HETATM   26  C   UNL     1      42.590 -11.076   3.067  1.00  0.00     0.007 C 
ENDBRANCH  23  25
ENDBRANCH  21  23
BRANCH  22  27
HETATM   27  C   UNL     1      42.956 -13.719   5.929  1.00  0.00     0.038 A 
HETATM   28  C   UNL     1      44.220 -13.204   6.560  1.00  0.00     0.011 A 
HETATM   29  C   UNL     1      43.382 -14.191   7.304  1.00  0.00     0.011 A 
ENDBRANCH  22  27
ENDBRANCH   1  18
TORSDOF 7
ENDMDL
MODEL 3
REMARK VINA RESULT:      -7.3      0.830      2.026
REMARK  7 active torsions:
REMARK  status: ('A' for Active; 'I' for Inactive)
REMARK    1  A    between atoms: C_2  and  C_3 
REMARK    2  A    between atoms: C_3  and  N_4 
REMARK    3  A    between atoms: C_7  and  C_8 
REMARK       I    between atoms: C_8  and  N_9 
REMARK    4  A    between atoms: N_9  and  C_10 
REMARK    5  A    between atoms: C_11  and  O_12 
REMARK    6  A    between atoms: C_16  and  C_17 
REMARK       I    between atoms: C_17  and  N_18 
REMARK    7  A    between atoms: C_23  and  C_24 
ROOT
HETATM    1  C   UNL     1      40.442 -13.760   5.700  1.00  0.00     0.259 C 
HETATM    2  N   UNL     1      40.324 -14.664   4.673  1.00  0.00    -0.320 N 
HETATM    3  O   UNL     1      39.567 -13.777   6.566  1.00  0.00    -0.267 OA
HETATM    4  H   UNL     1      39.371 -15.006   4.580  1.00  0.00     0.169 HD
ENDROOT
BRANCH   2   5
HETATM    5  C   UNL     1      41.223 -15.199   3.733  1.00  0.00     0.069 A 
HETATM    6  C   UNL     1      41.395 -14.462   2.541  1.00  0.00     0.095 A 
HETATM    7  C   UNL     1      42.262 -14.924   1.551  1.00  0.00     0.040 A 
HETATM    8  C   UNL     1      42.945 -16.126   1.736  1.00  0.00     0.020 A 
HETATM    9  C   UNL     1      42.744 -16.885   2.896  1.00  0.00     0.034 A 
HETATM   10  C   UNL     1      41.886 -16.418   3.902  1.00  0.00     0.049 A 
BRANCH   6  11
HETATM   11  O   UNL     1      40.661 -13.303   2.446  1.00  0.00    -0.354 OA
HETATM   12  C   UNL     1      39.843 -13.176   1.286  1.00  0.00     0.210 C 
ENDBRANCH   6  11
BRANCH   9  13
HETATM   13  C   UNL     1      43.458 -18.184   3.000  1.00  0.00     0.251 C 
HETATM   14  N   UNL     1      43.053 -19.173   2.126  1.00  0.00    -0.361 N 
HETATM   15  C   UNL     1      43.796 -20.407   2.033  1.00  0.00     0.149 C 
HETATM   16  H   UNL     1      42.450 -18.928   1.353  1.00  0.00     0.162 HD
HETATM   17  O   UNL     1      44.390 -18.312   3.786  1.00  0.00    -0.268 OA
ENDBRANCH   9  13
ENDBRANCH   2   5
BRANCH   1  18
HETATM   18  C   UNL     1      41.477 -12.731   5.666  1.00  0.00     0.076 A 
HETATM   19  C   UNL     1      41.380 -11.420   5.147  1.00  0.00     0.158 A 
HETATM   20  N   UNL     1      42.476 -10.695   5.342  1.00  0.00    -0.183 NA
HETATM   21  N   UNL     1      43.294 -11.517   6.035  1.00  0.00    -0.268 N 
HETATM   22  C   UNL     1      42.709 -12.729   6.323  1.00  0.00     0.052 A 
BRANCH  21  23
HETATM   23  C   UNL     1      44.655 -11.049   6.275  1.00  0.00     0.106 C 
HETATM   24  C   UNL     1      45.638 -11.742   5.331  1.00  0.00     0.034 C 
BRANCH  23  25
HETATM   25  C   UNL     1      45.094 -11.209   7.747  1.00  0.00     0.022 C 
HETATM   26  C   UNL     1      45.774  -9.958   8.293  1.00  0.00     0.007 C 
ENDBRANCH  23  25
ENDBRANCH  21  23
BRANCH  22  27
HETATM   27  C   UNL     1      43.175 -13.882   7.217  1.00  0.00     0.038 A 
HETATM   28  C   UNL     1      42.684 -15.303   7.223  1.00  0.00     0.011 A 
HETATM   29  C   UNL     1      43.960 -14.974   6.521  1.00  0.00     0.011 A 
ENDBRANCH  22  27
ENDBRANCH   1  18
TORSDOF 7
ENDMDL
MODEL 4
REMARK VINA RESULT:      -7.2      2.212      6.405
REMARK  7 active torsions:
REMARK  status: ('A' for Active; 'I' for Inactive)
REMARK    1  A    between atoms: C_2  and  C_3 
REMARK    2  A    between atoms: C_3  and  N_4 
REMARK    3  A    between atoms: C_7  and  C_8 
REMARK       I    between atoms: C_8  and  N_9 
REMARK    4  A    between atoms: N_9  and  C_10 
REMARK    5  A    between atoms: C_11  and  O_12 
REMARK    6  A    between atoms: C_16  and  C_17 
REMARK       I    between atoms: C_17  and  N_18 
REMARK    7  A    between atoms: C_23  and  C_24 
ROOT
HETATM    1  C   UNL     1      40.394 -15.313   6.207  1.00  0.00     0.259 C 
HETATM    2  N   UNL     1      40.673 -13.998   6.491  1.00  0.00    -0.320 N 
HETATM    3  O   UNL     1      39.431 -15.820   6.785  1.00  0.00    -0.267 OA
HETATM    4  H   UNL     1      40.260 -13.708   7.374  1.00  0.00     0.169 HD
ENDROOT
BRANCH   2   5
HETATM    5  C   UNL     1      41.403 -12.991   5.836  1.00  0.00     0.069 A 
HETATM    6  C   UNL     1      40.774 -12.380   4.729  1.00  0.00     0.095 A 
HETATM    7  C   UNL     1      41.430 -11.377   4.016  1.00  0.00     0.040 A 
HETATM    8  C   UNL     1      42.717 -10.992   4.391  1.00  0.00     0.020 A 
HETATM    9  C   UNL     1      43.365 -11.625   5.459  1.00  0.00     0.034 A 
HETATM   10  C   UNL     1      42.705 -12.623   6.190  1.00  0.00     0.049 A 
BRANCH   6  11
HETATM   11  O   UNL     1      39.516 -12.846   4.427  1.00  0.00    -0.354 OA
HETATM   12  C   UNL     1      39.205 -12.951   3.041  1.00  0.00     0.210 C 
ENDBRANCH   6  11
BRANCH   9  13
HETATM   13  C   UNL     1      44.758 -11.206   5.764  1.00  0.00     0.251 C 
HETATM   14  N   UNL     1      45.034 -10.924   7.087  1.00  0.00    -0.361 N 
HETATM   15  C   UNL     1      46.391 -10.677   7.508  1.00  0.00     0.149 C 
HETATM   16  H   UNL     1      44.363 -11.189   7.795  1.00  0.00     0.162 HD
HETATM   17  O   UNL     1      45.601 -11.185   4.874  1.00  0.00    -0.268 OA
ENDBRANCH   9  13
ENDBRANCH   2   5
BRANCH   1  18
HETATM   18  C   UNL     1      41.302 -16.100   5.378  1.00  0.00     0.076 A 
HETATM   19  C   UNL     1      41.384 -16.129   3.968  1.00  0.00     0.158 A 
HETATM   20  N   UNL     1      42.375 -16.890   3.515  1.00  0.00    -0.183 NA
HETATM   21  N   UNL     1      42.984 -17.336   4.635  1.00  0.00    -0.268 N 
HETATM   22  C   UNL     1      42.423 -16.827   5.784  1.00  0.00     0.052 A 
BRANCH  21  23
HETATM   23  C   UNL     1      44.039 -18.330   4.463  1.00  0.00     0.106 C 
HETATM   24  C   UNL     1      44.158 -18.741   2.995  1.00  0.00     0.034 C 
BRANCH  23  25
HETATM   25  C   UNL     1      43.855 -19.565   5.371  1.00  0.00     0.022 C 
HETATM   26  C   UNL     1      43.993 -20.877   4.608  1.00  0.00     0.007 C 
ENDBRANCH  23  25
ENDBRANCH  21  23
BRANCH  22  27
HETATM   27  C   UNL     1      42.877 -16.908   7.244  1.00  0.00     0.038 A 
HETATM   28  C   UNL     1      44.281 -16.854   7.780  1.00  0.00     0.011 A 
HETATM   29  C   UNL     1      43.433 -15.626   7.828  1.00  0.00     0.011 A 
ENDBRANCH  22  27
ENDBRANCH   1  18
TORSDOF 7
ENDMDL
MODEL 5
REMARK VINA RESULT:      -7.2      2.396      6.315
REMARK  7 active torsions:
REMARK  status: ('A' for Active; 'I' for Inactive)
REMARK    1  A    between atoms: C_2  and  C_3 
REMARK    2  A    between atoms: C_3  and  N_4 
REMARK    3  A    between atoms: C_7  and  C_8 
REMARK       I    between atoms: C_8  and  N_9 
REMARK    4  A    between atoms: N_9  and  C_10 
REMARK    5  A    between atoms: C_11  and  O_12 
REMARK    6  A    between atoms: C_16  and  C_17 
REMARK       I    between atoms: C_17  and  N_18 
REMARK    7  A    between atoms: C_23  and  C_24 
ROOT
HETATM    1  C   UNL     1      40.631 -14.833   5.961  1.00  0.00     0.259 C 
HETATM    2  N   UNL     1      41.012 -13.514   5.924  1.00  0.00    -0.320 N 
HETATM    3  O   UNL     1      39.741 -15.138   6.756  1.00  0.00    -0.267 OA
HETATM    4  H   UNL     1      40.749 -13.022   6.774  1.00  0.00     0.169 HD
ENDROOT
BRANCH   2   5
HETATM    5  C   UNL     1      41.685 -12.717   4.980  1.00  0.00     0.069 A 
HETATM    6  C   UNL     1      42.869 -12.088   5.423  1.00  0.00     0.095 A 
HETATM    7  C   UNL     1      43.595 -11.272   4.555  1.00  0.00     0.040 A 
HETATM    8  C   UNL     1      43.136 -11.067   3.254  1.00  0.00     0.020 A 
HETATM    9  C   UNL     1      41.939 -11.651   2.823  1.00  0.00     0.034 A 
HETATM   10  C   UNL     1      41.212 -12.485   3.685  1.00  0.00     0.049 A 
BRANCH   6  11
HETATM   11  O   UNL     1      43.223 -12.335   6.728  1.00  0.00    -0.354 OA
HETATM   12  C   UNL     1      44.590 -12.111   7.058  1.00  0.00     0.210 C 
ENDBRANCH   6  11
BRANCH   9  13
HETATM   13  C   UNL     1      41.480 -11.341   1.444  1.00  0.00     0.251 C 
HETATM   14  N   UNL     1      40.530 -12.190   0.912  1.00  0.00    -0.361 N 
HETATM   15  C   UNL     1      39.899 -11.875  -0.347  1.00  0.00     0.149 C 
HETATM   16  H   UNL     1      40.061 -12.845   1.522  1.00  0.00     0.162 HD
HETATM   17  O   UNL     1      41.897 -10.342   0.868  1.00  0.00    -0.268 OA
ENDBRANCH   9  13
ENDBRANCH   2   5
BRANCH   1  18
HETATM   18  C   UNL     1      41.367 -15.838   5.200  1.00  0.00     0.076 A 
HETATM   19  C   UNL     1      41.041 -16.379   3.935  1.00  0.00     0.158 A 
HETATM   20  N   UNL     1      41.960 -17.218   3.470  1.00  0.00    -0.183 NA
HETATM   21  N   UNL     1      42.926 -17.202   4.414  1.00  0.00    -0.268 N 
HETATM   22  C   UNL     1      42.653 -16.327   5.440  1.00  0.00     0.052 A 
BRANCH  21  23
HETATM   23  C   UNL     1      44.022 -18.153   4.255  1.00  0.00     0.106 C 
HETATM   24  C   UNL     1      44.070 -18.686   2.822  1.00  0.00     0.034 C 
BRANCH  23  25
HETATM   25  C   UNL     1      43.965 -19.311   5.275  1.00  0.00     0.022 C 
HETATM   26  C   UNL     1      44.028 -20.680   4.608  1.00  0.00     0.007 C 
ENDBRANCH  23  25
ENDBRANCH  21  23
BRANCH  22  27
HETATM   27  C   UNL     1      43.516 -15.851   6.611  1.00  0.00     0.038 A 
HETATM   28  C   UNL     1      43.092 -15.609   8.034  1.00  0.00     0.011 A 
HETATM   29  C   UNL     1      43.787 -16.884   7.685  1.00  0.00     0.011 A 
ENDBRANCH  22  27
ENDBRANCH   1  18
TORSDOF 7
ENDMDL
MODEL 6
REMARK VINA RESULT:      -7.2      2.528      5.922
REMARK  7 active torsions:
REMARK  status: ('A' for Active; 'I' for Inactive)
REMARK    1  A    between atoms: C_2  and  C_3 
REMARK    2  A    between atoms: C_3  and  N_4 
REMARK    3  A    between atoms: C_7  and  C_8 
REMARK       I    between atoms: C_8  and  N_9 
REMARK    4  A    between atoms: N_9  and  C_10 
REMARK    5  A    between atoms: C_11  and  O_12 
REMARK    6  A    between atoms: C_16  and  C_17 
REMARK       I    between atoms: C_17  and  N_18 
REMARK    7  A    between atoms: C_23  and  C_24 
ROOT
HETATM    1  C   UNL     1      40.422 -15.576   1.661  1.00  0.00     0.259 C 
HETATM    2  N   UNL     1      40.166 -14.237   1.822  1.00  0.00    -0.320 N 
HETATM    3  O   UNL     1      39.585 -16.238   1.045  1.00  0.00    -0.267 OA
HETATM    4  H   UNL     1      39.179 -14.025   1.702  1.00  0.00     0.169 HD
ENDROOT
BRANCH   2   5
HETATM    5  C   UNL     1      40.964 -13.118   2.121  1.00  0.00     0.069 A 
HETATM    6  C   UNL     1      40.856 -12.019   1.242  1.00  0.00     0.095 A 
HETATM    7  C   UNL     1      41.618 -10.871   1.458  1.00  0.00     0.040 A 
HETATM    8  C   UNL     1      42.500 -10.821   2.538  1.00  0.00     0.020 A 
HETATM    9  C   UNL     1      42.645 -11.924   3.388  1.00  0.00     0.034 A 
HETATM   10  C   UNL     1      41.871 -13.075   3.184  1.00  0.00     0.049 A 
BRANCH   6  11
HETATM   11  O   UNL     1      39.977 -12.176   0.196  1.00  0.00    -0.354 OA
HETATM   12  C   UNL     1      40.547 -12.144  -1.109  1.00  0.00     0.210 C 
ENDBRANCH   6  11
BRANCH   9  13
HETATM   13  C   UNL     1      43.646 -11.823   4.481  1.00  0.00     0.251 C 
HETATM   14  N   UNL     1      43.311 -12.434   5.674  1.00  0.00    -0.361 N 
HETATM   15  C   UNL     1      44.284 -12.538   6.733  1.00  0.00     0.149 C 
HETATM   16  H   UNL     1      42.521 -13.063   5.697  1.00  0.00     0.162 HD
HETATM   17  O   UNL     1      44.725 -11.276   4.278  1.00  0.00    -0.268 OA
ENDBRANCH   9  13
ENDBRANCH   2   5
BRANCH   1  18
HETATM   18  C   UNL     1      41.560 -16.199   2.331  1.00  0.00     0.076 A 
HETATM   19  C   UNL     1      42.863 -16.400   1.822  1.00  0.00     0.158 A 
HETATM   20  N   UNL     1      43.699 -16.922   2.713  1.00  0.00    -0.183 NA
HETATM   21  N   UNL     1      42.958 -17.029   3.837  1.00  0.00    -0.268 N 
HETATM   22  C   UNL     1      41.683 -16.535   3.682  1.00  0.00     0.052 A 
BRANCH  21  23
HETATM   23  C   UNL     1      43.568 -17.717   4.970  1.00  0.00     0.106 C 
HETATM   24  C   UNL     1      44.397 -16.743   5.808  1.00  0.00     0.034 C 
BRANCH  23  25
HETATM   25  C   UNL     1      44.412 -18.939   4.547  1.00  0.00     0.022 C 
HETATM   26  C   UNL     1      44.016 -20.208   5.294  1.00  0.00     0.007 C 
ENDBRANCH  23  25
ENDBRANCH  21  23
BRANCH  22  27
HETATM   27  C   UNL     1      40.571 -16.287   4.703  1.00  0.00     0.038 A 
HETATM   28  C   UNL     1      40.642 -16.426   6.199  1.00  0.00     0.011 A 
HETATM   29  C   UNL     1      40.752 -15.069   5.586  1.00  0.00     0.011 A 
ENDBRANCH  22  27
ENDBRANCH   1  18
TORSDOF 7
ENDMDL
MODEL 7
REMARK VINA RESULT:      -6.8      3.555      6.226
REMARK  7 active torsions:
REMARK  status: ('A' for Active; 'I' for Inactive)
REMARK    1  A    between atoms: C_2  and  C_3 
REMARK    2  A    between atoms: C_3  and  N_4 
REMARK    3  A    between atoms: C_7  and  C_8 
REMARK       I    between atoms: C_8  and  N_9 
REMARK    4  A    between atoms: N_9  and  C_10 
REMARK    5  A    between atoms: C_11  and  O_12 
REMARK    6  A    between atoms: C_16  and  C_17 
REMARK       I    between atoms: C_17  and  N_18 
REMARK    7  A    between atoms: C_23  and  C_24 
ROOT
HETATM    1  C   UNL     1      40.175 -15.138   1.005  1.00  0.00     0.259 C 
HETATM    2  N   UNL     1      39.632 -14.407  -0.022  1.00  0.00    -0.320 N 
HETATM    3  O   UNL     1      39.651 -16.224   1.261  1.00  0.00    -0.267 OA
HETATM    4  H   UNL     1      38.678 -14.694  -0.226  1.00  0.00     0.169 HD
ENDROOT
BRANCH   2   5
HETATM    5  C   UNL     1      40.104 -13.358  -0.831  1.00  0.00     0.069 A 
HETATM    6  C   UNL     1      40.039 -13.566  -2.226  1.00  0.00     0.095 A 
HETATM    7  C   UNL     1      40.494 -12.580  -3.103  1.00  0.00     0.040 A 
HETATM    8  C   UNL     1      41.029 -11.397  -2.594  1.00  0.00     0.020 A 
HETATM    9  C   UNL     1      41.138 -11.203  -1.211  1.00  0.00     0.034 A 
HETATM   10  C   UNL     1      40.668 -12.183  -0.325  1.00  0.00     0.049 A 
BRANCH   6  11
HETATM   11  O   UNL     1      39.517 -14.773  -2.626  1.00  0.00    -0.354 OA
HETATM   12  C   UNL     1      38.329 -14.711  -3.409  1.00  0.00     0.210 C 
ENDBRANCH   6  11
BRANCH   9  13
HETATM   13  C   UNL     1      41.773  -9.945  -0.740  1.00  0.00     0.251 C 
HETATM   14  N   UNL     1      41.978  -8.971  -1.697  1.00  0.00    -0.361 N 
HETATM   15  C   UNL     1      42.428  -7.657  -1.308  1.00  0.00     0.149 C 
HETATM   16  H   UNL     1      41.533  -9.068  -2.599  1.00  0.00     0.162 HD
HETATM   17  O   UNL     1      42.027  -9.793   0.450  1.00  0.00    -0.268 OA
ENDBRANCH   9  13
ENDBRANCH   2   5
BRANCH   1  18
HETATM   18  C   UNL     1      41.224 -14.569   1.846  1.00  0.00     0.076 A 
HETATM   19  C   UNL     1      42.622 -14.625   1.647  1.00  0.00     0.158 A 
HETATM   20  N   UNL     1      43.309 -13.935   2.551  1.00  0.00    -0.183 NA
HETATM   21  N   UNL     1      42.358 -13.379   3.333  1.00  0.00    -0.268 N 
HETATM   22  C   UNL     1      41.083 -13.668   2.904  1.00  0.00     0.052 A 
BRANCH  21  23
HETATM   23  C   UNL     1      42.812 -12.669   4.524  1.00  0.00     0.106 C 
HETATM   24  C   UNL     1      43.893 -11.648   4.163  1.00  0.00     0.034 C 
BRANCH  23  25
HETATM   25  C   UNL     1      43.297 -13.617   5.641  1.00  0.00     0.022 C 
HETATM   26  C   UNL     1      42.145 -14.294   6.374  1.00  0.00     0.007 C 
ENDBRANCH  23  25
ENDBRANCH  21  23
BRANCH  22  27
HETATM   27  C   UNL     1      39.724 -13.127   3.358  1.00  0.00     0.038 A 
HETATM   28  C   UNL     1      39.441 -12.154   4.469  1.00  0.00     0.011 A 
HETATM   29  C   UNL     1      39.470 -11.664   3.059  1.00  0.00     0.011 A 
ENDBRANCH  22  27
ENDBRANCH   1  18
TORSDOF 7
ENDMDL
MODEL 8
REMARK VINA RESULT:      -6.8      3.193      6.362
REMARK  7 active torsions:
REMARK  status: ('A' for Active; 'I' for Inactive)
REMARK    1  A    between atoms: C_2  and  C_3 
REMARK    2  A    between atoms: C_3  and  N_4 
REMARK    3  A    between atoms: C_7  and  C_8 
REMARK       I    between atoms: C_8  and  N_9 
REMARK    4  A    between atoms: N_9  and  C_10 
REMARK    5  A    between atoms: C_11  and  O_12 
REMARK    6  A    between atoms: C_16  and  C_17 
REMARK       I    between atoms: C_17  and  N_18 
REMARK    7  A    between atoms: C_23  and  C_24 
ROOT
HETATM    1  C   UNL     1      43.054 -11.856   3.175  1.00  0.00     0.259 C 
HETATM    2  N   UNL     1      42.170 -11.068   2.479  1.00  0.00    -0.320 N 
HETATM    3  O   UNL     1      43.903 -11.279   3.858  1.00  0.00    -0.267 OA
HETATM    4  H   UNL     1      42.525 -10.124   2.354  1.00  0.00     0.169 HD
ENDROOT
BRANCH   2   5
HETATM    5  C   UNL     1      40.906 -11.291   1.906  1.00  0.00     0.069 A 
HETATM    6  C   UNL     1      39.790 -11.033   2.732  1.00  0.00     0.095 A 
HETATM    7  C   UNL     1      38.498 -11.236   2.247  1.00  0.00     0.040 A 
HETATM    8  C   UNL     1      38.314 -11.711   0.948  1.00  0.00     0.020 A 
HETATM    9  C   UNL     1      39.417 -12.012   0.139  1.00  0.00     0.034 A 
HETATM   10  C   UNL     1      40.718 -11.795   0.616  1.00  0.00     0.049 A 
BRANCH   6  11
HETATM   11  O   UNL     1      40.077 -10.590   4.002  1.00  0.00    -0.354 OA
HETATM   12  C   UNL     1      39.052  -9.843   4.649  1.00  0.00     0.210 C 
ENDBRANCH   6  11
BRANCH   9  13
HETATM   13  C   UNL     1      39.148 -12.571  -1.211  1.00  0.00     0.251 C 
HETATM   14  N   UNL     1      37.940 -13.219  -1.373  1.00  0.00    -0.361 N 
HETATM   15  C   UNL     1      37.515 -13.643  -2.684  1.00  0.00     0.149 C 
HETATM   16  H   UNL     1      37.233 -13.125  -0.656  1.00  0.00     0.162 HD
HETATM   17  O   UNL     1      39.949 -12.390  -2.121  1.00  0.00    -0.268 OA
ENDBRANCH   9  13
ENDBRANCH   2   5
BRANCH   1  18
HETATM   18  C   UNL     1      43.073 -13.302   2.978  1.00  0.00     0.076 A 
HETATM   19  C   UNL     1      43.533 -14.018   1.850  1.00  0.00     0.158 A 
HETATM   20  N   UNL     1      43.493 -15.336   2.013  1.00  0.00    -0.183 NA
HETATM   21  N   UNL     1      43.044 -15.498   3.276  1.00  0.00    -0.268 N 
HETATM   22  C   UNL     1      42.849 -14.301   3.928  1.00  0.00     0.052 A 
BRANCH  21  23
HETATM   23  C   UNL     1      42.750 -16.861   3.705  1.00  0.00     0.106 C 
HETATM   24  C   UNL     1      43.817 -17.360   4.681  1.00  0.00     0.034 C 
BRANCH  23  25
HETATM   25  C   UNL     1      42.581 -17.840   2.523  1.00  0.00     0.022 C 
HETATM   26  C   UNL     1      43.559 -19.008   2.587  1.00  0.00     0.007 C 
ENDBRANCH  23  25
ENDBRANCH  21  23
BRANCH  22  27
HETATM   27  C   UNL     1      42.525 -13.997   5.393  1.00  0.00     0.038 A 
HETATM   28  C   UNL     1      41.425 -13.127   5.935  1.00  0.00     0.011 A 
HETATM   29  C   UNL     1      41.245 -14.609   5.920  1.00  0.00     0.011 A 
ENDBRANCH  22  27
ENDBRANCH   1  18
TORSDOF 7
ENDMDL
MODEL 9
REMARK VINA RESULT:      -6.6      2.983      5.834
REMARK  7 active torsions:
REMARK  status: ('A' for Active; 'I' for Inactive)
REMARK    1  A    between atoms: C_2  and  C_3 
REMARK    2  A    between atoms: C_3  and  N_4 
REMARK    3  A    between atoms: C_7  and  C_8 
REMARK       I    between atoms: C_8  and  N_9 
REMARK    4  A    between atoms: N_9  and  C_10 
REMARK    5  A    between atoms: C_11  and  O_12 
REMARK    6  A    between atoms: C_16  and  C_17 
REMARK       I    between atoms: C_17  and  N_18 
REMARK    7  A    between atoms: C_23  and  C_24 
ROOT
HETATM    1  C   UNL     1      39.992 -15.363   2.474  1.00  0.00     0.259 C 
HETATM    2  N   UNL     1      39.153 -14.284   2.345  1.00  0.00    -0.320 N 
HETATM    3  O   UNL     1      39.920 -16.237   1.608  1.00  0.00    -0.267 OA
HETATM    4  H   UNL     1      38.360 -14.493   1.744  1.00  0.00     0.169 HD
ENDROOT
BRANCH   2   5
HETATM    5  C   UNL     1      39.154 -12.978   2.866  1.00  0.00     0.069 A 
HETATM    6  C   UNL     1      39.096 -11.928   1.923  1.00  0.00     0.095 A 
HETATM    7  C   UNL     1      39.101 -10.601   2.352  1.00  0.00     0.040 A 
HETATM    8  C   UNL     1      39.181 -10.315   3.715  1.00  0.00     0.020 A 
HETATM    9  C   UNL     1      39.284 -11.351   4.652  1.00  0.00     0.034 A 
HETATM   10  C   UNL     1      39.264 -12.688   4.229  1.00  0.00     0.049 A 
BRANCH   6  11
HETATM   11  O   UNL     1      39.043 -12.313   0.604  1.00  0.00    -0.354 OA
HETATM   12  C   UNL     1      38.057 -11.667  -0.196  1.00  0.00     0.210 C 
ENDBRANCH   6  11
BRANCH   9  13
HETATM   13  C   UNL     1      39.427 -10.973   6.082  1.00  0.00     0.251 C 
HETATM   14  N   UNL     1      39.595  -9.627   6.343  1.00  0.00    -0.361 N 
HETATM   15  C   UNL     1      39.570  -9.144   7.702  1.00  0.00     0.149 C 
HETATM   16  H   UNL     1      39.427  -8.960   5.604  1.00  0.00     0.162 HD
HETATM   17  O   UNL     1      39.332 -11.828   6.956  1.00  0.00    -0.268 OA
ENDBRANCH   9  13
ENDBRANCH   2   5
BRANCH   1  18
HETATM   18  C   UNL     1      40.812 -15.526   3.671  1.00  0.00     0.076 A 
HETATM   19  C   UNL     1      40.518 -16.283   4.828  1.00  0.00     0.158 A 
HETATM   20  N   UNL     1      41.510 -16.297   5.712  1.00  0.00    -0.183 NA
HETATM   21  N   UNL     1      42.488 -15.578   5.120  1.00  0.00    -0.268 N 
HETATM   22  C   UNL     1      42.147 -15.156   3.855  1.00  0.00     0.052 A 
BRANCH  21  23
HETATM   23  C   UNL     1      43.673 -15.287   5.920  1.00  0.00     0.106 C 
HETATM   24  C   UNL     1      44.311 -16.581   6.428  1.00  0.00     0.034 C 
BRANCH  23  25
HETATM   25  C   UNL     1      43.386 -14.317   7.087  1.00  0.00     0.022 C 
HETATM   26  C   UNL     1      43.141 -12.889   6.612  1.00  0.00     0.007 C 
ENDBRANCH  23  25
ENDBRANCH  21  23
BRANCH  22  27
HETATM   27  C   UNL     1      42.980 -14.482   2.762  1.00  0.00     0.038 A 
HETATM   28  C   UNL     1      42.524 -13.477   1.740  1.00  0.00     0.011 A 
HETATM   29  C   UNL     1      43.243 -13.003   2.960  1.00  0.00     0.011 A 
ENDBRANCH  22  27
ENDBRANCH   1  18
TORSDOF 7
ENDMDL
MODEL 10
REMARK VINA RESULT:      -6.6     15.955     18.513
REMARK  7 active torsions:
REMARK  status: ('A' for Active; 'I' for Inactive)
REMARK    1  A    between atoms: C_2  and  C_3 
REMARK    2  A    between atoms: C_3  and  N_4 
REMARK    3  A    between atoms: C_7  and  C_8 
REMARK       I    between atoms: C_8  and  N_9 
REMARK    4  A    between atoms: N_9  and  C_10 
REMARK    5  A    between atoms: C_11  and  O_12 
REMARK    6  A    between atoms: C_16  and  C_17 
REMARK       I    between atoms: C_17  and  N_18 
REMARK    7  A    between atoms: C_23  and  C_24 
ROOT
HETATM    1  C   UNL     1      48.995 -29.805  -0.929  1.00  0.00     0.259 C 
HETATM    2  N   UNL     1      48.823 -29.236   0.308  1.00  0.00    -0.320 N 
HETATM    3  O   UNL     1      50.035 -29.532  -1.533  1.00  0.00    -0.267 OA
HETATM    4  H   UNL     1      49.410 -28.414   0.430  1.00  0.00     0.169 HD
ENDROOT
BRANCH   2   5
HETATM    5  C   UNL     1      48.014 -29.538   1.419  1.00  0.00     0.069 A 
HETATM    6  C   UNL     1      48.689 -29.922   2.598  1.00  0.00     0.095 A 
HETATM    7  C   UNL     1      47.964 -30.248   3.744  1.00  0.00     0.040 A 
HETATM    8  C   UNL     1      46.570 -30.208   3.715  1.00  0.00     0.020 A 
HETATM    9  C   UNL     1      45.894 -29.872   2.536  1.00  0.00     0.034 A 
HETATM   10  C   UNL     1      46.617 -29.529   1.384  1.00  0.00     0.049 A 
BRANCH   6  11
HETATM   11  O   UNL     1      50.061 -29.952   2.518  1.00  0.00    -0.354 OA
HETATM   12  C   UNL     1      50.742 -30.479   3.652  1.00  0.00     0.210 C 
ENDBRANCH   6  11
BRANCH   9  13
HETATM   13  C   UNL     1      44.409 -29.909   2.560  1.00  0.00     0.251 C 
HETATM   14  N   UNL     1      43.763 -29.027   1.716  1.00  0.00    -0.361 N 
HETATM   15  C   UNL     1      42.333 -29.106   1.542  1.00  0.00     0.149 C 
HETATM   16  H   UNL     1      44.298 -28.549   1.005  1.00  0.00     0.162 HD
HETATM   17  O   UNL     1      43.826 -30.734   3.256  1.00  0.00    -0.268 OA
ENDBRANCH   9  13
ENDBRANCH   2   5
BRANCH   1  18
HETATM   18  C   UNL     1      47.918 -30.568  -1.551  1.00  0.00     0.076 A 
HETATM   19  C   UNL     1      47.663 -31.954  -1.446  1.00  0.00     0.158 A 
HETATM   20  N   UNL     1      46.551 -32.332  -2.067  1.00  0.00    -0.183 NA
HETATM   21  N   UNL     1      46.038 -31.181  -2.552  1.00  0.00    -0.268 N 
HETATM   22  C   UNL     1      46.783 -30.078  -2.203  1.00  0.00     0.052 A 
BRANCH  21  23
HETATM   23  C   UNL     1      44.872 -31.291  -3.423  1.00  0.00     0.106 C 
HETATM   24  C   UNL     1      44.102 -32.580  -3.132  1.00  0.00     0.034 C 
BRANCH  23  25
HETATM   25  C   UNL     1      45.229 -31.186  -4.922  1.00  0.00     0.022 C 
HETATM   26  C   UNL     1      44.097 -30.594  -5.752  1.00  0.00     0.007 C 
ENDBRANCH  23  25
ENDBRANCH  21  23
BRANCH  22  27
HETATM   27  C   UNL     1      46.503 -28.582  -2.371  1.00  0.00     0.038 A 
HETATM   28  C   UNL     1      45.378 -27.932  -3.128  1.00  0.00     0.011 A 
HETATM   29  C   UNL     1      45.282 -28.060  -1.643  1.00  0.00     0.011 A 
ENDBRANCH  22  27
ENDBRANCH   1  18
TORSDOF 7
ENDMDL
