MODEL 1
REMARK VINA RESULT:      -8.5      0.000      0.000
REMARK  6 active torsions:
REMARK  status: ('A' for Active; 'I' for Inactive)
REMARK    1  A    between atoms: C_3  and  C_4 
REMARK    2  A    between atoms: C_5  and  C_6 
REMARK    3  A    between atoms: C_8  and  N_9 
REMARK       I    between atoms: N_9  and  C_10 
REMARK    4  A    between atoms: C_10  and  C_11 
REMARK    5  A    between atoms: C_11  and  C_12 
REMARK    6  A    between atoms: C_15  and  O_16 
ROOT
HETATM    1  C   UNL     1      42.974 -14.613   5.467  1.00  0.00     0.020 A 
HETATM    2  C   UNL     1      43.922 -13.961   6.265  1.00  0.00     0.050 A 
HETATM    3  C   UNL     1      43.685 -12.666   6.727  1.00  0.00     0.036 A 
HETATM    4  C   UNL     1      42.482 -12.034   6.389  1.00  0.00     0.029 A 
HETATM    5  C   UNL     1      41.525 -12.690   5.609  1.00  0.00     0.004 A 
HETATM    6  C   UNL     1      41.774 -13.981   5.145  1.00  0.00     0.021 A 
ENDROOT
BRANCH   3   7
HETATM    7  N   UNL     1      44.616 -11.924   7.483  1.00  0.00    -0.327 N 
HETATM    8  C   UNL     1      45.571 -11.039   7.007  1.00  0.00     0.226 C 
HETATM    9  O   UNL     1      45.873 -10.855   5.831  1.00  0.00    -0.273 OA
HETATM   10  H   UNL     1      44.557 -12.036   8.488  1.00  0.00     0.169 HD
BRANCH   8  11
HETATM   11  C   UNL     1      46.244 -10.244   8.116  1.00  0.00     0.141 C 
BRANCH  11  12
HETATM   12  C   UNL     1      45.232  -9.516   8.968  1.00  0.00    -0.049 A 
HETATM   13  C   UNL     1      44.523  -8.418   8.463  1.00  0.00     0.010 A 
HETATM   14  C   UNL     1      43.627  -7.724   9.279  1.00  0.00     0.037 A 
HETATM   15  C   UNL     1      43.440  -8.124  10.596  1.00  0.00     0.065 A 
HETATM   16  C   UNL     1      44.129  -9.214  11.115  1.00  0.00     0.037 A 
HETATM   17  C   UNL     1      45.025  -9.908  10.299  1.00  0.00     0.010 A 
BRANCH  15  18
HETATM   18  O   UNL     1      42.564  -7.410  11.359  1.00  0.00    -0.361 OA
HETATM   19  H   UNL     1      42.360  -6.580  10.896  1.00  0.00     0.217 HD
ENDBRANCH  15  18
ENDBRANCH  11  12
ENDBRANCH   8  11
ENDBRANCH   3   7
BRANCH   1  20
HETATM   20  C   UNL     1      43.263 -15.916   4.952  1.00  0.00    -0.060 C 
HETATM   21  C   UNL     1      43.456 -17.026   4.536  1.00  0.00    -0.041 C 
BRANCH  21  22
HETATM   22  C   UNL     1      43.631 -18.356   4.051  1.00  0.00     0.110 A 
HETATM   23  C   UNL     1      43.413 -18.662   2.715  1.00  0.00     0.041 A 
HETATM   24  C   UNL     1      43.573 -19.984   2.310  1.00  0.00     0.004 A 
HETATM   25  C   UNL     1      43.938 -20.943   3.249  1.00  0.00     0.019 A 
HETATM   26  C   UNL     1      44.134 -20.537   4.561  1.00  0.00     0.118 A 
HETATM   27  N   UNL     1      43.989 -19.263   4.984  1.00  0.00    -0.252 NA
ENDBRANCH  21  22
ENDBRANCH   1  20
TORSDOF 6
ENDMDL
MODEL 2
REMARK VINA RESULT:      -8.3      3.308      9.687
REMARK  6 active torsions:
REMARK  status: ('A' for Active; 'I' for Inactive)
REMARK    1  A    between atoms: C_3  and  C_4 
REMARK    2  A    between atoms: C_5  and  C_6 
REMARK    3  A    between atoms: C_8  and  N_9 
REMARK       I    between atoms: N_9  and  C_10 
REMARK    4  A    between atoms: C_10  and  C_11 
REMARK    5  A    between atoms: C_11  and  C_12 
REMARK    6  A    between atoms: C_15  and  O_16 
ROOT
HETATM    1  C   UNL     1      42.989 -11.566   4.683  1.00  0.00     0.020 A 
HETATM    2  C   UNL     1      43.357 -12.860   4.293  1.00  0.00     0.050 A 
HETATM    3  C   UNL     1      43.069 -13.319   3.007  1.00  0.00     0.036 A 
HETATM    4  C   UNL     1      42.416 -12.462   2.111  1.00  0.00     0.029 A 
HETATM    5  C   UNL     1      42.064 -11.164   2.492  1.00  0.00     0.004 A 
HETATM    6  C   UNL     1      42.349 -10.717   3.782  1.00  0.00     0.021 A 
ENDROOT
BRANCH   3   7
HETATM    7  N   UNL     1      43.355 -14.626   2.561  1.00  0.00    -0.327 N 
HETATM    8  C   UNL     1      42.539 -15.742   2.654  1.00  0.00     0.226 C 
HETATM    9  O   UNL     1      41.481 -15.823   3.272  1.00  0.00    -0.273 OA
HETATM   10  H   UNL     1      44.248 -14.749   2.100  1.00  0.00     0.169 HD
BRANCH   8  11
HETATM   11  C   UNL     1      43.071 -16.929   1.864  1.00  0.00     0.141 C 
BRANCH  11  12
HETATM   12  C   UNL     1      43.396 -18.094   2.766  1.00  0.00    -0.049 A 
HETATM   13  C   UNL     1      43.803 -17.888   4.092  1.00  0.00     0.010 A 
HETATM   14  C   UNL     1      44.147 -18.974   4.898  1.00  0.00     0.037 A 
HETATM   15  C   UNL     1      44.088 -20.264   4.384  1.00  0.00     0.065 A 
HETATM   16  C   UNL     1      43.681 -20.490   3.074  1.00  0.00     0.037 A 
HETATM   17  C   UNL     1      43.336 -19.405   2.268  1.00  0.00     0.010 A 
BRANCH  15  18
HETATM   18  O   UNL     1      44.444 -21.292   5.205  1.00  0.00    -0.361 OA
HETATM   19  H   UNL     1      45.223 -21.020   5.718  1.00  0.00     0.217 HD
ENDBRANCH  15  18
ENDBRANCH  11  12
ENDBRANCH   8  11
ENDBRANCH   3   7
BRANCH   1  20
HETATM   20  C   UNL     1      43.237 -11.138   6.025  1.00  0.00    -0.060 C 
HETATM   21  C   UNL     1      43.480 -10.741   7.132  1.00  0.00    -0.041 C 
BRANCH  21  22
HETATM   22  C   UNL     1      43.798 -10.226   8.424  1.00  0.00     0.110 A 
HETATM   23  C   UNL     1      45.094 -10.286   8.917  1.00  0.00     0.041 A 
HETATM   24  C   UNL     1      45.334  -9.792  10.196  1.00  0.00     0.004 A 
HETATM   25  C   UNL     1      44.277  -9.262  10.928  1.00  0.00     0.019 A 
HETATM   26  C   UNL     1      43.018  -9.245  10.348  1.00  0.00     0.118 A 
HETATM   27  N   UNL     1      42.753  -9.715   9.109  1.00  0.00    -0.252 NA
ENDBRANCH  21  22
ENDBRANCH   1  20
TORSDOF 6
ENDMDL
MODEL 3
REMARK VINA RESULT:      -8.1      5.680      8.642
REMARK  6 active torsions:
REMARK  status: ('A' for Active; 'I' for Inactive)
REMARK    1  A    between atoms: C_3  and  C_4 
REMARK    2  A    between atoms: C_5  and  C_6 
REMARK    3  A    between atoms: C_8  and  N_9 
REMARK       I    between atoms: N_9  and  C_10 
REMARK    4  A    between atoms: C_10  and  C_11 
REMARK    5  A    between atoms: C_11  and  C_12 
REMARK    6  A    between atoms: C_15  and  O_16 
ROOT
HETATM    1  C   UNL     1      42.750 -13.990   2.905  1.00  0.00     0.020 A 
HETATM    2  C   UNL     1      41.967 -13.519   1.844  1.00  0.00     0.050 A 
HETATM    3  C   UNL     1      41.595 -12.175   1.783  1.00  0.00     0.036 A 
HETATM    4  C   UNL     1      42.025 -11.305   2.793  1.00  0.00     0.029 A 
HETATM    5  C   UNL     1      42.823 -11.769   3.843  1.00  0.00     0.004 A 
HETATM    6  C   UNL     1      43.183 -13.115   3.900  1.00  0.00     0.021 A 
ENDROOT
BRANCH   3   7
HETATM    7  N   UNL     1      40.761 -11.640   0.779  1.00  0.00    -0.327 N 
HETATM    8  C   UNL     1      41.110 -10.729  -0.205  1.00  0.00     0.226 C 
HETATM    9  O   UNL     1      42.170 -10.115  -0.289  1.00  0.00    -0.273 OA
HETATM   10  H   UNL     1      39.809 -11.984   0.768  1.00  0.00     0.169 HD
BRANCH   8  11
HETATM   11  C   UNL     1      40.023 -10.552  -1.255  1.00  0.00     0.141 C 
BRANCH  11  12
HETATM   12  C   UNL     1      39.542 -11.881  -1.784  1.00  0.00    -0.049 A 
HETATM   13  C   UNL     1      38.184 -12.224  -1.742  1.00  0.00     0.010 A 
HETATM   14  C   UNL     1      37.761 -13.477  -2.190  1.00  0.00     0.037 A 
HETATM   15  C   UNL     1      38.691 -14.387  -2.676  1.00  0.00     0.065 A 
HETATM   16  C   UNL     1      40.042 -14.065  -2.732  1.00  0.00     0.037 A 
HETATM   17  C   UNL     1      40.465 -12.812  -2.285  1.00  0.00     0.010 A 
BRANCH  15  18
HETATM   18  O   UNL     1      38.234 -15.603  -3.091  1.00  0.00    -0.361 OA
HETATM   19  H   UNL     1      38.787 -16.293  -2.688  1.00  0.00     0.217 HD
ENDBRANCH  15  18
ENDBRANCH  11  12
ENDBRANCH   8  11
ENDBRANCH   3   7
BRANCH   1  20
HETATM   20  C   UNL     1      43.067 -15.383   2.982  1.00  0.00    -0.060 C 
HETATM   21  C   UNL     1      43.279 -16.562   3.056  1.00  0.00    -0.041 C 
BRANCH  21  22
HETATM   22  C   UNL     1      43.475 -17.972   3.146  1.00  0.00     0.110 A 
HETATM   23  C   UNL     1      43.105 -18.812   2.104  1.00  0.00     0.041 A 
HETATM   24  C   UNL     1      43.296 -20.181   2.264  1.00  0.00     0.004 A 
HETATM   25  C   UNL     1      43.844 -20.656   3.451  1.00  0.00     0.019 A 
HETATM   26  C   UNL     1      44.184 -19.737   4.433  1.00  0.00     0.118 A 
HETATM   27  N   UNL     1      44.012 -18.403   4.308  1.00  0.00    -0.252 NA
ENDBRANCH  21  22
ENDBRANCH   1  20
TORSDOF 6
ENDMDL
MODEL 4
REMARK VINA RESULT:      -8.0      2.964     10.081
REMARK  6 active torsions:
REMARK  status: ('A' for Active; 'I' for Inactive)
REMARK    1  A    between atoms: C_3  and  C_4 
REMARK    2  A    between atoms: C_5  and  C_6 
REMARK    3  A    between atoms: C_8  and  N_9 
REMARK       I    between atoms: N_9  and  C_10 
REMARK    4  A    between atoms: C_10  and  C_11 
REMARK    5  A    between atoms: C_11  and  C_12 
REMARK    6  A    between atoms: C_15  and  O_16 
ROOT
HETATM    1  C   UNL     1      44.641 -10.523   8.857  1.00  0.00     0.020 A 
HETATM    2  C   UNL     1      43.866 -11.422   8.113  1.00  0.00     0.050 A 
HETATM    3  C   UNL     1      44.353 -11.952   6.917  1.00  0.00     0.036 A 
HETATM    4  C   UNL     1      45.630 -11.579   6.479  1.00  0.00     0.029 A 
HETATM    5  C   UNL     1      46.412 -10.696   7.230  1.00  0.00     0.004 A 
HETATM    6  C   UNL     1      45.915 -10.165   8.419  1.00  0.00     0.021 A 
ENDROOT
BRANCH   3   7
HETATM    7  N   UNL     1      43.609 -12.815   6.085  1.00  0.00    -0.327 N 
HETATM    8  C   UNL     1      42.991 -14.002   6.445  1.00  0.00     0.226 C 
HETATM    9  O   UNL     1      43.103 -14.587   7.518  1.00  0.00    -0.273 OA
HETATM   10  H   UNL     1      43.498 -12.514   5.125  1.00  0.00     0.169 HD
BRANCH   8  11
HETATM   11  C   UNL     1      42.086 -14.550   5.351  1.00  0.00     0.141 C 
BRANCH  11  12
HETATM   12  C   UNL     1      42.714 -15.730   4.652  1.00  0.00    -0.049 A 
HETATM   13  C   UNL     1      42.683 -15.841   3.255  1.00  0.00     0.010 A 
HETATM   14  C   UNL     1      43.224 -16.964   2.626  1.00  0.00     0.037 A 
HETATM   15  C   UNL     1      43.794 -17.975   3.389  1.00  0.00     0.065 A 
HETATM   16  C   UNL     1      43.840 -17.883   4.776  1.00  0.00     0.037 A 
HETATM   17  C   UNL     1      43.299 -16.760   5.405  1.00  0.00     0.010 A 
BRANCH  15  18
HETATM   18  O   UNL     1      44.300 -19.058   2.733  1.00  0.00    -0.361 OA
HETATM   19  H   UNL     1      43.897 -19.097   1.849  1.00  0.00     0.217 HD
ENDBRANCH  15  18
ENDBRANCH  11  12
ENDBRANCH   8  11
ENDBRANCH   3   7
BRANCH   1  20
HETATM   20  C   UNL     1      44.098  -9.943  10.047  1.00  0.00    -0.060 C 
HETATM   21  C   UNL     1      43.606  -9.499  11.048  1.00  0.00    -0.041 C 
BRANCH  21  22
HETATM   22  C   UNL     1      42.991  -9.018  12.242  1.00  0.00     0.110 A 
HETATM   23  C   UNL     1      43.502  -7.916  12.914  1.00  0.00     0.041 A 
HETATM   24  C   UNL     1      42.874  -7.513  14.089  1.00  0.00     0.004 A 
HETATM   25  C   UNL     1      41.769  -8.224  14.546  1.00  0.00     0.019 A 
HETATM   26  C   UNL     1      41.333  -9.312  13.803  1.00  0.00     0.118 A 
HETATM   27  N   UNL     1      41.920  -9.726  12.659  1.00  0.00    -0.252 NA
ENDBRANCH  21  22
ENDBRANCH   1  20
TORSDOF 6
ENDMDL
MODEL 5
REMARK VINA RESULT:      -8.0      2.637      4.851
REMARK  6 active torsions:
REMARK  status: ('A' for Active; 'I' for Inactive)
REMARK    1  A    between atoms: C_3  and  C_4 
REMARK    2  A    between atoms: C_5  and  C_6 
REMARK    3  A    between atoms: C_8  and  N_9 
REMARK       I    between atoms: N_9  and  C_10 
REMARK    4  A    between atoms: C_10  and  C_11 
REMARK    5  A    between atoms: C_11  and  C_12 
REMARK    6  A    between atoms: C_15  and  O_16 
ROOT
HETATM    1  C   UNL     1      44.800 -11.228   7.570  1.00  0.00     0.020 A 
HETATM    2  C   UNL     1      43.976 -10.503   8.440  1.00  0.00     0.050 A 
HETATM    3  C   UNL     1      44.441  -9.332   9.041  1.00  0.00     0.036 A 
HETATM    4  C   UNL     1      45.739  -8.890   8.752  1.00  0.00     0.029 A 
HETATM    5  C   UNL     1      46.556  -9.603   7.870  1.00  0.00     0.004 A 
HETATM    6  C   UNL     1      46.086 -10.776   7.280  1.00  0.00     0.021 A 
ENDROOT
BRANCH   3   7
HETATM    7  N   UNL     1      43.693  -8.581   9.971  1.00  0.00    -0.327 N 
HETATM    8  C   UNL     1      42.818  -7.541   9.701  1.00  0.00     0.226 C 
HETATM    9  O   UNL     1      42.648  -6.993   8.615  1.00  0.00    -0.273 OA
HETATM   10  H   UNL     1      43.794  -8.854  10.941  1.00  0.00     0.169 HD
BRANCH   8  11
HETATM   11  C   UNL     1      42.012  -7.117  10.920  1.00  0.00     0.141 C 
BRANCH  11  12
HETATM   12  C   UNL     1      41.347  -8.298  11.582  1.00  0.00    -0.049 A 
HETATM   13  C   UNL     1      40.375  -9.050  10.908  1.00  0.00     0.010 A 
HETATM   14  C   UNL     1      39.733 -10.110  11.552  1.00  0.00     0.037 A 
HETATM   15  C   UNL     1      40.058 -10.418  12.867  1.00  0.00     0.065 A 
HETATM   16  C   UNL     1      41.023  -9.689  13.552  1.00  0.00     0.037 A 
HETATM   17  C   UNL     1      41.665  -8.630  12.909  1.00  0.00     0.010 A 
BRANCH  15  18
HETATM   18  O   UNL     1      39.397 -11.453  13.459  1.00  0.00    -0.361 OA
HETATM   19  H   UNL     1      38.979 -11.125  14.272  1.00  0.00     0.217 HD
ENDBRANCH  15  18
ENDBRANCH  11  12
ENDBRANCH   8  11
ENDBRANCH   3   7
BRANCH   1  20
HETATM   20  C   UNL     1      44.327 -12.459   7.015  1.00  0.00    -0.060 C 
HETATM   21  C   UNL     1      43.959 -13.519   6.588  1.00  0.00    -0.041 C 
BRANCH  21  22
HETATM   22  C   UNL     1      43.547 -14.804   6.124  1.00  0.00     0.110 A 
HETATM   23  C   UNL     1      44.281 -15.942   6.430  1.00  0.00     0.041 A 
HETATM   24  C   UNL     1      43.842 -17.162   5.924  1.00  0.00     0.004 A 
HETATM   25  C   UNL     1      42.696 -17.197   5.136  1.00  0.00     0.019 A 
HETATM   26  C   UNL     1      42.031 -16.006   4.888  1.00  0.00     0.118 A 
HETATM   27  N   UNL     1      42.430 -14.807   5.365  1.00  0.00    -0.252 NA
ENDBRANCH  21  22
ENDBRANCH   1  20
TORSDOF 6
ENDMDL
MODEL 6
REMARK VINA RESULT:      -7.9      1.270      1.622
REMARK  6 active torsions:
REMARK  status: ('A' for Active; 'I' for Inactive)
REMARK    1  A    between atoms: C_3  and  C_4 
REMARK    2  A    between atoms: C_5  and  C_6 
REMARK    3  A    between atoms: C_8  and  N_9 
REMARK       I    between atoms: N_9  and  C_10 
REMARK    4  A    between atoms: C_10  and  C_11 
REMARK    5  A    between atoms: C_11  and  C_12 
REMARK    6  A    between atoms: C_15  and  O_16 
ROOT
HETATM    1  C   UNL     1      42.753 -14.141   4.040  1.00  0.00     0.020 A 
HETATM    2  C   UNL     1      43.486 -13.393   4.971  1.00  0.00     0.050 A 
HETATM    3  C   UNL     1      43.243 -12.028   5.128  1.00  0.00     0.036 A 
HETATM    4  C   UNL     1      42.249 -11.421   4.350  1.00  0.00     0.029 A 
HETATM    5  C   UNL     1      41.503 -12.169   3.435  1.00  0.00     0.004 A 
HETATM    6  C   UNL     1      41.758 -13.531   3.277  1.00  0.00     0.021 A 
ENDROOT
BRANCH   3   7
HETATM    7  N   UNL     1      43.979 -11.199   6.000  1.00  0.00    -0.327 N 
HETATM    8  C   UNL     1      44.354 -11.476   7.306  1.00  0.00     0.226 C 
HETATM    9  O   UNL     1      43.987 -12.432   7.983  1.00  0.00    -0.273 OA
HETATM   10  H   UNL     1      44.285 -10.315   5.614  1.00  0.00     0.169 HD
BRANCH   8  11
HETATM   11  C   UNL     1      45.336 -10.457   7.865  1.00  0.00     0.141 C 
BRANCH  11  12
HETATM   12  C   UNL     1      44.686  -9.572   8.900  1.00  0.00    -0.049 A 
HETATM   13  C   UNL     1      44.674  -9.935  10.254  1.00  0.00     0.010 A 
HETATM   14  C   UNL     1      44.025  -9.129  11.192  1.00  0.00     0.037 A 
HETATM   15  C   UNL     1      43.387  -7.966  10.781  1.00  0.00     0.065 A 
HETATM   16  C   UNL     1      43.392  -7.585   9.444  1.00  0.00     0.037 A 
HETATM   17  C   UNL     1      44.041  -8.389   8.506  1.00  0.00     0.010 A 
BRANCH  15  18
HETATM   18  O   UNL     1      42.757  -7.217  11.730  1.00  0.00    -0.361 OA
HETATM   19  H   UNL     1      41.970  -7.702  12.031  1.00  0.00     0.217 HD
ENDBRANCH  15  18
ENDBRANCH  11  12
ENDBRANCH   8  11
ENDBRANCH   3   7
BRANCH   1  20
HETATM   20  C   UNL     1      43.061 -15.524   3.849  1.00  0.00    -0.060 C 
HETATM   21  C   UNL     1      43.266 -16.694   3.675  1.00  0.00    -0.041 C 
BRANCH  21  22
HETATM   22  C   UNL     1      43.459 -18.089   3.445  1.00  0.00     0.110 A 
HETATM   23  C   UNL     1      43.119 -18.666   2.229  1.00  0.00     0.041 A 
HETATM   24  C   UNL     1      43.305 -20.037   2.077  1.00  0.00     0.004 A 
HETATM   25  C   UNL     1      43.817 -20.774   3.140  1.00  0.00     0.019 A 
HETATM   26  C   UNL     1      44.127 -20.106   4.315  1.00  0.00     0.118 A 
HETATM   27  N   UNL     1      43.960 -18.778   4.493  1.00  0.00    -0.252 NA
ENDBRANCH  21  22
ENDBRANCH   1  20
TORSDOF 6
ENDMDL
MODEL 7
REMARK VINA RESULT:      -7.9      4.592      9.716
REMARK  6 active torsions:
REMARK  status: ('A' for Active; 'I' for Inactive)
REMARK    1  A    between atoms: C_3  and  C_4 
REMARK    2  A    between atoms: C_5  and  C_6 
REMARK    3  A    between atoms: C_8  and  N_9 
REMARK       I    between atoms: N_9  and  C_10 
REMARK    4  A    between atoms: C_10  and  C_11 
REMARK    5  A    between atoms: C_11  and  C_12 
REMARK    6  A    between atoms: C_15  and  O_16 
ROOT
HETATM    1  C   UNL     1      43.362 -14.464   5.835  1.00  0.00     0.020 A 
HETATM    2  C   UNL     1      42.383 -14.336   4.841  1.00  0.00     0.050 A 
HETATM    3  C   UNL     1      41.914 -15.463   4.165  1.00  0.00     0.036 A 
HETATM    4  C   UNL     1      42.428 -16.721   4.502  1.00  0.00     0.029 A 
HETATM    5  C   UNL     1      43.392 -16.852   5.506  1.00  0.00     0.004 A 
HETATM    6  C   UNL     1      43.862 -15.721   6.171  1.00  0.00     0.021 A 
ENDROOT
BRANCH   3   7
HETATM    7  N   UNL     1      40.974 -15.408   3.114  1.00  0.00    -0.327 N 
HETATM    8  C   UNL     1      41.219 -15.570   1.760  1.00  0.00     0.226 C 
HETATM    9  O   UNL     1      42.319 -15.645   1.221  1.00  0.00    -0.273 OA
HETATM   10  H   UNL     1      40.012 -15.258   3.391  1.00  0.00     0.169 HD
BRANCH   8  11
HETATM   11  C   UNL     1      39.942 -15.679   0.939  1.00  0.00     0.141 C 
BRANCH  11  12
HETATM   12  C   UNL     1      39.881 -14.620  -0.135  1.00  0.00    -0.049 A 
HETATM   13  C   UNL     1      40.218 -13.289   0.145  1.00  0.00     0.010 A 
HETATM   14  C   UNL     1      40.109 -12.313  -0.846  1.00  0.00     0.037 A 
HETATM   15  C   UNL     1      39.663 -12.662  -2.115  1.00  0.00     0.065 A 
HETATM   16  C   UNL     1      39.330 -13.978  -2.415  1.00  0.00     0.037 A 
HETATM   17  C   UNL     1      39.439 -14.955  -1.424  1.00  0.00     0.010 A 
BRANCH  15  18
HETATM   18  O   UNL     1      39.562 -11.674  -3.048  1.00  0.00    -0.361 OA
HETATM   19  H   UNL     1      40.290 -11.044  -2.909  1.00  0.00     0.217 HD
ENDBRANCH  15  18
ENDBRANCH  11  12
ENDBRANCH   8  11
ENDBRANCH   3   7
BRANCH   1  20
HETATM   20  C   UNL     1      43.876 -13.290   6.472  1.00  0.00    -0.060 C 
HETATM   21  C   UNL     1      44.296 -12.328   7.055  1.00  0.00    -0.041 C 
BRANCH  21  22
HETATM   22  C   UNL     1      44.789 -11.214   7.797  1.00  0.00     0.110 A 
HETATM   23  C   UNL     1      45.810 -10.419   7.296  1.00  0.00     0.041 A 
HETATM   24  C   UNL     1      46.267  -9.364   8.080  1.00  0.00     0.004 A 
HETATM   25  C   UNL     1      45.691  -9.147   9.328  1.00  0.00     0.019 A 
HETATM   26  C   UNL     1      44.675  -9.996   9.740  1.00  0.00     0.118 A 
HETATM   27  N   UNL     1      44.209 -11.027   9.002  1.00  0.00    -0.252 NA
ENDBRANCH  21  22
ENDBRANCH   1  20
TORSDOF 6
ENDMDL
MODEL 8
REMARK VINA RESULT:      -7.5      5.486     10.236
REMARK  6 active torsions:
REMARK  status: ('A' for Active; 'I' for Inactive)
REMARK    1  A    between atoms: C_3  and  C_4 
REMARK    2  A    between atoms: C_5  and  C_6 
REMARK    3  A    between atoms: C_8  and  N_9 
REMARK       I    between atoms: N_9  and  C_10 
REMARK    4  A    between atoms: C_10  and  C_11 
REMARK    5  A    between atoms: C_11  and  C_12 
REMARK    6  A    between atoms: C_15  and  O_16 
ROOT
HETATM    1  C   UNL     1      43.004 -13.358   4.900  1.00  0.00     0.020 A 
HETATM    2  C   UNL     1      42.381 -12.695   3.834  1.00  0.00     0.050 A 
HETATM    3  C   UNL     1      41.882 -13.417   2.749  1.00  0.00     0.036 A 
HETATM    4  C   UNL     1      42.004 -14.813   2.748  1.00  0.00     0.029 A 
HETATM    5  C   UNL     1      42.608 -15.477   3.820  1.00  0.00     0.004 A 
HETATM    6  C   UNL     1      43.112 -14.747   4.896  1.00  0.00     0.021 A 
ENDROOT
BRANCH   3   7
HETATM    7  N   UNL     1      41.297 -12.818   1.615  1.00  0.00    -0.327 N 
HETATM    8  C   UNL     1      39.946 -12.632   1.366  1.00  0.00     0.226 C 
HETATM    9  O   UNL     1      39.013 -13.089   2.021  1.00  0.00    -0.273 OA
HETATM   10  H   UNL     1      41.943 -12.463   0.921  1.00  0.00     0.169 HD
BRANCH   8  11
HETATM   11  C   UNL     1      39.686 -11.746   0.157  1.00  0.00     0.141 C 
BRANCH  11  12
HETATM   12  C   UNL     1      39.277 -12.558  -1.048  1.00  0.00    -0.049 A 
HETATM   13  C   UNL     1      37.956 -12.540  -1.514  1.00  0.00     0.010 A 
HETATM   14  C   UNL     1      37.582 -13.335  -2.599  1.00  0.00     0.037 A 
HETATM   15  C   UNL     1      38.524 -14.147  -3.218  1.00  0.00     0.065 A 
HETATM   16  C   UNL     1      39.842 -14.175  -2.775  1.00  0.00     0.037 A 
HETATM   17  C   UNL     1      40.216 -13.380  -1.691  1.00  0.00     0.010 A 
BRANCH  15  18
HETATM   18  O   UNL     1      38.111 -14.915  -4.266  1.00  0.00    -0.361 OA
HETATM   19  H   UNL     1      38.782 -15.600  -4.428  1.00  0.00     0.217 HD
ENDBRANCH  15  18
ENDBRANCH  11  12
ENDBRANCH   8  11
ENDBRANCH   3   7
BRANCH   1  20
HETATM   20  C   UNL     1      43.565 -12.595   5.972  1.00  0.00    -0.060 C 
HETATM   21  C   UNL     1      44.021 -11.907   6.844  1.00  0.00    -0.041 C 
BRANCH  21  22
HETATM   22  C   UNL     1      44.540 -11.046   7.856  1.00  0.00     0.110 A 
HETATM   23  C   UNL     1      45.563 -10.151   7.576  1.00  0.00     0.041 A 
HETATM   24  C   UNL     1      46.045  -9.358   8.613  1.00  0.00     0.004 A 
HETATM   25  C   UNL     1      45.492  -9.490   9.882  1.00  0.00     0.019 A 
HETATM   26  C   UNL     1      44.472 -10.412  10.062  1.00  0.00     0.118 A 
HETATM   27  N   UNL     1      43.981 -11.195   9.076  1.00  0.00    -0.252 NA
ENDBRANCH  21  22
ENDBRANCH   1  20
TORSDOF 6
ENDMDL
MODEL 9
REMARK VINA RESULT:      -7.5      2.798      4.751
REMARK  6 active torsions:
REMARK  status: ('A' for Active; 'I' for Inactive)
REMARK    1  A    between atoms: C_3  and  C_4 
REMARK    2  A    between atoms: C_5  and  C_6 
REMARK    3  A    between atoms: C_8  and  N_9 
REMARK       I    between atoms: N_9  and  C_10 
REMARK    4  A    between atoms: C_10  and  C_11 
REMARK    5  A    between atoms: C_11  and  C_12 
REMARK    6  A    between atoms: C_15  and  O_16 
ROOT
HETATM    1  C   UNL     1      44.279 -11.503   6.718  1.00  0.00     0.020 A 
HETATM    2  C   UNL     1      43.520 -10.637   7.514  1.00  0.00     0.050 A 
HETATM    3  C   UNL     1      44.149  -9.700   8.337  1.00  0.00     0.036 A 
HETATM    4  C   UNL     1      45.548  -9.635   8.345  1.00  0.00     0.029 A 
HETATM    5  C   UNL     1      46.307 -10.486   7.537  1.00  0.00     0.004 A 
HETATM    6  C   UNL     1      45.671 -11.424   6.724  1.00  0.00     0.021 A 
ENDROOT
BRANCH   3   7
HETATM    7  N   UNL     1      43.455  -8.836   9.209  1.00  0.00    -0.327 N 
HETATM    8  C   UNL     1      43.606  -8.730  10.582  1.00  0.00     0.226 C 
HETATM    9  O   UNL     1      44.266  -9.473  11.303  1.00  0.00    -0.273 OA
HETATM   10  H   UNL     1      42.792  -8.207   8.771  1.00  0.00     0.169 HD
BRANCH   8  11
HETATM   11  C   UNL     1      42.865  -7.536  11.166  1.00  0.00     0.141 C 
BRANCH  11  12
HETATM   12  C   UNL     1      42.450  -7.787  12.595  1.00  0.00    -0.049 A 
HETATM   13  C   UNL     1      41.427  -8.695  12.900  1.00  0.00     0.010 A 
HETATM   14  C   UNL     1      41.020  -8.879  14.223  1.00  0.00     0.037 A 
HETATM   15  C   UNL     1      41.631  -8.157  15.240  1.00  0.00     0.065 A 
HETATM   16  C   UNL     1      42.652  -7.255  14.961  1.00  0.00     0.037 A 
HETATM   17  C   UNL     1      43.059  -7.071  13.638  1.00  0.00     0.010 A 
BRANCH  15  18
HETATM   18  O   UNL     1      41.194  -8.361  16.515  1.00  0.00    -0.361 OA
HETATM   19  H   UNL     1      41.535  -9.217  16.824  1.00  0.00     0.217 HD
ENDBRANCH  15  18
ENDBRANCH  11  12
ENDBRANCH   8  11
ENDBRANCH   3   7
BRANCH   1  20
HETATM   20  C   UNL     1      43.618 -12.497   5.931  1.00  0.00    -0.060 C 
HETATM   21  C   UNL     1      43.087 -13.371   5.301  1.00  0.00    -0.041 C 
BRANCH  21  22
HETATM   22  C   UNL     1      42.475 -14.447   4.591  1.00  0.00     0.110 A 
HETATM   23  C   UNL     1      41.354 -15.090   5.097  1.00  0.00     0.041 A 
HETATM   24  C   UNL     1      40.821 -16.150   4.370  1.00  0.00     0.004 A 
HETATM   25  C   UNL     1      41.426 -16.526   3.175  1.00  0.00     0.019 A 
HETATM   26  C   UNL     1      42.543 -15.821   2.753  1.00  0.00     0.118 A 
HETATM   27  N   UNL     1      43.083 -14.787   3.434  1.00  0.00    -0.252 NA
ENDBRANCH  21  22
ENDBRANCH   1  20
TORSDOF 6
ENDMDL
MODEL 10
REMARK VINA RESULT:      -7.4     17.414     19.858
REMARK  6 active torsions:
REMARK  status: ('A' for Active; 'I' for Inactive)
REMARK    1  A    between atoms: C_3  and  C_4 
REMARK    2  A    between atoms: C_5  and  C_6 
REMARK    3  A    between atoms: C_8  and  N_9 
REMARK       I    between atoms: N_9  and  C_10 
REMARK    4  A    between atoms: C_10  and  C_11 
REMARK    5  A    between atoms: C_11  and  C_12 
REMARK    6  A    between atoms: C_15  and  O_16 
ROOT
HETATM    1  C   UNL     1      50.145 -30.793   2.454  1.00  0.00     0.020 A 
HETATM    2  C   UNL     1      48.758 -30.671   2.301  1.00  0.00     0.050 A 
HETATM    3  C   UNL     1      48.212 -30.338   1.060  1.00  0.00     0.036 A 
HETATM    4  C   UNL     1      49.070 -30.138  -0.029  1.00  0.00     0.029 A 
HETATM    5  C   UNL     1      50.453 -30.278   0.118  1.00  0.00     0.004 A 
HETATM    6  C   UNL     1      50.991 -30.602   1.363  1.00  0.00     0.021 A 
ENDROOT
BRANCH   3   7
HETATM    7  N   UNL     1      46.833 -30.140   0.842  1.00  0.00    -0.327 N 
HETATM    8  C   UNL     1      46.115 -28.966   1.011  1.00  0.00     0.226 C 
HETATM    9  O   UNL     1      46.526 -27.927   1.521  1.00  0.00    -0.273 OA
HETATM   10  H   UNL     1      46.320 -30.944   0.500  1.00  0.00     0.169 HD
BRANCH   8  11
HETATM   11  C   UNL     1      44.699 -29.056   0.463  1.00  0.00     0.141 C 
BRANCH  11  12
HETATM   12  C   UNL     1      44.691 -29.093  -1.046  1.00  0.00    -0.049 A 
HETATM   13  C   UNL     1      44.227 -30.220  -1.737  1.00  0.00     0.010 A 
HETATM   14  C   UNL     1      44.272 -30.258  -3.132  1.00  0.00     0.037 A 
HETATM   15  C   UNL     1      44.781 -29.174  -3.837  1.00  0.00     0.065 A 
HETATM   16  C   UNL     1      45.242 -28.044  -3.171  1.00  0.00     0.037 A 
HETATM   17  C   UNL     1      45.196 -28.006  -1.777  1.00  0.00     0.010 A 
BRANCH  15  18
HETATM   18  O   UNL     1      44.817 -29.260  -5.197  1.00  0.00    -0.361 OA
HETATM   19  H   UNL     1      45.744 -29.346  -5.475  1.00  0.00     0.217 HD
ENDBRANCH  15  18
ENDBRANCH  11  12
ENDBRANCH   8  11
ENDBRANCH   3   7
BRANCH   1  20
HETATM   20  C   UNL     1      50.688 -31.072   3.747  1.00  0.00    -0.060 C 
HETATM   21  C   UNL     1      51.180 -31.341   4.809  1.00  0.00    -0.041 C 
BRANCH  21  22
HETATM   22  C   UNL     1      51.806 -31.690   6.043  1.00  0.00     0.110 A 
HETATM   23  C   UNL     1      51.285 -32.693   6.848  1.00  0.00     0.041 A 
HETATM   24  C   UNL     1      51.925 -32.967   8.054  1.00  0.00     0.004 A 
HETATM   25  C   UNL     1      53.051 -32.230   8.407  1.00  0.00     0.019 A 
HETATM   26  C   UNL     1      53.495 -31.248   7.534  1.00  0.00     0.118 A 
HETATM   27  N   UNL     1      52.897 -30.960   6.358  1.00  0.00    -0.252 NA
ENDBRANCH  21  22
ENDBRANCH   1  20
TORSDOF 6
ENDMDL
