MODEL 1
REMARK VINA RESULT:      -8.6      0.000      0.000
REMARK  3 active torsions:
REMARK  status: ('A' for Active; 'I' for Inactive)
REMARK    1  A    between atoms: C_3  and  N_4 
REMARK       I    between atoms: N_4  and  C_5 
REMARK    2  A    between atoms: C_5  and  C_6 
REMARK    3  A    between atoms: C_6  and  C_7 
ROOT
HETATM    1  C   UNL     1      41.597 -16.190   5.340  1.00  0.00     0.286 C 
HETATM    2  N   UNL     1      42.448 -15.206   4.541  1.00  0.00    -0.056 N 
HETATM    3  H   UNL     1      43.048 -14.726   5.247  1.00  0.00     0.278 HD
HETATM    4  H   UNL     1      43.094 -15.703   3.917  1.00  0.00     0.278 HD
HETATM    5  C   UNL     1      41.671 -14.151   3.805  1.00  0.00     0.209 C 
HETATM    6  C   UNL     1      40.727 -13.427   4.796  1.00  0.00     0.115 C 
HETATM    7  N   UNL     1      39.933 -14.354   5.601  1.00  0.00    -0.353 N 
HETATM    8  C   UNL     1      40.442 -15.519   6.117  1.00  0.00     0.249 C 
HETATM    9  O   UNL     1      39.922 -16.031   7.103  1.00  0.00    -0.271 OA
HETATM   10  C   UNL     1      40.933 -14.772   2.617  1.00  0.00     0.035 C 
HETATM   11  C   UNL     1      40.058 -13.737   1.913  1.00  0.00     0.002 C 
HETATM   12  C   UNL     1      39.088 -13.069   2.885  1.00  0.00     0.002 C 
HETATM   13  C   UNL     1      39.823 -12.431   4.064  1.00  0.00     0.027 C 
HETATM   14  H   UNL     1      39.206 -13.959   6.197  1.00  0.00     0.163 HD
ENDROOT
BRANCH   1  15
HETATM   15  C   UNL     1      42.470 -17.026   6.282  1.00  0.00     0.146 C 
BRANCH  15  16
HETATM   16  C   UNL     1      43.929 -16.798   5.960  1.00  0.00     0.224 C 
HETATM   17  N   UNL     1      44.619 -17.591   5.101  1.00  0.00    -0.325 N 
HETATM   18  H   UNL     1      45.624 -17.458   5.167  1.00  0.00     0.169 HD
HETATM   19  O   UNL     1      44.514 -15.877   6.549  1.00  0.00    -0.273 OA
BRANCH  17  20
HETATM   20  C   UNL     1      44.200 -18.597   4.205  1.00  0.00     0.073 A 
HETATM   21  C   UNL     1      43.699 -18.165   2.969  1.00  0.00     0.033 A 
HETATM   22  C   UNL     1      43.275 -19.087   2.007  1.00  0.00     0.002 A 
HETATM   23  C   UNL     1      43.318 -20.452   2.278  1.00  0.00     0.003 A 
HETATM   24  C   UNL     1      43.769 -20.894   3.517  1.00  0.00     0.044 A 
HETATM   25  C   UNL     1      44.197 -19.971   4.472  1.00  0.00     0.143 A 
HETATM   26  F   UNL     1      44.532 -20.443   5.680  1.00  0.00    -0.204 F 
ENDBRANCH  17  20
ENDBRANCH  15  16
ENDBRANCH   1  15
TORSDOF 3
ENDMDL
MODEL 2
REMARK VINA RESULT:      -8.4      1.077      1.484
REMARK  3 active torsions:
REMARK  status: ('A' for Active; 'I' for Inactive)
REMARK    1  A    between atoms: C_3  and  N_4 
REMARK       I    between atoms: N_4  and  C_5 
REMARK    2  A    between atoms: C_5  and  C_6 
REMARK    3  A    between atoms: C_6  and  C_7 
ROOT
HETATM    1  C   UNL     1      41.684 -15.952   5.407  1.00  0.00     0.286 C 
HETATM    2  N   UNL     1      42.526 -14.848   4.771  1.00  0.00    -0.056 N 
HETATM    3  H   UNL     1      43.031 -14.397   5.565  1.00  0.00     0.278 HD
HETATM    4  H   UNL     1      43.253 -15.245   4.166  1.00  0.00     0.278 HD
HETATM    5  C   UNL     1      41.738 -13.782   4.063  1.00  0.00     0.209 C 
HETATM    6  C   UNL     1      40.669 -13.211   5.026  1.00  0.00     0.115 C 
HETATM    7  N   UNL     1      39.880 -14.256   5.677  1.00  0.00    -0.353 N 
HETATM    8  C   UNL     1      40.426 -15.429   6.135  1.00  0.00     0.249 C 
HETATM    9  O   UNL     1      39.866 -16.060   7.024  1.00  0.00    -0.271 OA
HETATM   10  C   UNL     1      41.145 -14.338   2.766  1.00  0.00     0.035 C 
HETATM   11  C   UNL     1      40.258 -13.302   2.079  1.00  0.00     0.002 C 
HETATM   12  C   UNL     1      39.168 -12.787   3.016  1.00  0.00     0.002 C 
HETATM   13  C   UNL     1      39.758 -12.213   4.305  1.00  0.00     0.027 C 
HETATM   14  H   UNL     1      39.081 -13.963   6.239  1.00  0.00     0.163 HD
ENDROOT
BRANCH   1  15
HETATM   15  C   UNL     1      42.536 -16.812   6.346  1.00  0.00     0.146 C 
BRANCH  15  16
HETATM   16  C   UNL     1      43.999 -16.630   6.019  1.00  0.00     0.224 C 
HETATM   17  N   UNL     1      44.655 -17.431   5.141  1.00  0.00    -0.325 N 
HETATM   18  H   UNL     1      45.665 -17.334   5.203  1.00  0.00     0.169 HD
HETATM   19  O   UNL     1      44.620 -15.741   6.620  1.00  0.00    -0.273 OA
BRANCH  17  20
HETATM   20  C   UNL     1      44.196 -18.406   4.230  1.00  0.00     0.073 A 
HETATM   21  C   UNL     1      44.336 -19.744   4.624  1.00  0.00     0.033 A 
HETATM   22  C   UNL     1      43.894 -20.783   3.798  1.00  0.00     0.002 A 
HETATM   23  C   UNL     1      43.333 -20.499   2.555  1.00  0.00     0.003 A 
HETATM   24  C   UNL     1      43.230 -19.178   2.131  1.00  0.00     0.044 A 
HETATM   25  C   UNL     1      43.667 -18.146   2.961  1.00  0.00     0.143 A 
HETATM   26  F   UNL     1      43.632 -16.900   2.467  1.00  0.00    -0.204 F 
ENDBRANCH  17  20
ENDBRANCH  15  16
ENDBRANCH   1  15
TORSDOF 3
ENDMDL
MODEL 3
REMARK VINA RESULT:      -7.8      2.372      3.176
REMARK  3 active torsions:
REMARK  status: ('A' for Active; 'I' for Inactive)
REMARK    1  A    between atoms: C_3  and  N_4 
REMARK       I    between atoms: N_4  and  C_5 
REMARK    2  A    between atoms: C_5  and  C_6 
REMARK    3  A    between atoms: C_6  and  C_7 
ROOT
HETATM    1  C   UNL     1      41.611 -15.211   3.521  1.00  0.00     0.286 C 
HETATM    2  N   UNL     1      41.966 -15.260   5.005  1.00  0.00    -0.056 N 
HETATM    3  H   UNL     1      41.375 -16.022   5.403  1.00  0.00     0.278 HD
HETATM    4  H   UNL     1      42.938 -15.561   5.139  1.00  0.00     0.278 HD
HETATM    5  C   UNL     1      41.667 -14.000   5.768  1.00  0.00     0.209 C 
HETATM    6  C   UNL     1      40.188 -13.603   5.540  1.00  0.00     0.115 C 
HETATM    7  N   UNL     1      39.817 -13.592   4.125  1.00  0.00    -0.353 N 
HETATM    8  C   UNL     1      40.250 -14.540   3.232  1.00  0.00     0.249 C 
HETATM    9  O   UNL     1      39.608 -14.757   2.210  1.00  0.00    -0.271 OA
HETATM   10  C   UNL     1      42.653 -12.898   5.374  1.00  0.00     0.035 C 
HETATM   11  C   UNL     1      42.307 -11.580   6.062  1.00  0.00     0.002 C 
HETATM   12  C   UNL     1      40.865 -11.164   5.784  1.00  0.00     0.002 C 
HETATM   13  C   UNL     1      39.875 -12.255   6.194  1.00  0.00     0.027 C 
HETATM   14  H   UNL     1      38.895 -13.232   3.882  1.00  0.00     0.163 HD
ENDROOT
BRANCH   1  15
HETATM   15  C   UNL     1      41.667 -16.612   2.901  1.00  0.00     0.146 C 
BRANCH  15  16
HETATM   16  C   UNL     1      42.930 -16.759   2.087  1.00  0.00     0.224 C 
HETATM   17  N   UNL     1      43.873 -17.695   2.364  1.00  0.00    -0.325 N 
HETATM   18  H   UNL     1      44.752 -17.520   1.885  1.00  0.00     0.169 HD
HETATM   19  O   UNL     1      43.119 -15.955   1.162  1.00  0.00    -0.273 OA
BRANCH  17  20
HETATM   20  C   UNL     1      43.872 -18.802   3.240  1.00  0.00     0.073 A 
HETATM   21  C   UNL     1      44.022 -18.520   4.604  1.00  0.00     0.033 A 
HETATM   22  C   UNL     1      44.015 -19.548   5.553  1.00  0.00     0.002 A 
HETATM   23  C   UNL     1      43.889 -20.875   5.147  1.00  0.00     0.003 A 
HETATM   24  C   UNL     1      43.785 -21.173   3.792  1.00  0.00     0.044 A 
HETATM   25  C   UNL     1      43.786 -20.144   2.851  1.00  0.00     0.143 A 
HETATM   26  F   UNL     1      43.778 -20.491   1.556  1.00  0.00    -0.204 F 
ENDBRANCH  17  20
ENDBRANCH  15  16
ENDBRANCH   1  15
TORSDOF 3
ENDMDL
MODEL 4
REMARK VINA RESULT:      -7.7      2.495      3.295
REMARK  3 active torsions:
REMARK  status: ('A' for Active; 'I' for Inactive)
REMARK    1  A    between atoms: C_3  and  N_4 
REMARK       I    between atoms: N_4  and  C_5 
REMARK    2  A    between atoms: C_5  and  C_6 
REMARK    3  A    between atoms: C_6  and  C_7 
ROOT
HETATM    1  C   UNL     1      41.421 -14.770   4.346  1.00  0.00     0.286 C 
HETATM    2  N   UNL     1      42.704 -14.131   3.821  1.00  0.00    -0.056 N 
HETATM    3  H   UNL     1      43.412 -14.897   3.820  1.00  0.00     0.278 HD
HETATM    4  H   UNL     1      42.598 -13.849   2.839  1.00  0.00     0.278 HD
HETATM    5  C   UNL     1      43.242 -13.008   4.663  1.00  0.00     0.209 C 
HETATM    6  C   UNL     1      43.395 -13.495   6.125  1.00  0.00     0.115 C 
HETATM    7  N   UNL     1      42.189 -14.148   6.632  1.00  0.00    -0.353 N 
HETATM    8  C   UNL     1      41.425 -14.999   5.873  1.00  0.00     0.249 C 
HETATM    9  O   UNL     1      40.714 -15.835   6.419  1.00  0.00    -0.271 OA
HETATM   10  C   UNL     1      42.347 -11.774   4.530  1.00  0.00     0.035 C 
HETATM   11  C   UNL     1      42.817 -10.653   5.455  1.00  0.00     0.002 C 
HETATM   12  C   UNL     1      42.908 -11.123   6.904  1.00  0.00     0.002 C 
HETATM   13  C   UNL     1      43.817 -12.345   7.044  1.00  0.00     0.027 C 
HETATM   14  H   UNL     1      42.167 -14.396   7.621  1.00  0.00     0.163 HD
ENDROOT
BRANCH   1  15
HETATM   15  C   UNL     1      41.120 -16.076   3.603  1.00  0.00     0.146 C 
BRANCH  15  16
HETATM   16  C   UNL     1      41.899 -16.118   2.309  1.00  0.00     0.224 C 
HETATM   17  N   UNL     1      42.908 -17.000   2.093  1.00  0.00    -0.325 N 
HETATM   18  H   UNL     1      43.476 -16.755   1.286  1.00  0.00     0.169 HD
HETATM   19  O   UNL     1      41.624 -15.276   1.441  1.00  0.00    -0.273 OA
BRANCH  17  20
HETATM   20  C   UNL     1      43.342 -18.131   2.817  1.00  0.00     0.073 A 
HETATM   21  C   UNL     1      43.136 -19.378   2.211  1.00  0.00     0.033 A 
HETATM   22  C   UNL     1      43.548 -20.556   2.842  1.00  0.00     0.002 A 
HETATM   23  C   UNL     1      44.144 -20.506   4.100  1.00  0.00     0.003 A 
HETATM   24  C   UNL     1      44.312 -19.280   4.734  1.00  0.00     0.044 A 
HETATM   25  C   UNL     1      43.905 -18.107   4.098  1.00  0.00     0.143 A 
HETATM   26  F   UNL     1      44.003 -16.963   4.790  1.00  0.00    -0.204 F 
ENDBRANCH  17  20
ENDBRANCH  15  16
ENDBRANCH   1  15
TORSDOF 3
ENDMDL
MODEL 5
REMARK VINA RESULT:      -7.6      2.527      3.990
REMARK  3 active torsions:
REMARK  status: ('A' for Active; 'I' for Inactive)
REMARK    1  A    between atoms: C_3  and  N_4 
REMARK       I    between atoms: N_4  and  C_5 
REMARK    2  A    between atoms: C_5  and  C_6 
REMARK    3  A    between atoms: C_6  and  C_7 
ROOT
HETATM    1  C   UNL     1      41.741 -13.368   3.041  1.00  0.00     0.286 C 
HETATM    2  N   UNL     1      40.234 -13.614   3.008  1.00  0.00    -0.056 N 
HETATM    3  H   UNL     1      40.111 -14.602   3.318  1.00  0.00     0.278 HD
HETATM    4  H   UNL     1      39.754 -13.039   3.709  1.00  0.00     0.278 HD
HETATM    5  C   UNL     1      39.602 -13.476   1.651  1.00  0.00     0.209 C 
HETATM    6  C   UNL     1      40.357 -14.374   0.642  1.00  0.00     0.115 C 
HETATM    7  N   UNL     1      41.806 -14.183   0.689  1.00  0.00    -0.353 N 
HETATM    8  C   UNL     1      42.500 -14.013   1.861  1.00  0.00     0.249 C 
HETATM    9  O   UNL     1      43.694 -14.286   1.912  1.00  0.00    -0.271 OA
HETATM   10  C   UNL     1      39.563 -12.004   1.235  1.00  0.00     0.035 C 
HETATM   11  C   UNL     1      39.016 -11.849  -0.182  1.00  0.00     0.002 C 
HETATM   12  C   UNL     1      39.803 -12.691  -1.183  1.00  0.00     0.002 C 
HETATM   13  C   UNL     1      39.828 -14.166  -0.780  1.00  0.00     0.027 C 
HETATM   14  H   UNL     1      42.368 -14.652  -0.021  1.00  0.00     0.163 HD
ENDROOT
BRANCH   1  15
HETATM   15  C   UNL     1      42.336 -13.819   4.380  1.00  0.00     0.146 C 
BRANCH  15  16
HETATM   16  C   UNL     1      41.369 -14.741   5.083  1.00  0.00     0.224 C 
HETATM   17  N   UNL     1      41.379 -16.086   4.901  1.00  0.00    -0.325 N 
HETATM   18  H   UNL     1      40.538 -16.535   5.252  1.00  0.00     0.169 HD
HETATM   19  O   UNL     1      40.509 -14.228   5.815  1.00  0.00    -0.273 OA
BRANCH  17  20
HETATM   20  C   UNL     1      42.298 -16.942   4.258  1.00  0.00     0.073 A 
HETATM   21  C   UNL     1      43.435 -17.305   4.994  1.00  0.00     0.033 A 
HETATM   22  C   UNL     1      44.395 -18.164   4.450  1.00  0.00     0.002 A 
HETATM   23  C   UNL     1      44.248 -18.648   3.152  1.00  0.00     0.003 A 
HETATM   24  C   UNL     1      43.149 -18.259   2.393  1.00  0.00     0.044 A 
HETATM   25  C   UNL     1      42.190 -17.407   2.942  1.00  0.00     0.143 A 
HETATM   26  F   UNL     1      41.203 -16.990   2.139  1.00  0.00    -0.204 F 
ENDBRANCH  17  20
ENDBRANCH  15  16
ENDBRANCH   1  15
TORSDOF 3
ENDMDL
MODEL 6
REMARK VINA RESULT:      -7.6      2.128      2.825
REMARK  3 active torsions:
REMARK  status: ('A' for Active; 'I' for Inactive)
REMARK    1  A    between atoms: C_3  and  N_4 
REMARK       I    between atoms: N_4  and  C_5 
REMARK    2  A    between atoms: C_5  and  C_6 
REMARK    3  A    between atoms: C_6  and  C_7 
ROOT
HETATM    1  C   UNL     1      41.183 -14.723   3.632  1.00  0.00     0.286 C 
HETATM    2  N   UNL     1      40.635 -13.608   4.520  1.00  0.00    -0.056 N 
HETATM    3  H   UNL     1      39.883 -14.055   5.088  1.00  0.00     0.278 HD
HETATM    4  H   UNL     1      41.344 -13.293   5.192  1.00  0.00     0.278 HD
HETATM    5  C   UNL     1      40.024 -12.453   3.777  1.00  0.00     0.209 C 
HETATM    6  C   UNL     1      38.956 -12.985   2.792  1.00  0.00     0.115 C 
HETATM    7  N   UNL     1      39.450 -14.083   1.962  1.00  0.00    -0.353 N 
HETATM    8  C   UNL     1      40.260 -15.079   2.446  1.00  0.00     0.249 C 
HETATM    9  O   UNL     1      40.297 -16.167   1.882  1.00  0.00    -0.271 OA
HETATM   10  C   UNL     1      41.118 -11.629   3.093  1.00  0.00     0.035 C 
HETATM   11  C   UNL     1      40.514 -10.508   2.251  1.00  0.00     0.002 C 
HETATM   12  C   UNL     1      39.505 -11.046   1.240  1.00  0.00     0.002 C 
HETATM   13  C   UNL     1      38.400 -11.854   1.922  1.00  0.00     0.027 C 
HETATM   14  H   UNL     1      38.847 -14.414   1.210  1.00  0.00     0.163 HD
ENDROOT
BRANCH   1  15
HETATM   15  C   UNL     1      41.504 -15.971   4.462  1.00  0.00     0.146 C 
BRANCH  15  16
HETATM   16  C   UNL     1      42.906 -15.868   5.015  1.00  0.00     0.224 C 
HETATM   17  N   UNL     1      43.794 -16.893   4.947  1.00  0.00    -0.325 N 
HETATM   18  H   UNL     1      44.596 -16.757   5.556  1.00  0.00     0.169 HD
HETATM   19  O   UNL     1      43.225 -14.818   5.591  1.00  0.00    -0.273 OA
BRANCH  17  20
HETATM   20  C   UNL     1      43.765 -18.120   4.251  1.00  0.00     0.073 A 
HETATM   21  C   UNL     1      43.977 -19.277   5.015  1.00  0.00     0.033 A 
HETATM   22  C   UNL     1      43.949 -20.542   4.420  1.00  0.00     0.002 A 
HETATM   23  C   UNL     1      43.738 -20.667   3.049  1.00  0.00     0.003 A 
HETATM   24  C   UNL     1      43.571 -19.526   2.271  1.00  0.00     0.044 A 
HETATM   25  C   UNL     1      43.594 -18.266   2.870  1.00  0.00     0.143 A 
HETATM   26  F   UNL     1      43.523 -17.198   2.064  1.00  0.00    -0.204 F 
ENDBRANCH  17  20
ENDBRANCH  15  16
ENDBRANCH   1  15
TORSDOF 3
ENDMDL
MODEL 7
REMARK VINA RESULT:      -7.6      3.949      5.321
REMARK  3 active torsions:
REMARK  status: ('A' for Active; 'I' for Inactive)
REMARK    1  A    between atoms: C_3  and  N_4 
REMARK       I    between atoms: N_4  and  C_5 
REMARK    2  A    between atoms: C_5  and  C_6 
REMARK    3  A    between atoms: C_6  and  C_7 
ROOT
HETATM    1  C   UNL     1      39.978 -13.162   1.431  1.00  0.00     0.286 C 
HETATM    2  N   UNL     1      40.926 -13.247   0.237  1.00  0.00    -0.056 N 
HETATM    3  H   UNL     1      41.479 -12.362   0.264  1.00  0.00     0.278 HD
HETATM    4  H   UNL     1      41.606 -14.005   0.363  1.00  0.00     0.278 HD
HETATM    5  C   UNL     1      40.250 -13.326  -1.103  1.00  0.00     0.209 C 
HETATM    6  C   UNL     1      39.250 -12.152  -1.241  1.00  0.00     0.115 C 
HETATM    7  N   UNL     1      38.360 -12.030  -0.087  1.00  0.00    -0.353 N 
HETATM    8  C   UNL     1      38.784 -12.209   1.206  1.00  0.00     0.249 C 
HETATM    9  O   UNL     1      38.165 -11.693   2.130  1.00  0.00    -0.271 OA
HETATM   10  C   UNL     1      39.597 -14.698  -1.283  1.00  0.00     0.035 C 
HETATM   11  C   UNL     1      38.820 -14.767  -2.596  1.00  0.00     0.002 C 
HETATM   12  C   UNL     1      37.793 -13.642  -2.700  1.00  0.00     0.002 C 
HETATM   13  C   UNL     1      38.445 -12.268  -2.538  1.00  0.00     0.027 C 
HETATM   14  H   UNL     1      37.598 -11.355  -0.148  1.00  0.00     0.163 HD
ENDROOT
BRANCH   1  15
HETATM   15  C   UNL     1      40.739 -12.787   2.706  1.00  0.00     0.146 C 
BRANCH  15  16
HETATM   16  C   UNL     1      42.178 -12.473   2.368  1.00  0.00     0.224 C 
HETATM   17  N   UNL     1      43.180 -13.373   2.538  1.00  0.00    -0.325 N 
HETATM   18  H   UNL     1      44.101 -12.946   2.489  1.00  0.00     0.169 HD
HETATM   19  O   UNL     1      42.441 -11.331   1.965  1.00  0.00    -0.273 OA
BRANCH  17  20
HETATM   20  C   UNL     1      43.167 -14.752   2.838  1.00  0.00     0.073 A 
HETATM   21  C   UNL     1      43.248 -15.629   1.748  1.00  0.00     0.033 A 
HETATM   22  C   UNL     1      43.260 -17.014   1.943  1.00  0.00     0.002 A 
HETATM   23  C   UNL     1      43.162 -17.541   3.229  1.00  0.00     0.003 A 
HETATM   24  C   UNL     1      43.035 -16.683   4.317  1.00  0.00     0.044 A 
HETATM   25  C   UNL     1      43.029 -15.303   4.117  1.00  0.00     0.143 A 
HETATM   26  F   UNL     1      42.811 -14.525   5.186  1.00  0.00    -0.204 F 
ENDBRANCH  17  20
ENDBRANCH  15  16
ENDBRANCH   1  15
TORSDOF 3
ENDMDL
MODEL 8
REMARK VINA RESULT:      -7.6      3.473      6.772
REMARK  3 active torsions:
REMARK  status: ('A' for Active; 'I' for Inactive)
REMARK    1  A    between atoms: C_3  and  N_4 
REMARK       I    between atoms: N_4  and  C_5 
REMARK    2  A    between atoms: C_5  and  C_6 
REMARK    3  A    between atoms: C_6  and  C_7 
ROOT
HETATM    1  C   UNL     1      42.183 -14.040   2.509  1.00  0.00     0.286 C 
HETATM    2  N   UNL     1      41.283 -15.270   2.410  1.00  0.00    -0.056 N 
HETATM    3  H   UNL     1      40.408 -15.010   2.915  1.00  0.00     0.278 HD
HETATM    4  H   UNL     1      41.004 -15.441   1.437  1.00  0.00     0.278 HD
HETATM    5  C   UNL     1      41.836 -16.510   3.054  1.00  0.00     0.209 C 
HETATM    6  C   UNL     1      42.225 -16.196   4.518  1.00  0.00     0.115 C 
HETATM    7  N   UNL     1      43.053 -14.996   4.638  1.00  0.00    -0.353 N 
HETATM    8  C   UNL     1      42.835 -13.861   3.897  1.00  0.00     0.249 C 
HETATM    9  O   UNL     1      43.236 -12.777   4.306  1.00  0.00    -0.271 OA
HETATM   10  C   UNL     1      42.999 -17.061   2.226  1.00  0.00     0.035 C 
HETATM   11  C   UNL     1      43.641 -18.264   2.913  1.00  0.00     0.002 C 
HETATM   12  C   UNL     1      44.077 -17.930   4.337  1.00  0.00     0.002 C 
HETATM   13  C   UNL     1      42.913 -17.398   5.173  1.00  0.00     0.027 C 
HETATM   14  H   UNL     1      43.447 -14.784   5.554  1.00  0.00     0.163 HD
ENDROOT
BRANCH   1  15
HETATM   15  C   UNL     1      41.422 -12.774   2.100  1.00  0.00     0.146 C 
BRANCH  15  16
HETATM   16  C   UNL     1      39.935 -13.017   2.205  1.00  0.00     0.224 C 
HETATM   17  N   UNL     1      39.121 -13.042   1.119  1.00  0.00    -0.325 N 
HETATM   18  H   UNL     1      38.137 -12.983   1.366  1.00  0.00     0.169 HD
HETATM   19  O   UNL     1      39.449 -13.149   3.338  1.00  0.00    -0.273 OA
BRANCH  17  20
HETATM   20  C   UNL     1      39.398 -13.061  -0.265  1.00  0.00     0.073 A 
HETATM   21  C   UNL     1      39.401 -11.821  -0.919  1.00  0.00     0.033 A 
HETATM   22  C   UNL     1      39.682 -11.733  -2.286  1.00  0.00     0.002 A 
HETATM   23  C   UNL     1      39.934 -12.887  -3.025  1.00  0.00     0.003 A 
HETATM   24  C   UNL     1      39.888 -14.129  -2.399  1.00  0.00     0.044 A 
HETATM   25  C   UNL     1      39.614 -14.210  -1.034  1.00  0.00     0.143 A 
HETATM   26  F   UNL     1      39.489 -15.434  -0.501  1.00  0.00    -0.204 F 
ENDBRANCH  17  20
ENDBRANCH  15  16
ENDBRANCH   1  15
TORSDOF 3
ENDMDL
MODEL 9
REMARK VINA RESULT:      -7.5      2.935      3.935
REMARK  3 active torsions:
REMARK  status: ('A' for Active; 'I' for Inactive)
REMARK    1  A    between atoms: C_3  and  N_4 
REMARK       I    between atoms: N_4  and  C_5 
REMARK    2  A    between atoms: C_5  and  C_6 
REMARK    3  A    between atoms: C_6  and  C_7 
ROOT
HETATM    1  C   UNL     1      40.068 -14.805   2.206  1.00  0.00     0.286 C 
HETATM    2  N   UNL     1      41.044 -14.823   1.032  1.00  0.00    -0.056 N 
HETATM    3  H   UNL     1      41.875 -14.284   1.358  1.00  0.00     0.278 HD
HETATM    4  H   UNL     1      41.381 -15.775   0.850  1.00  0.00     0.278 HD
HETATM    5  C   UNL     1      40.535 -14.168  -0.222  1.00  0.00     0.209 C 
HETATM    6  C   UNL     1      40.055 -12.734   0.109  1.00  0.00     0.115 C 
HETATM    7  N   UNL     1      39.152 -12.691   1.259  1.00  0.00    -0.353 N 
HETATM    8  C   UNL     1      39.338 -13.455   2.384  1.00  0.00     0.249 C 
HETATM    9  O   UNL     1      38.855 -13.100   3.453  1.00  0.00    -0.271 OA
HETATM   10  C   UNL     1      39.449 -15.033  -0.865  1.00  0.00     0.035 C 
HETATM   11  C   UNL     1      38.847 -14.340  -2.085  1.00  0.00     0.002 C 
HETATM   12  C   UNL     1      38.321 -12.949  -1.739  1.00  0.00     0.002 C 
HETATM   13  C   UNL     1      39.409 -12.076  -1.113  1.00  0.00     0.027 C 
HETATM   14  H   UNL     1      38.702 -11.802   1.473  1.00  0.00     0.163 HD
ENDROOT
BRANCH   1  15
HETATM   15  C   UNL     1      40.772 -15.216   3.504  1.00  0.00     0.146 C 
BRANCH  15  16
HETATM   16  C   UNL     1      42.156 -14.614   3.547  1.00  0.00     0.224 C 
HETATM   17  N   UNL     1      43.274 -15.366   3.714  1.00  0.00    -0.325 N 
HETATM   18  H   UNL     1      44.090 -14.807   3.952  1.00  0.00     0.169 HD
HETATM   19  O   UNL     1      42.253 -13.380   3.471  1.00  0.00    -0.273 OA
BRANCH  17  20
HETATM   20  C   UNL     1      43.483 -16.761   3.691  1.00  0.00     0.073 A 
HETATM   21  C   UNL     1      43.863 -17.357   4.901  1.00  0.00     0.033 A 
HETATM   22  C   UNL     1      44.076 -18.737   4.984  1.00  0.00     0.002 A 
HETATM   23  C   UNL     1      43.941 -19.535   3.850  1.00  0.00     0.003 A 
HETATM   24  C   UNL     1      43.609 -18.952   2.632  1.00  0.00     0.044 A 
HETATM   25  C   UNL     1      43.392 -17.576   2.556  1.00  0.00     0.143 A 
HETATM   26  F   UNL     1      43.168 -17.052   1.343  1.00  0.00    -0.204 F 
ENDBRANCH  17  20
ENDBRANCH  15  16
ENDBRANCH   1  15
TORSDOF 3
ENDMDL
MODEL 10
REMARK VINA RESULT:      -7.5      3.383      4.603
REMARK  3 active torsions:
REMARK  status: ('A' for Active; 'I' for Inactive)
REMARK    1  A    between atoms: C_3  and  N_4 
REMARK       I    between atoms: N_4  and  C_5 
REMARK    2  A    between atoms: C_5  and  C_6 
REMARK    3  A    between atoms: C_6  and  C_7 
ROOT
HETATM    1  C   UNL     1      43.168 -12.922   3.864  1.00  0.00     0.286 C 
HETATM    2  N   UNL     1      42.694 -13.418   5.228  1.00  0.00    -0.056 N 
HETATM    3  H   UNL     1      41.663 -13.543   5.131  1.00  0.00     0.278 HD
HETATM    4  H   UNL     1      43.071 -14.351   5.430  1.00  0.00     0.278 HD
HETATM    5  C   UNL     1      42.936 -12.465   6.366  1.00  0.00     0.209 C 
HETATM    6  C   UNL     1      42.335 -11.084   6.012  1.00  0.00     0.115 C 
HETATM    7  N   UNL     1      42.744 -10.611   4.690  1.00  0.00    -0.353 N 
HETATM    8  C   UNL     1      42.840 -11.437   3.598  1.00  0.00     0.249 C 
HETATM    9  O   UNL     1      42.756 -10.970   2.467  1.00  0.00    -0.271 OA
HETATM   10  C   UNL     1      44.430 -12.406   6.695  1.00  0.00     0.035 C 
HETATM   11  C   UNL     1      44.711 -11.370   7.780  1.00  0.00     0.002 C 
HETATM   12  C   UNL     1      44.169  -9.996   7.399  1.00  0.00     0.002 C 
HETATM   13  C   UNL     1      42.672 -10.047   7.088  1.00  0.00     0.027 C 
HETATM   14  H   UNL     1      42.485  -9.661   4.427  1.00  0.00     0.163 HD
ENDROOT
BRANCH   1  15
HETATM   15  C   UNL     1      42.617 -13.809   2.742  1.00  0.00     0.146 C 
BRANCH  15  16
HETATM   16  C   UNL     1      41.344 -14.479   3.200  1.00  0.00     0.224 C 
HETATM   17  N   UNL     1      41.269 -15.812   3.449  1.00  0.00    -0.325 N 
HETATM   18  H   UNL     1      40.311 -16.144   3.519  1.00  0.00     0.169 HD
HETATM   19  O   UNL     1      40.325 -13.779   3.301  1.00  0.00    -0.273 OA
BRANCH  17  20
HETATM   20  C   UNL     1      42.263 -16.808   3.551  1.00  0.00     0.073 A 
HETATM   21  C   UNL     1      42.467 -17.606   2.417  1.00  0.00     0.033 A 
HETATM   22  C   UNL     1      43.443 -18.608   2.413  1.00  0.00     0.002 A 
HETATM   23  C   UNL     1      44.206 -18.847   3.553  1.00  0.00     0.003 A 
HETATM   24  C   UNL     1      43.983 -18.094   4.701  1.00  0.00     0.044 A 
HETATM   25  C   UNL     1      43.013 -17.091   4.698  1.00  0.00     0.143 A 
HETATM   26  F   UNL     1      42.774 -16.460   5.855  1.00  0.00    -0.204 F 
ENDBRANCH  17  20
ENDBRANCH  15  16
ENDBRANCH   1  15
TORSDOF 3
ENDMDL
