MODEL 1
REMARK VINA RESULT:      -7.8      0.000      0.000
REMARK  6 active torsions:
REMARK  status: ('A' for Active; 'I' for Inactive)
REMARK    1  A    between atoms: C_2  and  N_3 
REMARK    2  A    between atoms: C_2  and  C_17 
REMARK       I    between atoms: N_3  and  C_4 
REMARK    3  A    between atoms: C_4  and  C_5 
REMARK    4  A    between atoms: C_6  and  O_7 
REMARK    5  A    between atoms: O_7  and  C_8 
REMARK    6  A    between atoms: C_8  and  C_9 
ROOT
HETATM    1  N   UNL     1      42.047 -16.154   3.240  1.00  0.00    -0.346 N 
HETATM    2  C   UNL     1      43.012 -16.798   2.500  1.00  0.00     0.256 C 
HETATM    3  O   UNL     1      43.575 -16.282   1.543  1.00  0.00    -0.267 OA
HETATM    4  H   UNL     1      41.590 -16.604   4.024  1.00  0.00     0.163 HD
ENDROOT
BRANCH   1   5
HETATM    5  C   UNL     1      41.558 -14.840   2.869  1.00  0.00     0.150 C 
HETATM    6  C   UNL     1      40.034 -14.829   2.793  1.00  0.00     0.040 C 
BRANCH   5   7
HETATM    7  C   UNL     1      42.061 -13.880   3.902  1.00  0.00     0.127 A 
HETATM    8  N   UNL     1      41.713 -12.616   4.054  1.00  0.00    -0.231 NA
HETATM    9  C   UNL     1      42.434 -12.162   5.131  1.00  0.00     0.085 A 
HETATM   10  C   UNL     1      43.213 -13.179   5.673  1.00  0.00     0.062 A 
HETATM   11  C   UNL     1      42.476 -10.886   5.711  1.00  0.00     0.034 A 
HETATM   12  N   UNL     1      42.951 -14.264   4.877  1.00  0.00    -0.341 N 
HETATM   13  C   UNL     1      44.038 -13.006   6.785  1.00  0.00     0.032 A 
HETATM   14  H   UNL     1      43.339 -15.189   4.989  1.00  0.00     0.167 HD
HETATM   15  C   UNL     1      44.066 -11.726   7.352  1.00  0.00     0.002 A 
HETATM   16  C   UNL     1      43.302 -10.682   6.825  1.00  0.00     0.002 A 
ENDBRANCH   5   7
ENDBRANCH   1   5
BRANCH   2  17
HETATM   17  C   UNL     1      43.326 -18.181   2.918  1.00  0.00     0.084 A 
HETATM   18  C   UNL     1      43.837 -18.455   4.184  1.00  0.00     0.180 A 
HETATM   19  N   UNL     1      44.154 -19.708   4.600  1.00  0.00    -0.236 NA
HETATM   20  C   UNL     1      43.982 -20.714   3.715  1.00  0.00     0.119 A 
HETATM   21  C   UNL     1      43.494 -20.535   2.431  1.00  0.00     0.020 A 
HETATM   22  C   UNL     1      43.161 -19.246   2.026  1.00  0.00     0.023 A 
BRANCH  18  23
HETATM   23  O   UNL     1      43.947 -17.425   5.094  1.00  0.00    -0.328 OA
BRANCH  23  24
HETATM   24  C   UNL     1      43.256 -17.673   6.325  1.00  0.00     0.248 C 
BRANCH  24  25
HETATM   25  C   UNL     1      43.914 -16.868   7.432  1.00  0.00     0.377 C 
HETATM   26  F   UNL     1      44.961 -16.164   6.927  1.00  0.00    -0.212 F 
HETATM   27  F   UNL     1      43.042 -15.951   7.926  1.00  0.00    -0.212 F 
ENDBRANCH  24  25
ENDBRANCH  23  24
ENDBRANCH  18  23
ENDBRANCH   2  17
TORSDOF 6
ENDMDL
MODEL 2
REMARK VINA RESULT:      -7.6      3.226      5.100
REMARK  6 active torsions:
REMARK  status: ('A' for Active; 'I' for Inactive)
REMARK    1  A    between atoms: C_2  and  N_3 
REMARK    2  A    between atoms: C_2  and  C_17 
REMARK       I    between atoms: N_3  and  C_4 
REMARK    3  A    between atoms: C_4  and  C_5 
REMARK    4  A    between atoms: C_6  and  O_7 
REMARK    5  A    between atoms: O_7  and  C_8 
REMARK    6  A    between atoms: C_8  and  C_9 
ROOT
HETATM    1  N   UNL     1      41.847 -14.602   2.979  1.00  0.00    -0.346 N 
HETATM    2  C   UNL     1      41.413 -15.893   3.175  1.00  0.00     0.256 C 
HETATM    3  O   UNL     1      40.231 -16.213   3.140  1.00  0.00    -0.267 OA
HETATM    4  H   UNL     1      42.831 -14.361   3.020  1.00  0.00     0.163 HD
ENDROOT
BRANCH   1   5
HETATM    5  C   UNL     1      40.914 -13.505   2.813  1.00  0.00     0.150 C 
HETATM    6  C   UNL     1      41.490 -12.211   3.379  1.00  0.00     0.040 C 
BRANCH   5   7
HETATM    7  C   UNL     1      40.638 -13.386   1.347  1.00  0.00     0.127 A 
HETATM    8  N   UNL     1      41.182 -12.533   0.498  1.00  0.00    -0.231 NA
HETATM    9  C   UNL     1      40.618 -12.817  -0.721  1.00  0.00     0.085 A 
HETATM   10  C   UNL     1      39.737 -13.888  -0.625  1.00  0.00     0.062 A 
HETATM   11  C   UNL     1      40.811 -12.199  -1.965  1.00  0.00     0.034 A 
HETATM   12  N   UNL     1      39.775 -14.237   0.699  1.00  0.00    -0.341 N 
HETATM   13  C   UNL     1      39.031 -14.403  -1.714  1.00  0.00     0.032 A 
HETATM   14  H   UNL     1      39.261 -14.994   1.128  1.00  0.00     0.167 HD
HETATM   15  C   UNL     1      39.237 -13.775  -2.948  1.00  0.00     0.002 A 
HETATM   16  C   UNL     1      40.108 -12.691  -3.075  1.00  0.00     0.002 A 
ENDBRANCH   5   7
ENDBRANCH   1   5
BRANCH   2  17
HETATM   17  C   UNL     1      42.467 -16.891   3.455  1.00  0.00     0.084 A 
HETATM   18  C   UNL     1      43.227 -16.832   4.621  1.00  0.00     0.180 A 
HETATM   19  N   UNL     1      44.215 -17.718   4.907  1.00  0.00    -0.236 NA
HETATM   20  C   UNL     1      44.470 -18.676   3.989  1.00  0.00     0.119 A 
HETATM   21  C   UNL     1      43.777 -18.804   2.796  1.00  0.00     0.020 A 
HETATM   22  C   UNL     1      42.758 -17.896   2.525  1.00  0.00     0.023 A 
BRANCH  18  23
HETATM   23  O   UNL     1      42.911 -15.887   5.573  1.00  0.00    -0.328 OA
BRANCH  23  24
HETATM   24  C   UNL     1      42.191 -16.420   6.691  1.00  0.00     0.248 C 
BRANCH  24  25
HETATM   25  C   UNL     1      40.848 -15.717   6.795  1.00  0.00     0.377 C 
HETATM   26  F   UNL     1      40.905 -14.523   6.149  1.00  0.00    -0.212 F 
HETATM   27  F   UNL     1      39.888 -16.444   6.166  1.00  0.00    -0.212 F 
ENDBRANCH  24  25
ENDBRANCH  23  24
ENDBRANCH  18  23
ENDBRANCH   2  17
TORSDOF 6
ENDMDL
MODEL 3
REMARK VINA RESULT:      -7.3      1.912      2.410
REMARK  6 active torsions:
REMARK  status: ('A' for Active; 'I' for Inactive)
REMARK    1  A    between atoms: C_2  and  N_3 
REMARK    2  A    between atoms: C_2  and  C_17 
REMARK       I    between atoms: N_3  and  C_4 
REMARK    3  A    between atoms: C_4  and  C_5 
REMARK    4  A    between atoms: C_6  and  O_7 
REMARK    5  A    between atoms: O_7  and  C_8 
REMARK    6  A    between atoms: C_8  and  C_9 
ROOT
HETATM    1  N   UNL     1      41.605 -16.312   2.472  1.00  0.00    -0.346 N 
HETATM    2  C   UNL     1      42.865 -16.781   2.181  1.00  0.00     0.256 C 
HETATM    3  O   UNL     1      43.628 -16.214   1.408  1.00  0.00    -0.267 OA
HETATM    4  H   UNL     1      40.990 -16.804   3.110  1.00  0.00     0.163 HD
ENDROOT
BRANCH   1   5
HETATM    5  C   UNL     1      41.053 -15.152   1.800  1.00  0.00     0.150 C 
HETATM    6  C   UNL     1      39.888 -15.550   0.898  1.00  0.00     0.040 C 
BRANCH   5   7
HETATM    7  C   UNL     1      40.618 -14.196   2.866  1.00  0.00     0.127 A 
HETATM    8  N   UNL     1      40.770 -14.330   4.170  1.00  0.00    -0.231 NA
HETATM    9  C   UNL     1      40.219 -13.200   4.723  1.00  0.00     0.085 A 
HETATM   10  C   UNL     1      39.753 -12.339   3.736  1.00  0.00     0.062 A 
HETATM   11  C   UNL     1      40.081 -12.834   6.070  1.00  0.00     0.034 A 
HETATM   12  N   UNL     1      40.026 -12.992   2.563  1.00  0.00    -0.341 N 
HETATM   13  C   UNL     1      39.157 -11.106   4.010  1.00  0.00     0.032 A 
HETATM   14  H   UNL     1      39.832 -12.648   1.633  1.00  0.00     0.167 HD
HETATM   15  C   UNL     1      39.030 -10.757   5.360  1.00  0.00     0.002 A 
HETATM   16  C   UNL     1      39.480 -11.605   6.374  1.00  0.00     0.002 A 
ENDBRANCH   5   7
ENDBRANCH   1   5
BRANCH   2  17
HETATM   17  C   UNL     1      43.252 -18.043   2.848  1.00  0.00     0.084 A 
HETATM   18  C   UNL     1      43.636 -18.064   4.187  1.00  0.00     0.180 A 
HETATM   19  N   UNL     1      44.014 -19.198   4.831  1.00  0.00    -0.236 NA
HETATM   20  C   UNL     1      44.036 -20.340   4.110  1.00  0.00     0.119 A 
HETATM   21  C   UNL     1      43.686 -20.412   2.771  1.00  0.00     0.020 A 
HETATM   22  C   UNL     1      43.287 -19.243   2.130  1.00  0.00     0.023 A 
BRANCH  18  23
HETATM   23  O   UNL     1      43.547 -16.902   4.922  1.00  0.00    -0.328 OA
BRANCH  23  24
HETATM   24  C   UNL     1      42.860 -17.066   6.170  1.00  0.00     0.248 C 
BRANCH  24  25
HETATM   25  C   UNL     1      43.774 -16.621   7.299  1.00  0.00     0.377 C 
HETATM   26  F   UNL     1      45.030 -16.419   6.819  1.00  0.00    -0.212 F 
HETATM   27  F   UNL     1      43.359 -15.427   7.795  1.00  0.00    -0.212 F 
ENDBRANCH  24  25
ENDBRANCH  23  24
ENDBRANCH  18  23
ENDBRANCH   2  17
TORSDOF 6
ENDMDL
MODEL 4
REMARK VINA RESULT:      -7.3      2.467      6.974
REMARK  6 active torsions:
REMARK  status: ('A' for Active; 'I' for Inactive)
REMARK    1  A    between atoms: C_2  and  N_3 
REMARK    2  A    between atoms: C_2  and  C_17 
REMARK       I    between atoms: N_3  and  C_4 
REMARK    3  A    between atoms: C_4  and  C_5 
REMARK    4  A    between atoms: C_6  and  O_7 
REMARK    5  A    between atoms: O_7  and  C_8 
REMARK    6  A    between atoms: C_8  and  C_9 
ROOT
HETATM    1  N   UNL     1      42.545 -14.670   5.755  1.00  0.00    -0.346 N 
HETATM    2  C   UNL     1      42.713 -13.306   5.683  1.00  0.00     0.256 C 
HETATM    3  O   UNL     1      43.776 -12.750   5.929  1.00  0.00    -0.267 OA
HETATM    4  H   UNL     1      41.653 -15.107   5.553  1.00  0.00     0.163 HD
ENDROOT
BRANCH   1   5
HETATM    5  C   UNL     1      43.603 -15.541   6.228  1.00  0.00     0.150 C 
HETATM    6  C   UNL     1      43.374 -15.933   7.685  1.00  0.00     0.040 C 
BRANCH   5   7
HETATM    7  C   UNL     1      43.613 -16.741   5.334  1.00  0.00     0.127 A 
HETATM    8  N   UNL     1      43.392 -16.771   4.033  1.00  0.00    -0.231 NA
HETATM    9  C   UNL     1      43.516 -18.089   3.668  1.00  0.00     0.085 A 
HETATM   10  C   UNL     1      43.855 -18.879   4.762  1.00  0.00     0.062 A 
HETATM   11  C   UNL     1      43.355 -18.693   2.413  1.00  0.00     0.034 A 
HETATM   12  N   UNL     1      43.918 -17.996   5.808  1.00  0.00    -0.341 N 
HETATM   13  C   UNL     1      44.059 -20.257   4.680  1.00  0.00     0.032 A 
HETATM   14  H   UNL     1      44.154 -18.224   6.763  1.00  0.00     0.167 HD
HETATM   15  C   UNL     1      43.896 -20.842   3.419  1.00  0.00     0.002 A 
HETATM   16  C   UNL     1      43.546 -20.077   2.304  1.00  0.00     0.002 A 
ENDBRANCH   5   7
ENDBRANCH   1   5
BRANCH   2  17
HETATM   17  C   UNL     1      41.513 -12.529   5.303  1.00  0.00     0.084 A 
HETATM   18  C   UNL     1      40.823 -12.797   4.124  1.00  0.00     0.180 A 
HETATM   19  N   UNL     1      39.728 -12.097   3.732  1.00  0.00    -0.236 NA
HETATM   20  C   UNL     1      39.327 -11.081   4.527  1.00  0.00     0.119 A 
HETATM   21  C   UNL     1      39.960 -10.732   5.709  1.00  0.00     0.020 A 
HETATM   22  C   UNL     1      41.072 -11.470   6.104  1.00  0.00     0.023 A 
BRANCH  18  23
HETATM   23  O   UNL     1      41.208 -13.876   3.358  1.00  0.00    -0.328 OA
BRANCH  23  24
HETATM   24  C   UNL     1      40.215 -14.289   2.411  1.00  0.00     0.248 C 
BRANCH  24  25
HETATM   25  C   UNL     1      40.017 -15.791   2.526  1.00  0.00     0.377 C 
HETATM   26  F   UNL     1      40.966 -16.435   1.796  1.00  0.00    -0.212 F 
HETATM   27  F   UNL     1      40.192 -16.190   3.813  1.00  0.00    -0.212 F 
ENDBRANCH  24  25
ENDBRANCH  23  24
ENDBRANCH  18  23
ENDBRANCH   2  17
TORSDOF 6
ENDMDL
MODEL 5
REMARK VINA RESULT:      -7.3      1.750      6.222
REMARK  6 active torsions:
REMARK  status: ('A' for Active; 'I' for Inactive)
REMARK    1  A    between atoms: C_2  and  N_3 
REMARK    2  A    between atoms: C_2  and  C_17 
REMARK       I    between atoms: N_3  and  C_4 
REMARK    3  A    between atoms: C_4  and  C_5 
REMARK    4  A    between atoms: C_6  and  O_7 
REMARK    5  A    between atoms: O_7  and  C_8 
REMARK    6  A    between atoms: C_8  and  C_9 
ROOT
HETATM    1  N   UNL     1      42.505 -13.869   3.920  1.00  0.00    -0.346 N 
HETATM    2  C   UNL     1      41.745 -13.284   4.908  1.00  0.00     0.256 C 
HETATM    3  O   UNL     1      40.530 -13.418   4.984  1.00  0.00    -0.267 OA
HETATM    4  H   UNL     1      43.508 -13.737   3.874  1.00  0.00     0.163 HD
ENDROOT
BRANCH   1   5
HETATM    5  C   UNL     1      41.895 -14.613   2.836  1.00  0.00     0.150 C 
HETATM    6  C   UNL     1      42.245 -13.993   1.486  1.00  0.00     0.040 C 
BRANCH   5   7
HETATM    7  C   UNL     1      42.395 -16.020   2.937  1.00  0.00     0.127 A 
HETATM    8  N   UNL     1      42.258 -16.983   2.044  1.00  0.00    -0.231 NA
HETATM    9  C   UNL     1      42.885 -18.079   2.585  1.00  0.00     0.085 A 
HETATM   10  C   UNL     1      43.450 -17.771   3.818  1.00  0.00     0.062 A 
HETATM   11  C   UNL     1      43.017 -19.380   2.078  1.00  0.00     0.034 A 
HETATM   12  N   UNL     1      43.131 -16.453   4.015  1.00  0.00    -0.341 N 
HETATM   13  C   UNL     1      44.162 -18.692   4.588  1.00  0.00     0.032 A 
HETATM   14  H   UNL     1      43.394 -15.892   4.812  1.00  0.00     0.167 HD
HETATM   15  C   UNL     1      44.285 -19.985   4.065  1.00  0.00     0.002 A 
HETATM   16  C   UNL     1      43.721 -20.327   2.834  1.00  0.00     0.002 A 
ENDBRANCH   5   7
ENDBRANCH   1   5
BRANCH   2  17
HETATM   17  C   UNL     1      42.486 -12.451   5.880  1.00  0.00     0.084 A 
HETATM   18  C   UNL     1      43.395 -13.016   6.770  1.00  0.00     0.180 A 
HETATM   19  N   UNL     1      44.082 -12.290   7.688  1.00  0.00    -0.236 NA
HETATM   20  C   UNL     1      43.832 -10.963   7.738  1.00  0.00     0.119 A 
HETATM   21  C   UNL     1      42.935 -10.316   6.904  1.00  0.00     0.020 A 
HETATM   22  C   UNL     1      42.250 -11.074   5.959  1.00  0.00     0.023 A 
BRANCH  18  23
HETATM   23  O   UNL     1      43.683 -14.360   6.663  1.00  0.00    -0.328 OA
BRANCH  23  24
HETATM   24  C   UNL     1      43.147 -15.148   7.733  1.00  0.00     0.248 C 
BRANCH  24  25
HETATM   25  C   UNL     1      43.778 -16.529   7.694  1.00  0.00     0.377 C 
HETATM   26  F   UNL     1      42.893 -17.422   7.178  1.00  0.00    -0.212 F 
HETATM   27  F   UNL     1      44.850 -16.531   6.860  1.00  0.00    -0.212 F 
ENDBRANCH  24  25
ENDBRANCH  23  24
ENDBRANCH  18  23
ENDBRANCH   2  17
TORSDOF 6
ENDMDL
MODEL 6
REMARK VINA RESULT:      -7.1      3.004      7.204
REMARK  6 active torsions:
REMARK  status: ('A' for Active; 'I' for Inactive)
REMARK    1  A    between atoms: C_2  and  N_3 
REMARK    2  A    between atoms: C_2  and  C_17 
REMARK       I    between atoms: N_3  and  C_4 
REMARK    3  A    between atoms: C_4  and  C_5 
REMARK    4  A    between atoms: C_6  and  O_7 
REMARK    5  A    between atoms: O_7  and  C_8 
REMARK    6  A    between atoms: C_8  and  C_9 
ROOT
HETATM    1  N   UNL     1      42.425 -14.738   5.572  1.00  0.00    -0.346 N 
HETATM    2  C   UNL     1      42.612 -13.403   5.296  1.00  0.00     0.256 C 
HETATM    3  O   UNL     1      43.687 -12.833   5.446  1.00  0.00    -0.267 OA
HETATM    4  H   UNL     1      41.525 -15.185   5.446  1.00  0.00     0.163 HD
ENDROOT
BRANCH   1   5
HETATM    5  C   UNL     1      43.477 -15.545   6.158  1.00  0.00     0.150 C 
HETATM    6  C   UNL     1      43.178 -15.848   7.623  1.00  0.00     0.040 C 
BRANCH   5   7
HETATM    7  C   UNL     1      43.565 -16.801   5.348  1.00  0.00     0.127 A 
HETATM    8  N   UNL     1      43.940 -17.997   5.765  1.00  0.00    -0.231 NA
HETATM    9  C   UNL     1      43.851 -18.815   4.665  1.00  0.00     0.085 A 
HETATM   10  C   UNL     1      43.377 -18.115   3.561  1.00  0.00     0.062 A 
HETATM   11  C   UNL     1      44.157 -20.176   4.532  1.00  0.00     0.034 A 
HETATM   12  N   UNL     1      43.196 -16.838   4.024  1.00  0.00    -0.341 N 
HETATM   13  C   UNL     1      43.174 -18.700   2.310  1.00  0.00     0.032 A 
HETATM   14  H   UNL     1      42.845 -16.057   3.488  1.00  0.00     0.167 HD
HETATM   15  C   UNL     1      43.483 -20.061   2.196  1.00  0.00     0.002 A 
HETATM   16  C   UNL     1      43.970 -20.788   3.284  1.00  0.00     0.002 A 
ENDBRANCH   5   7
ENDBRANCH   1   5
BRANCH   2  17
HETATM   17  C   UNL     1      41.419 -12.671   4.818  1.00  0.00     0.084 A 
HETATM   18  C   UNL     1      40.664 -13.142   3.747  1.00  0.00     0.180 A 
HETATM   19  N   UNL     1      39.573 -12.493   3.268  1.00  0.00    -0.236 NA
HETATM   20  C   UNL     1      39.242 -11.323   3.858  1.00  0.00     0.119 A 
HETATM   21  C   UNL     1      39.942 -10.770   4.917  1.00  0.00     0.020 A 
HETATM   22  C   UNL     1      41.050 -11.456   5.405  1.00  0.00     0.023 A 
BRANCH  18  23
HETATM   23  O   UNL     1      40.979 -14.367   3.200  1.00  0.00    -0.328 OA
BRANCH  23  24
HETATM   24  C   UNL     1      39.919 -14.935   2.420  1.00  0.00     0.248 C 
BRANCH  24  25
HETATM   25  C   UNL     1      40.406 -15.136   0.995  1.00  0.00     0.377 C 
HETATM   26  F   UNL     1      39.509 -15.888   0.306  1.00  0.00    -0.212 F 
HETATM   27  F   UNL     1      40.476 -13.942   0.351  1.00  0.00    -0.212 F 
ENDBRANCH  24  25
ENDBRANCH  23  24
ENDBRANCH  18  23
ENDBRANCH   2  17
TORSDOF 6
ENDMDL
MODEL 7
REMARK VINA RESULT:      -7.1     14.175     15.590
REMARK  6 active torsions:
REMARK  status: ('A' for Active; 'I' for Inactive)
REMARK    1  A    between atoms: C_2  and  N_3 
REMARK    2  A    between atoms: C_2  and  C_17 
REMARK       I    between atoms: N_3  and  C_4 
REMARK    3  A    between atoms: C_4  and  C_5 
REMARK    4  A    between atoms: C_6  and  O_7 
REMARK    5  A    between atoms: O_7  and  C_8 
REMARK    6  A    between atoms: C_8  and  C_9 
ROOT
HETATM    1  N   UNL     1      43.972 -29.826  -0.535  1.00  0.00    -0.346 N 
HETATM    2  C   UNL     1      44.507 -29.021  -1.515  1.00  0.00     0.256 C 
HETATM    3  O   UNL     1      44.780 -27.840  -1.335  1.00  0.00    -0.267 OA
HETATM    4  H   UNL     1      43.748 -30.798  -0.711  1.00  0.00     0.163 HD
ENDROOT
BRANCH   1   5
HETATM    5  C   UNL     1      43.602 -29.297   0.762  1.00  0.00     0.150 C 
HETATM    6  C   UNL     1      42.428 -30.072   1.352  1.00  0.00     0.040 C 
BRANCH   5   7
HETATM    7  C   UNL     1      44.814 -29.394   1.635  1.00  0.00     0.127 A 
HETATM    8  N   UNL     1      45.062 -30.302   2.561  1.00  0.00    -0.231 NA
HETATM    9  C   UNL     1      46.292 -29.975   3.078  1.00  0.00     0.085 A 
HETATM   10  C   UNL     1      46.825 -28.866   2.432  1.00  0.00     0.062 A 
HETATM   11  C   UNL     1      47.024 -30.585   4.107  1.00  0.00     0.034 A 
HETATM   12  N   UNL     1      45.869 -28.520   1.512  1.00  0.00    -0.341 N 
HETATM   13  C   UNL     1      48.072 -28.321   2.743  1.00  0.00     0.032 A 
HETATM   14  H   UNL     1      45.929 -27.758   0.853  1.00  0.00     0.167 HD
HETATM   15  C   UNL     1      48.789 -28.943   3.771  1.00  0.00     0.002 A 
HETATM   16  C   UNL     1      48.276 -30.053   4.446  1.00  0.00     0.002 A 
ENDBRANCH   5   7
ENDBRANCH   1   5
BRANCH   2  17
HETATM   17  C   UNL     1      44.721 -29.663  -2.830  1.00  0.00     0.084 A 
HETATM   18  C   UNL     1      45.845 -30.447  -3.077  1.00  0.00     0.180 A 
HETATM   19  N   UNL     1      46.086 -31.041  -4.274  1.00  0.00    -0.236 NA
HETATM   20  C   UNL     1      45.192 -30.821  -5.263  1.00  0.00     0.119 A 
HETATM   21  C   UNL     1      44.055 -30.044  -5.114  1.00  0.00     0.020 A 
HETATM   22  C   UNL     1      43.815 -29.455  -3.877  1.00  0.00     0.023 A 
BRANCH  18  23
HETATM   23  O   UNL     1      46.711 -30.712  -2.038  1.00  0.00    -0.328 OA
BRANCH  23  24
HETATM   24  C   UNL     1      47.995 -30.093  -2.192  1.00  0.00     0.248 C 
BRANCH  24  25
HETATM   25  C   UNL     1      48.268 -29.215  -0.984  1.00  0.00     0.377 C 
HETATM   26  F   UNL     1      49.600 -29.212  -0.711  1.00  0.00    -0.212 F 
HETATM   27  F   UNL     1      47.933 -27.926  -1.255  1.00  0.00    -0.212 F 
ENDBRANCH  24  25
ENDBRANCH  23  24
ENDBRANCH  18  23
ENDBRANCH   2  17
TORSDOF 6
ENDMDL
MODEL 8
REMARK VINA RESULT:      -6.9      2.738      5.140
REMARK  6 active torsions:
REMARK  status: ('A' for Active; 'I' for Inactive)
REMARK    1  A    between atoms: C_2  and  N_3 
REMARK    2  A    between atoms: C_2  and  C_17 
REMARK       I    between atoms: N_3  and  C_4 
REMARK    3  A    between atoms: C_4  and  C_5 
REMARK    4  A    between atoms: C_6  and  O_7 
REMARK    5  A    between atoms: O_7  and  C_8 
REMARK    6  A    between atoms: C_8  and  C_9 
ROOT
HETATM    1  N   UNL     1      42.386 -13.530   5.130  1.00  0.00    -0.346 N 
HETATM    2  C   UNL     1      41.181 -14.031   4.694  1.00  0.00     0.256 C 
HETATM    3  O   UNL     1      40.431 -14.684   5.408  1.00  0.00    -0.267 OA
HETATM    4  H   UNL     1      42.993 -12.998   4.517  1.00  0.00     0.163 HD
ENDROOT
BRANCH   1   5
HETATM    5  C   UNL     1      42.897 -13.829   6.453  1.00  0.00     0.150 C 
HETATM    6  C   UNL     1      43.792 -15.064   6.425  1.00  0.00     0.040 C 
BRANCH   5   7
HETATM    7  C   UNL     1      43.650 -12.620   6.914  1.00  0.00     0.127 A 
HETATM    8  N   UNL     1      44.946 -12.394   6.801  1.00  0.00    -0.231 NA
HETATM    9  C   UNL     1      45.154 -11.157   7.361  1.00  0.00     0.085 A 
HETATM   10  C   UNL     1      43.957 -10.598   7.793  1.00  0.00     0.062 A 
HETATM   11  C   UNL     1      46.346 -10.440   7.536  1.00  0.00     0.034 A 
HETATM   12  N   UNL     1      43.014 -11.545   7.490  1.00  0.00    -0.341 N 
HETATM   13  C   UNL     1      43.868  -9.339   8.390  1.00  0.00     0.032 A 
HETATM   14  H   UNL     1      42.021 -11.467   7.655  1.00  0.00     0.167 HD
HETATM   15  C   UNL     1      45.068  -8.636   8.554  1.00  0.00     0.002 A 
HETATM   16  C   UNL     1      46.287  -9.176   8.139  1.00  0.00     0.002 A 
ENDBRANCH   5   7
ENDBRANCH   1   5
BRANCH   2  17
HETATM   17  C   UNL     1      40.842 -13.752   3.282  1.00  0.00     0.084 A 
HETATM   18  C   UNL     1      41.702 -14.110   2.247  1.00  0.00     0.180 A 
HETATM   19  N   UNL     1      41.434 -13.857   0.940  1.00  0.00    -0.236 NA
HETATM   20  C   UNL     1      40.287 -13.200   0.661  1.00  0.00     0.119 A 
HETATM   21  C   UNL     1      39.379 -12.792   1.625  1.00  0.00     0.020 A 
HETATM   22  C   UNL     1      39.662 -13.073   2.958  1.00  0.00     0.023 A 
BRANCH  18  23
HETATM   23  O   UNL     1      42.836 -14.833   2.546  1.00  0.00    -0.328 OA
BRANCH  23  24
HETATM   24  C   UNL     1      42.966 -16.037   1.779  1.00  0.00     0.248 C 
BRANCH  24  25
HETATM   25  C   UNL     1      42.180 -17.144   2.460  1.00  0.00     0.377 C 
HETATM   26  F   UNL     1      42.700 -18.353   2.117  1.00  0.00    -0.212 F 
HETATM   27  F   UNL     1      42.305 -17.045   3.809  1.00  0.00    -0.212 F 
ENDBRANCH  24  25
ENDBRANCH  23  24
ENDBRANCH  18  23
ENDBRANCH   2  17
TORSDOF 6
ENDMDL
MODEL 9
REMARK VINA RESULT:      -6.6      2.604      4.059
REMARK  6 active torsions:
REMARK  status: ('A' for Active; 'I' for Inactive)
REMARK    1  A    between atoms: C_2  and  N_3 
REMARK    2  A    between atoms: C_2  and  C_17 
REMARK       I    between atoms: N_3  and  C_4 
REMARK    3  A    between atoms: C_4  and  C_5 
REMARK    4  A    between atoms: C_6  and  O_7 
REMARK    5  A    between atoms: O_7  and  C_8 
REMARK    6  A    between atoms: C_8  and  C_9 
ROOT
HETATM    1  N   UNL     1      42.160 -12.376   4.600  1.00  0.00    -0.346 N 
HETATM    2  C   UNL     1      43.059 -12.727   3.619  1.00  0.00     0.256 C 
HETATM    3  O   UNL     1      43.782 -11.916   3.054  1.00  0.00    -0.267 OA
HETATM    4  H   UNL     1      41.567 -13.065   5.048  1.00  0.00     0.163 HD
ENDROOT
BRANCH   1   5
HETATM    5  C   UNL     1      41.938 -10.991   4.964  1.00  0.00     0.150 C 
HETATM    6  C   UNL     1      40.452 -10.717   5.182  1.00  0.00     0.040 C 
BRANCH   5   7
HETATM    7  C   UNL     1      42.728 -10.735   6.209  1.00  0.00     0.127 A 
HETATM    8  N   UNL     1      44.028 -10.893   6.377  1.00  0.00    -0.231 NA
HETATM    9  C   UNL     1      44.279 -10.526   7.677  1.00  0.00     0.085 A 
HETATM   10  C   UNL     1      43.115 -10.100   8.308  1.00  0.00     0.062 A 
HETATM   11  C   UNL     1      45.484 -10.528   8.394  1.00  0.00     0.034 A 
HETATM   12  N   UNL     1      42.144 -10.235   7.350  1.00  0.00    -0.341 N 
HETATM   13  C   UNL     1      43.076  -9.656   9.631  1.00  0.00     0.032 A 
HETATM   14  H   UNL     1      41.168 -10.003   7.459  1.00  0.00     0.167 HD
HETATM   15  C   UNL     1      44.289  -9.662  10.330  1.00  0.00     0.002 A 
HETATM   16  C   UNL     1      45.473 -10.093   9.727  1.00  0.00     0.002 A 
ENDBRANCH   5   7
ENDBRANCH   1   5
BRANCH   2  17
HETATM   17  C   UNL     1      43.094 -14.162   3.262  1.00  0.00     0.084 A 
HETATM   18  C   UNL     1      43.019 -15.152   4.239  1.00  0.00     0.180 A 
HETATM   19  N   UNL     1      43.064 -16.478   3.954  1.00  0.00    -0.236 NA
HETATM   20  C   UNL     1      43.217 -16.826   2.658  1.00  0.00     0.119 A 
HETATM   21  C   UNL     1      43.316 -15.913   1.621  1.00  0.00     0.020 A 
HETATM   22  C   UNL     1      43.254 -14.557   1.930  1.00  0.00     0.023 A 
BRANCH  18  23
HETATM   23  O   UNL     1      42.800 -14.779   5.548  1.00  0.00    -0.328 OA
BRANCH  23  24
HETATM   24  C   UNL     1      41.985 -15.705   6.278  1.00  0.00     0.248 C 
BRANCH  24  25
HETATM   25  C   UNL     1      40.535 -15.257   6.198  1.00  0.00     0.377 C 
HETATM   26  F   UNL     1      39.768 -16.043   6.998  1.00  0.00    -0.212 F 
HETATM   27  F   UNL     1      40.409 -13.991   6.674  1.00  0.00    -0.212 F 
ENDBRANCH  24  25
ENDBRANCH  23  24
ENDBRANCH  18  23
ENDBRANCH   2  17
TORSDOF 6
ENDMDL
MODEL 10
REMARK VINA RESULT:      -6.6      4.507      6.988
REMARK  6 active torsions:
REMARK  status: ('A' for Active; 'I' for Inactive)
REMARK    1  A    between atoms: C_2  and  N_3 
REMARK    2  A    between atoms: C_2  and  C_17 
REMARK       I    between atoms: N_3  and  C_4 
REMARK    3  A    between atoms: C_4  and  C_5 
REMARK    4  A    between atoms: C_6  and  O_7 
REMARK    5  A    between atoms: O_7  and  C_8 
REMARK    6  A    between atoms: C_8  and  C_9 
ROOT
HETATM    1  N   UNL     1      43.577 -10.987   8.353  1.00  0.00    -0.346 N 
HETATM    2  C   UNL     1      43.932 -11.813   7.311  1.00  0.00     0.256 C 
HETATM    3  O   UNL     1      45.093 -12.116   7.064  1.00  0.00    -0.267 OA
HETATM    4  H   UNL     1      42.610 -10.745   8.533  1.00  0.00     0.163 HD
ENDROOT
BRANCH   1   5
HETATM    5  C   UNL     1      44.575 -10.335   9.178  1.00  0.00     0.150 C 
HETATM    6  C   UNL     1      45.221  -9.171   8.433  1.00  0.00     0.040 C 
BRANCH   5   7
HETATM    7  C   UNL     1      43.880  -9.871  10.419  1.00  0.00     0.127 A 
HETATM    8  N   UNL     1      44.219  -8.857  11.194  1.00  0.00    -0.231 NA
HETATM    9  C   UNL     1      43.279  -8.827  12.195  1.00  0.00     0.085 A 
HETATM   10  C   UNL     1      42.323  -9.820  12.010  1.00  0.00     0.062 A 
HETATM   11  C   UNL     1      43.173  -7.974  13.303  1.00  0.00     0.034 A 
HETATM   12  N   UNL     1      42.723 -10.464  10.869  1.00  0.00    -0.341 N 
HETATM   13  C   UNL     1      41.240 -10.013  12.869  1.00  0.00     0.032 A 
HETATM   14  H   UNL     1      42.250 -11.240  10.428  1.00  0.00     0.167 HD
HETATM   15  C   UNL     1      41.149  -9.151  13.968  1.00  0.00     0.002 A 
HETATM   16  C   UNL     1      42.099  -8.151  14.186  1.00  0.00     0.002 A 
ENDBRANCH   5   7
ENDBRANCH   1   5
BRANCH   2  17
HETATM   17  C   UNL     1      42.818 -12.310   6.476  1.00  0.00     0.084 A 
HETATM   18  C   UNL     1      42.547 -13.672   6.368  1.00  0.00     0.180 A 
HETATM   19  N   UNL     1      41.545 -14.169   5.600  1.00  0.00    -0.236 NA
HETATM   20  C   UNL     1      40.808 -13.282   4.896  1.00  0.00     0.119 A 
HETATM   21  C   UNL     1      41.014 -11.912   4.928  1.00  0.00     0.020 A 
HETATM   22  C   UNL     1      42.036 -11.419   5.732  1.00  0.00     0.023 A 
BRANCH  18  23
HETATM   23  O   UNL     1      43.268 -14.556   7.142  1.00  0.00    -0.328 OA
BRANCH  23  24
HETATM   24  C   UNL     1      42.648 -15.842   7.269  1.00  0.00     0.248 C 
BRANCH  24  25
HETATM   25  C   UNL     1      43.586 -16.900   6.713  1.00  0.00     0.377 C 
HETATM   26  F   UNL     1      44.873 -16.483   6.841  1.00  0.00    -0.212 F 
HETATM   27  F   UNL     1      43.483 -18.044   7.437  1.00  0.00    -0.212 F 
ENDBRANCH  24  25
ENDBRANCH  23  24
ENDBRANCH  18  23
ENDBRANCH   2  17
TORSDOF 6
ENDMDL
