MODEL 1
REMARK VINA RESULT:      -8.5      0.000      0.000
REMARK  10 active torsions:
REMARK  status: ('A' for Active; 'I' for Inactive)
REMARK    1  A    between atoms: N_7  and  C_8 
REMARK    2  A    between atoms: C_8  and  C_9 
REMARK       I    between atoms: C_9  and  N_10 
REMARK    3  A    between atoms: N_10  and  C_11 
REMARK    4  A    between atoms: C_11  and  C_12 
REMARK    5  A    between atoms: C_12  and  C_13 
REMARK    6  A    between atoms: C_13  and  C_14 
REMARK       I    between atoms: C_14  and  N_15 
REMARK    7  A    between atoms: N_15  and  C_16 
REMARK    8  A    between atoms: C_16  and  C_17 
REMARK    9  A    between atoms: C_17  and  C_18 
REMARK   10  A    between atoms: C_18  and  N_19 
ROOT
HETATM    1  C   UNL     1      45.599 -11.120   6.464  1.00  0.00     0.123 C 
ENDROOT
BRANCH   1   2
HETATM    2  N   UNL     1      44.563 -12.088   6.755  1.00  0.00    -0.360 N 
HETATM    3  C   UNL     1      43.613 -12.433   5.811  1.00  0.00     0.235 C 
HETATM    4  O   UNL     1      43.576 -11.922   4.694  1.00  0.00    -0.272 OA
HETATM    5  H   UNL     1      44.503 -12.470   7.692  1.00  0.00     0.162 HD
BRANCH   3   6
HETATM    6  C   UNL     1      42.670 -13.553   6.249  1.00  0.00     0.235 C 
BRANCH   6   7
HETATM    7  N   UNL     1      43.144 -14.833   5.752  1.00  0.00    -0.299 N 
HETATM    8  C   UNL     1      44.082 -15.551   6.468  1.00  0.00     0.214 A 
HETATM    9  N   UNL     1      44.549 -16.712   6.139  1.00  0.00    -0.235 NA
HETATM   10  C   UNL     1      44.041 -17.213   4.986  1.00  0.00     0.115 A 
HETATM   11  C   UNL     1      43.143 -16.597   4.142  1.00  0.00     0.075 A 
HETATM   12  S   UNL     1      44.478 -18.755   4.423  1.00  0.00    -0.074 SA
HETATM   13  C   UNL     1      42.811 -17.401   2.993  1.00  0.00    -0.031 A 
HETATM   14  C   UNL     1      42.667 -15.276   4.522  1.00  0.00     0.262 A 
HETATM   15  C   UNL     1      41.874 -16.972   1.909  1.00  0.00     0.050 C 
HETATM   16  C   UNL     1      43.457 -18.630   3.054  1.00  0.00    -0.012 A 
HETATM   17  C   UNL     1      43.371 -19.782   2.106  1.00  0.00     0.057 C 
HETATM   18  O   UNL     1      41.908 -14.608   3.821  1.00  0.00    -0.267 OA
ENDBRANCH   6   7
ENDBRANCH   3   6
ENDBRANCH   1   2
BRANCH   1  19
HETATM   19  C   UNL     1      46.404 -10.739   7.707  1.00  0.00     0.029 C 
BRANCH  19  20
HETATM   20  C   UNL     1      46.473  -9.222   7.864  1.00  0.00     0.104 C 
BRANCH  20  21
HETATM   21  C   UNL     1      45.317  -8.647   8.658  1.00  0.00     0.217 C 
HETATM   22  N   UNL     1      44.713  -9.514   9.537  1.00  0.00    -0.361 N 
HETATM   23  H   UNL     1      44.987 -10.494   9.504  1.00  0.00     0.162 HD
HETATM   24  O   UNL     1      44.918  -7.492   8.513  1.00  0.00    -0.274 OA
BRANCH  22  25
HETATM   25  C   UNL     1      43.477  -9.193  10.217  1.00  0.00     0.124 C 
BRANCH  25  26
HETATM   26  C   UNL     1      43.648  -8.842  11.695  1.00  0.00     0.047 C 
BRANCH  26  27
HETATM   27  C   UNL     1      42.705  -9.518  12.695  1.00  0.00     0.236 C 
BRANCH  27  28
HETATM   28  N   UNL     1      41.963  -8.562  13.602  1.00  0.00    -0.070 N 
HETATM   29  H   UNL     1      41.598  -9.160  14.375  1.00  0.00     0.279 HD
HETATM   30  C   UNL     1      42.805  -7.445  14.153  1.00  0.00     0.239 C 
HETATM   31  C   UNL     1      42.016  -6.591  15.149  1.00  0.00     0.008 C 
HETATM   32  C   UNL     1      41.784  -7.323  16.474  1.00  0.00     0.011 C 
HETATM   33  C   UNL     1      40.702  -6.097  14.531  1.00  0.00     0.011 C 
HETATM   34  C   UNL     1      39.877  -7.235  13.921  1.00  0.00     0.008 C 
HETATM   35  C   UNL     1      38.625  -6.681  13.241  1.00  0.00     0.011 C 
HETATM   36  C   UNL     1      40.712  -8.042  12.925  1.00  0.00     0.239 C 
ENDBRANCH  27  28
ENDBRANCH  26  27
ENDBRANCH  25  26
ENDBRANCH  22  25
ENDBRANCH  20  21
ENDBRANCH  19  20
ENDBRANCH   1  19
TORSDOF 10
ENDMDL
MODEL 2
REMARK VINA RESULT:      -8.3      1.909      2.658
REMARK  10 active torsions:
REMARK  status: ('A' for Active; 'I' for Inactive)
REMARK    1  A    between atoms: N_7  and  C_8 
REMARK    2  A    between atoms: C_8  and  C_9 
REMARK       I    between atoms: C_9  and  N_10 
REMARK    3  A    between atoms: N_10  and  C_11 
REMARK    4  A    between atoms: C_11  and  C_12 
REMARK    5  A    between atoms: C_12  and  C_13 
REMARK    6  A    between atoms: C_13  and  C_14 
REMARK       I    between atoms: C_14  and  N_15 
REMARK    7  A    between atoms: N_15  and  C_16 
REMARK    8  A    between atoms: C_16  and  C_17 
REMARK    9  A    between atoms: C_17  and  C_18 
REMARK   10  A    between atoms: C_18  and  N_19 
ROOT
HETATM    1  C   UNL     1      45.673 -10.649   7.347  1.00  0.00     0.123 C 
ENDROOT
BRANCH   1   2
HETATM    2  N   UNL     1      44.436 -11.360   7.098  1.00  0.00    -0.360 N 
HETATM    3  C   UNL     1      44.029 -11.669   5.812  1.00  0.00     0.235 C 
HETATM    4  O   UNL     1      44.670 -11.336   4.818  1.00  0.00    -0.272 OA
HETATM    5  H   UNL     1      43.834 -11.578   7.883  1.00  0.00     0.162 HD
BRANCH   3   6
HETATM    6  C   UNL     1      42.763 -12.523   5.743  1.00  0.00     0.235 C 
BRANCH   6   7
HETATM    7  N   UNL     1      43.107 -13.915   5.517  1.00  0.00    -0.299 N 
HETATM    8  C   UNL     1      43.590 -14.690   6.554  1.00  0.00     0.214 A 
HETATM    9  N   UNL     1      43.895 -15.944   6.476  1.00  0.00    -0.235 NA
HETATM   10  C   UNL     1      43.709 -16.489   5.247  1.00  0.00     0.115 A 
HETATM   11  C   UNL     1      43.286 -15.837   4.110  1.00  0.00     0.075 A 
HETATM   12  S   UNL     1      43.988 -18.140   4.960  1.00  0.00    -0.074 SA
HETATM   13  C   UNL     1      43.199 -16.708   2.965  1.00  0.00    -0.031 A 
HETATM   14  C   UNL     1      42.987 -14.418   4.224  1.00  0.00     0.262 A 
HETATM   15  C   UNL     1      42.782 -16.262   1.599  1.00  0.00     0.050 C 
HETATM   16  C   UNL     1      43.527 -18.011   3.317  1.00  0.00    -0.012 A 
HETATM   17  C   UNL     1      43.530 -19.239   2.464  1.00  0.00     0.057 C 
HETATM   18  O   UNL     1      42.655 -13.722   3.266  1.00  0.00    -0.267 OA
ENDBRANCH   6   7
ENDBRANCH   3   6
ENDBRANCH   1   2
BRANCH   1  19
HETATM   19  C   UNL     1      45.479  -9.456   8.283  1.00  0.00     0.029 C 
BRANCH  19  20
HETATM   20  C   UNL     1      45.373  -9.917   9.735  1.00  0.00     0.104 C 
BRANCH  20  21
HETATM   21  C   UNL     1      43.951  -9.930  10.259  1.00  0.00     0.217 C 
HETATM   22  N   UNL     1      43.823 -10.016  11.624  1.00  0.00    -0.361 N 
HETATM   23  H   UNL     1      44.663 -10.193  12.172  1.00  0.00     0.162 HD
HETATM   24  O   UNL     1      42.968  -9.896   9.519  1.00  0.00    -0.274 OA
BRANCH  22  25
HETATM   25  C   UNL     1      42.550 -10.245  12.272  1.00  0.00     0.124 C 
BRANCH  25  26
HETATM   26  C   UNL     1      42.210  -9.231  13.363  1.00  0.00     0.047 C 
BRANCH  26  27
HETATM   27  C   UNL     1      41.240  -8.103  13.002  1.00  0.00     0.236 C 
BRANCH  27  28
HETATM   28  N   UNL     1      41.831  -7.027  12.117  1.00  0.00    -0.070 N 
HETATM   29  H   UNL     1      42.843  -7.266  12.050  1.00  0.00     0.279 HD
HETATM   30  C   UNL     1      41.219  -6.943  10.746  1.00  0.00     0.239 C 
HETATM   31  C   UNL     1      41.944  -5.915   9.874  1.00  0.00     0.008 C 
HETATM   32  C   UNL     1      43.325  -6.408   9.434  1.00  0.00     0.011 C 
HETATM   33  C   UNL     1      42.021  -4.553  10.576  1.00  0.00     0.011 C 
HETATM   34  C   UNL     1      42.593  -4.657  11.994  1.00  0.00     0.008 C 
HETATM   35  C   UNL     1      42.564  -3.292  12.682  1.00  0.00     0.011 C 
HETATM   36  C   UNL     1      41.819  -5.687  12.821  1.00  0.00     0.239 C 
ENDBRANCH  27  28
ENDBRANCH  26  27
ENDBRANCH  25  26
ENDBRANCH  22  25
ENDBRANCH  20  21
ENDBRANCH  19  20
ENDBRANCH   1  19
TORSDOF 10
ENDMDL
MODEL 3
REMARK VINA RESULT:      -8.2      1.871      2.837
REMARK  10 active torsions:
REMARK  status: ('A' for Active; 'I' for Inactive)
REMARK    1  A    between atoms: N_7  and  C_8 
REMARK    2  A    between atoms: C_8  and  C_9 
REMARK       I    between atoms: C_9  and  N_10 
REMARK    3  A    between atoms: N_10  and  C_11 
REMARK    4  A    between atoms: C_11  and  C_12 
REMARK    5  A    between atoms: C_12  and  C_13 
REMARK    6  A    between atoms: C_13  and  C_14 
REMARK       I    between atoms: C_14  and  N_15 
REMARK    7  A    between atoms: N_15  and  C_16 
REMARK    8  A    between atoms: C_16  and  C_17 
REMARK    9  A    between atoms: C_17  and  C_18 
REMARK   10  A    between atoms: C_18  and  N_19 
ROOT
HETATM    1  C   UNL     1      46.026 -11.067   6.899  1.00  0.00     0.123 C 
ENDROOT
BRANCH   1   2
HETATM    2  N   UNL     1      44.697 -11.614   6.729  1.00  0.00    -0.360 N 
HETATM    3  C   UNL     1      44.089 -11.660   5.487  1.00  0.00     0.235 C 
HETATM    4  O   UNL     1      44.623 -11.217   4.474  1.00  0.00    -0.272 OA
HETATM    5  H   UNL     1      44.184 -11.912   7.552  1.00  0.00     0.162 HD
BRANCH   3   6
HETATM    6  C   UNL     1      42.739 -12.376   5.475  1.00  0.00     0.235 C 
BRANCH   6   7
HETATM    7  N   UNL     1      42.805 -13.562   4.641  1.00  0.00    -0.299 N 
HETATM    8  C   UNL     1      42.568 -13.470   3.282  1.00  0.00     0.214 A 
HETATM    9  N   UNL     1      42.633 -14.450   2.441  1.00  0.00    -0.235 NA
HETATM   10  C   UNL     1      42.961 -15.644   2.997  1.00  0.00     0.115 A 
HETATM   11  C   UNL     1      43.174 -15.901   4.333  1.00  0.00     0.075 A 
HETATM   12  S   UNL     1      43.162 -17.037   2.046  1.00  0.00    -0.074 SA
HETATM   13  C   UNL     1      43.500 -17.281   4.592  1.00  0.00    -0.031 A 
HETATM   14  C   UNL     1      43.057 -14.785   5.257  1.00  0.00     0.262 A 
HETATM   15  C   UNL     1      43.766 -17.842   5.954  1.00  0.00     0.050 C 
HETATM   16  C   UNL     1      43.560 -18.000   3.405  1.00  0.00    -0.012 A 
HETATM   17  C   UNL     1      43.902 -19.440   3.197  1.00  0.00     0.057 C 
HETATM   18  O   UNL     1      43.171 -14.906   6.476  1.00  0.00    -0.267 OA
ENDBRANCH   6   7
ENDBRANCH   3   6
ENDBRANCH   1   2
BRANCH   1  19
HETATM   19  C   UNL     1      46.174 -10.293   8.208  1.00  0.00     0.029 C 
BRANCH  19  20
HETATM   20  C   UNL     1      44.806  -9.964   8.801  1.00  0.00     0.104 C 
BRANCH  20  21
HETATM   21  C   UNL     1      44.408  -8.512   8.624  1.00  0.00     0.217 C 
HETATM   22  N   UNL     1      43.058  -8.260   8.656  1.00  0.00    -0.361 N 
HETATM   23  H   UNL     1      42.424  -9.056   8.663  1.00  0.00     0.162 HD
HETATM   24  O   UNL     1      45.229  -7.615   8.435  1.00  0.00    -0.274 OA
BRANCH  22  25
HETATM   25  C   UNL     1      42.501  -6.972   8.301  1.00  0.00     0.124 C 
BRANCH  25  26
HETATM   26  C   UNL     1      41.678  -6.318   9.411  1.00  0.00     0.047 C 
BRANCH  26  27
HETATM   27  C   UNL     1      40.513  -7.122   9.994  1.00  0.00     0.236 C 
BRANCH  27  28
HETATM   28  N   UNL     1      40.839  -7.864  11.271  1.00  0.00    -0.070 N 
HETATM   29  H   UNL     1      39.998  -7.737  11.873  1.00  0.00     0.279 HD
HETATM   30  C   UNL     1      41.137  -9.326  11.084  1.00  0.00     0.239 C 
HETATM   31  C   UNL     1      41.343 -10.029  12.428  1.00  0.00     0.008 C 
HETATM   32  C   UNL     1      40.027 -10.201  13.193  1.00  0.00     0.011 C 
HETATM   33  C   UNL     1      42.403  -9.309  13.270  1.00  0.00     0.011 C 
HETATM   34  C   UNL     1      42.122  -7.809  13.408  1.00  0.00     0.008 C 
HETATM   35  C   UNL     1      43.251  -7.122  14.176  1.00  0.00     0.011 C 
HETATM   36  C   UNL     1      41.941  -7.159  12.034  1.00  0.00     0.239 C 
ENDBRANCH  27  28
ENDBRANCH  26  27
ENDBRANCH  25  26
ENDBRANCH  22  25
ENDBRANCH  20  21
ENDBRANCH  19  20
ENDBRANCH   1  19
TORSDOF 10
ENDMDL
MODEL 4
REMARK VINA RESULT:      -8.2      0.880      1.545
REMARK  10 active torsions:
REMARK  status: ('A' for Active; 'I' for Inactive)
REMARK    1  A    between atoms: N_7  and  C_8 
REMARK    2  A    between atoms: C_8  and  C_9 
REMARK       I    between atoms: C_9  and  N_10 
REMARK    3  A    between atoms: N_10  and  C_11 
REMARK    4  A    between atoms: C_11  and  C_12 
REMARK    5  A    between atoms: C_12  and  C_13 
REMARK    6  A    between atoms: C_13  and  C_14 
REMARK       I    between atoms: C_14  and  N_15 
REMARK    7  A    between atoms: N_15  and  C_16 
REMARK    8  A    between atoms: C_16  and  C_17 
REMARK    9  A    between atoms: C_17  and  C_18 
REMARK   10  A    between atoms: C_18  and  N_19 
ROOT
HETATM    1  C   UNL     1      44.137 -10.648   6.986  1.00  0.00     0.123 C 
ENDROOT
BRANCH   1   2
HETATM    2  N   UNL     1      43.265 -11.798   7.103  1.00  0.00    -0.360 N 
HETATM    3  C   UNL     1      43.046 -12.649   6.035  1.00  0.00     0.235 C 
HETATM    4  O   UNL     1      43.548 -12.464   4.929  1.00  0.00    -0.272 OA
HETATM    5  H   UNL     1      42.762 -11.940   7.972  1.00  0.00     0.162 HD
BRANCH   3   6
HETATM    6  C   UNL     1      42.194 -13.873   6.372  1.00  0.00     0.235 C 
BRANCH   6   7
HETATM    7  N   UNL     1      42.816 -15.077   5.853  1.00  0.00    -0.299 N 
HETATM    8  C   UNL     1      43.813 -15.709   6.572  1.00  0.00     0.214 A 
HETATM    9  N   UNL     1      44.412 -16.801   6.224  1.00  0.00    -0.235 NA
HETATM   10  C   UNL     1      43.985 -17.322   5.046  1.00  0.00     0.115 A 
HETATM   11  C   UNL     1      43.043 -16.784   4.198  1.00  0.00     0.075 A 
HETATM   12  S   UNL     1      44.602 -18.790   4.453  1.00  0.00    -0.074 SA
HETATM   13  C   UNL     1      42.825 -17.587   3.021  1.00  0.00    -0.031 A 
HETATM   14  C   UNL     1      42.416 -15.535   4.601  1.00  0.00     0.262 A 
HETATM   15  C   UNL     1      41.869 -17.233   1.927  1.00  0.00     0.050 C 
HETATM   16  C   UNL     1      43.601 -18.738   3.065  1.00  0.00    -0.012 A 
HETATM   17  C   UNL     1      43.662 -19.865   2.085  1.00  0.00     0.057 C 
HETATM   18  O   UNL     1      41.603 -14.934   3.900  1.00  0.00    -0.267 OA
ENDBRANCH   6   7
ENDBRANCH   3   6
ENDBRANCH   1   2
BRANCH   1  19
HETATM   19  C   UNL     1      45.593 -10.989   7.299  1.00  0.00     0.029 C 
BRANCH  19  20
HETATM   20  C   UNL     1      46.338  -9.763   7.822  1.00  0.00     0.104 C 
BRANCH  20  21
HETATM   21  C   UNL     1      45.526  -8.941   8.802  1.00  0.00     0.217 C 
HETATM   22  N   UNL     1      45.191  -9.576   9.974  1.00  0.00    -0.361 N 
HETATM   23  H   UNL     1      45.390 -10.571  10.051  1.00  0.00     0.162 HD
HETATM   24  O   UNL     1      45.160  -7.791   8.564  1.00  0.00    -0.274 OA
BRANCH  22  25
HETATM   25  C   UNL     1      44.254  -9.013  10.922  1.00  0.00     0.124 C 
BRANCH  25  26
HETATM   26  C   UNL     1      43.436 -10.052  11.688  1.00  0.00     0.047 C 
BRANCH  26  27
HETATM   27  C   UNL     1      41.928  -9.815  11.810  1.00  0.00     0.236 C 
BRANCH  27  28
HETATM   28  N   UNL     1      41.550  -8.580  12.596  1.00  0.00    -0.070 N 
HETATM   29  H   UNL     1      42.355  -7.930  12.473  1.00  0.00     0.279 HD
HETATM   30  C   UNL     1      40.272  -7.925  12.149  1.00  0.00     0.239 C 
HETATM   31  C   UNL     1      40.017  -6.622  12.912  1.00  0.00     0.008 C 
HETATM   32  C   UNL     1      40.967  -5.504  12.471  1.00  0.00     0.011 C 
HETATM   33  C   UNL     1      40.070  -6.852  14.428  1.00  0.00     0.011 C 
HETATM   34  C   UNL     1      41.350  -7.571  14.867  1.00  0.00     0.008 C 
HETATM   35  C   UNL     1      41.313  -7.857  16.368  1.00  0.00     0.011 C 
HETATM   36  C   UNL     1      41.542  -8.871  14.082  1.00  0.00     0.239 C 
ENDBRANCH  27  28
ENDBRANCH  26  27
ENDBRANCH  25  26
ENDBRANCH  22  25
ENDBRANCH  20  21
ENDBRANCH  19  20
ENDBRANCH   1  19
TORSDOF 10
ENDMDL
MODEL 5
REMARK VINA RESULT:      -8.2      1.518      2.299
REMARK  10 active torsions:
REMARK  status: ('A' for Active; 'I' for Inactive)
REMARK    1  A    between atoms: N_7  and  C_8 
REMARK    2  A    between atoms: C_8  and  C_9 
REMARK       I    between atoms: C_9  and  N_10 
REMARK    3  A    between atoms: N_10  and  C_11 
REMARK    4  A    between atoms: C_11  and  C_12 
REMARK    5  A    between atoms: C_12  and  C_13 
REMARK    6  A    between atoms: C_13  and  C_14 
REMARK       I    between atoms: C_14  and  N_15 
REMARK    7  A    between atoms: N_15  and  C_16 
REMARK    8  A    between atoms: C_16  and  C_17 
REMARK    9  A    between atoms: C_17  and  C_18 
REMARK   10  A    between atoms: C_18  and  N_19 
ROOT
HETATM    1  C   UNL     1      45.608 -10.384   7.340  1.00  0.00     0.123 C 
ENDROOT
BRANCH   1   2
HETATM    2  N   UNL     1      44.382 -11.137   7.174  1.00  0.00    -0.360 N 
HETATM    3  C   UNL     1      43.958 -11.556   5.926  1.00  0.00     0.235 C 
HETATM    4  O   UNL     1      44.572 -11.291   4.896  1.00  0.00    -0.272 OA
HETATM    5  H   UNL     1      43.799 -11.303   7.986  1.00  0.00     0.162 HD
BRANCH   3   6
HETATM    6  C   UNL     1      42.709 -12.437   5.951  1.00  0.00     0.235 C 
BRANCH   6   7
HETATM    7  N   UNL     1      43.061 -13.817   5.669  1.00  0.00    -0.299 N 
HETATM    8  C   UNL     1      43.606 -14.612   6.660  1.00  0.00     0.214 A 
HETATM    9  N   UNL     1      43.926 -15.858   6.531  1.00  0.00    -0.235 NA
HETATM   10  C   UNL     1      43.686 -16.373   5.299  1.00  0.00     0.115 A 
HETATM   11  C   UNL     1      43.197 -15.697   4.203  1.00  0.00     0.075 A 
HETATM   12  S   UNL     1      43.975 -18.011   4.953  1.00  0.00    -0.074 SA
HETATM   13  C   UNL     1      43.066 -16.539   3.040  1.00  0.00    -0.031 A 
HETATM   14  C   UNL     1      42.884 -14.287   4.371  1.00  0.00     0.262 A 
HETATM   15  C   UNL     1      42.575 -16.063   1.709  1.00  0.00     0.050 C 
HETATM   16  C   UNL     1      43.430 -17.845   3.339  1.00  0.00    -0.012 A 
HETATM   17  C   UNL     1      43.408 -19.050   2.454  1.00  0.00     0.057 C 
HETATM   18  O   UNL     1      42.495 -13.571   3.450  1.00  0.00    -0.267 OA
ENDBRANCH   6   7
ENDBRANCH   3   6
ENDBRANCH   1   2
BRANCH   1  19
HETATM   19  C   UNL     1      45.461  -9.253   8.358  1.00  0.00     0.029 C 
BRANCH  19  20
HETATM   20  C   UNL     1      45.747  -9.754   9.772  1.00  0.00     0.104 C 
BRANCH  20  21
HETATM   21  C   UNL     1      44.493 -10.000  10.586  1.00  0.00     0.217 C 
HETATM   22  N   UNL     1      44.112  -8.971  11.413  1.00  0.00    -0.361 N 
HETATM   23  H   UNL     1      44.750  -8.185  11.522  1.00  0.00     0.162 HD
HETATM   24  O   UNL     1      43.866 -11.058  10.540  1.00  0.00    -0.274 OA
BRANCH  22  25
HETATM   25  C   UNL     1      43.067  -9.117  12.403  1.00  0.00     0.124 C 
BRANCH  25  26
HETATM   26  C   UNL     1      42.644  -7.807  13.066  1.00  0.00     0.047 C 
BRANCH  26  27
HETATM   27  C   UNL     1      41.143  -7.543  13.215  1.00  0.00     0.236 C 
BRANCH  27  28
HETATM   28  N   UNL     1      40.750  -6.872  14.513  1.00  0.00    -0.070 N 
HETATM   29  H   UNL     1      41.347  -6.019  14.561  1.00  0.00     0.279 HD
HETATM   30  C   UNL     1      39.296  -6.504  14.608  1.00  0.00     0.239 C 
HETATM   31  C   UNL     1      39.000  -5.728  15.894  1.00  0.00     0.008 C 
HETATM   32  C   UNL     1      39.554  -4.301  15.844  1.00  0.00     0.011 C 
HETATM   33  C   UNL     1      39.502  -6.492  17.126  1.00  0.00     0.011 C 
HETATM   34  C   UNL     1      40.970  -6.914  16.996  1.00  0.00     0.008 C 
HETATM   35  C   UNL     1      41.395  -7.748  18.204  1.00  0.00     0.011 C 
HETATM   36  C   UNL     1      41.200  -7.697  15.701  1.00  0.00     0.239 C 
ENDBRANCH  27  28
ENDBRANCH  26  27
ENDBRANCH  25  26
ENDBRANCH  22  25
ENDBRANCH  20  21
ENDBRANCH  19  20
ENDBRANCH   1  19
TORSDOF 10
ENDMDL
MODEL 6
REMARK VINA RESULT:      -8.2      3.253     11.036
REMARK  10 active torsions:
REMARK  status: ('A' for Active; 'I' for Inactive)
REMARK    1  A    between atoms: N_7  and  C_8 
REMARK    2  A    between atoms: C_8  and  C_9 
REMARK       I    between atoms: C_9  and  N_10 
REMARK    3  A    between atoms: N_10  and  C_11 
REMARK    4  A    between atoms: C_11  and  C_12 
REMARK    5  A    between atoms: C_12  and  C_13 
REMARK    6  A    between atoms: C_13  and  C_14 
REMARK       I    between atoms: C_14  and  N_15 
REMARK    7  A    between atoms: N_15  and  C_16 
REMARK    8  A    between atoms: C_16  and  C_17 
REMARK    9  A    between atoms: C_17  and  C_18 
REMARK   10  A    between atoms: C_18  and  N_19 
ROOT
HETATM    1  C   UNL     1      43.118 -12.738   6.526  1.00  0.00     0.123 C 
ENDROOT
BRANCH   1   2
HETATM    2  N   UNL     1      43.959 -12.182   7.566  1.00  0.00    -0.360 N 
HETATM    3  C   UNL     1      45.070 -11.416   7.261  1.00  0.00     0.235 C 
HETATM    4  O   UNL     1      45.421 -11.192   6.105  1.00  0.00    -0.272 OA
HETATM    5  H   UNL     1      43.756 -12.413   8.531  1.00  0.00     0.162 HD
BRANCH   3   6
HETATM    6  C   UNL     1      45.770 -10.814   8.479  1.00  0.00     0.235 C 
BRANCH   6   7
HETATM    7  N   UNL     1      44.979  -9.729   9.029  1.00  0.00    -0.299 N 
HETATM    8  C   UNL     1      44.885  -8.526   8.357  1.00  0.00     0.214 A 
HETATM    9  N   UNL     1      44.185  -7.507   8.735  1.00  0.00    -0.235 NA
HETATM   10  C   UNL     1      43.510  -7.692   9.898  1.00  0.00     0.115 A 
HETATM   11  C   UNL     1      43.544  -8.809  10.703  1.00  0.00     0.075 A 
HETATM   12  S   UNL     1      42.481  -6.494  10.524  1.00  0.00    -0.074 SA
HETATM   13  C   UNL     1      42.715  -8.680  11.875  1.00  0.00    -0.031 A 
HETATM   14  C   UNL     1      44.372  -9.923  10.268  1.00  0.00     0.262 A 
HETATM   15  C   UNL     1      42.576  -9.735  12.927  1.00  0.00     0.050 C 
HETATM   16  C   UNL     1      42.049  -7.461  11.870  1.00  0.00    -0.012 A 
HETATM   17  C   UNL     1      41.062  -6.928  12.859  1.00  0.00     0.057 C 
HETATM   18  O   UNL     1      44.523 -10.948  10.931  1.00  0.00    -0.267 OA
ENDBRANCH   6   7
ENDBRANCH   3   6
ENDBRANCH   1   2
BRANCH   1  19
HETATM   19  C   UNL     1      42.065 -11.745   6.037  1.00  0.00     0.029 C 
BRANCH  19  20
HETATM   20  C   UNL     1      40.747 -12.454   5.737  1.00  0.00     0.104 C 
BRANCH  20  21
HETATM   21  C   UNL     1      40.308 -12.322   4.292  1.00  0.00     0.217 C 
HETATM   22  N   UNL     1      39.563 -13.366   3.801  1.00  0.00    -0.361 N 
HETATM   23  H   UNL     1      39.467 -14.198   4.381  1.00  0.00     0.162 HD
HETATM   24  O   UNL     1      40.618 -11.362   3.587  1.00  0.00    -0.274 OA
BRANCH  22  25
HETATM   25  C   UNL     1      39.240 -13.497   2.397  1.00  0.00     0.124 C 
BRANCH  25  26
HETATM   26  C   UNL     1      39.911 -14.685   1.707  1.00  0.00     0.047 C 
BRANCH  26  27
HETATM   27  C   UNL     1      41.441 -14.751   1.745  1.00  0.00     0.236 C 
BRANCH  27  28
HETATM   28  N   UNL     1      41.998 -15.949   2.481  1.00  0.00    -0.070 N 
HETATM   29  H   UNL     1      41.249 -16.672   2.416  1.00  0.00     0.279 HD
HETATM   30  C   UNL     1      43.289 -16.478   1.921  1.00  0.00     0.239 C 
HETATM   31  C   UNL     1      43.728 -17.755   2.643  1.00  0.00     0.008 C 
HETATM   32  C   UNL     1      42.854 -18.955   2.268  1.00  0.00     0.011 C 
HETATM   33  C   UNL     1      43.781 -17.539   4.161  1.00  0.00     0.011 C 
HETATM   34  C   UNL     1      42.481 -16.946   4.714  1.00  0.00     0.008 C 
HETATM   35  C   UNL     1      42.617 -16.665   6.210  1.00  0.00     0.011 C 
HETATM   36  C   UNL     1      42.103 -15.666   3.965  1.00  0.00     0.239 C 
ENDBRANCH  27  28
ENDBRANCH  26  27
ENDBRANCH  25  26
ENDBRANCH  22  25
ENDBRANCH  20  21
ENDBRANCH  19  20
ENDBRANCH   1  19
TORSDOF 10
ENDMDL
MODEL 7
REMARK VINA RESULT:      -8.1      2.737      4.103
REMARK  10 active torsions:
REMARK  status: ('A' for Active; 'I' for Inactive)
REMARK    1  A    between atoms: N_7  and  C_8 
REMARK    2  A    between atoms: C_8  and  C_9 
REMARK       I    between atoms: C_9  and  N_10 
REMARK    3  A    between atoms: N_10  and  C_11 
REMARK    4  A    between atoms: C_11  and  C_12 
REMARK    5  A    between atoms: C_12  and  C_13 
REMARK    6  A    between atoms: C_13  and  C_14 
REMARK       I    between atoms: C_14  and  N_15 
REMARK    7  A    between atoms: N_15  and  C_16 
REMARK    8  A    between atoms: C_16  and  C_17 
REMARK    9  A    between atoms: C_17  and  C_18 
REMARK   10  A    between atoms: C_18  and  N_19 
ROOT
HETATM    1  C   UNL     1      39.645 -12.628   4.524  1.00  0.00     0.123 C 
ENDROOT
BRANCH   1   2
HETATM    2  N   UNL     1      40.919 -12.935   5.140  1.00  0.00    -0.360 N 
HETATM    3  C   UNL     1      41.025 -13.879   6.146  1.00  0.00     0.235 C 
HETATM    4  O   UNL     1      40.052 -14.482   6.591  1.00  0.00    -0.272 OA
HETATM    5  H   UNL     1      41.734 -12.400   4.863  1.00  0.00     0.162 HD
BRANCH   3   6
HETATM    6  C   UNL     1      42.459 -14.159   6.595  1.00  0.00     0.235 C 
BRANCH   6   7
HETATM    7  N   UNL     1      42.870 -15.485   6.170  1.00  0.00    -0.299 N 
HETATM    8  C   UNL     1      43.178 -16.451   7.109  1.00  0.00     0.214 A 
HETATM    9  N   UNL     1      43.522 -17.670   6.847  1.00  0.00    -0.235 NA
HETATM   10  C   UNL     1      43.569 -17.965   5.523  1.00  0.00     0.115 A 
HETATM   11  C   UNL     1      43.340 -17.101   4.476  1.00  0.00     0.075 A 
HETATM   12  S   UNL     1      43.933 -19.533   4.979  1.00  0.00    -0.074 SA
HETATM   13  C   UNL     1      43.477 -17.734   3.188  1.00  0.00    -0.031 A 
HETATM   14  C   UNL     1      42.992 -15.728   4.805  1.00  0.00     0.262 A 
HETATM   15  C   UNL     1      43.299 -17.028   1.881  1.00  0.00     0.050 C 
HETATM   16  C   UNL     1      43.767 -19.084   3.335  1.00  0.00    -0.012 A 
HETATM   17  C   UNL     1      43.950 -20.124   2.278  1.00  0.00     0.057 C 
HETATM   18  O   UNL     1      42.820 -14.856   3.955  1.00  0.00    -0.267 OA
ENDBRANCH   6   7
ENDBRANCH   3   6
ENDBRANCH   1   2
BRANCH   1  19
HETATM   19  C   UNL     1      39.591 -11.201   3.981  1.00  0.00     0.029 C 
BRANCH  19  20
HETATM   20  C   UNL     1      40.020 -10.197   5.048  1.00  0.00     0.104 C 
BRANCH  20  21
HETATM   21  C   UNL     1      39.104 -10.175   6.255  1.00  0.00     0.217 C 
HETATM   22  N   UNL     1      39.712 -10.406   7.465  1.00  0.00    -0.361 N 
HETATM   23  H   UNL     1      40.686 -10.701   7.460  1.00  0.00     0.162 HD
HETATM   24  O   UNL     1      37.890  -9.991   6.166  1.00  0.00    -0.274 OA
BRANCH  22  25
HETATM   25  C   UNL     1      38.960 -10.622   8.682  1.00  0.00     0.124 C 
BRANCH  25  26
HETATM   26  C   UNL     1      39.056  -9.476   9.690  1.00  0.00     0.047 C 
BRANCH  26  27
HETATM   27  C   UNL     1      40.271  -8.549   9.590  1.00  0.00     0.236 C 
BRANCH  27  28
HETATM   28  N   UNL     1      41.390  -8.877  10.553  1.00  0.00    -0.070 N 
HETATM   29  H   UNL     1      41.462  -9.917  10.530  1.00  0.00     0.279 HD
HETATM   30  C   UNL     1      42.713  -8.251  10.207  1.00  0.00     0.239 C 
HETATM   31  C   UNL     1      43.818  -8.721  11.156  1.00  0.00     0.008 C 
HETATM   32  C   UNL     1      44.222 -10.174  10.891  1.00  0.00     0.011 C 
HETATM   33  C   UNL     1      43.418  -8.498  12.620  1.00  0.00     0.011 C 
HETATM   34  C   UNL     1      42.043  -9.090  12.949  1.00  0.00     0.008 C 
HETATM   35  C   UNL     1      41.652  -8.762  14.390  1.00  0.00     0.011 C 
HETATM   36  C   UNL     1      40.979  -8.572  11.978  1.00  0.00     0.239 C 
ENDBRANCH  27  28
ENDBRANCH  26  27
ENDBRANCH  25  26
ENDBRANCH  22  25
ENDBRANCH  20  21
ENDBRANCH  19  20
ENDBRANCH   1  19
TORSDOF 10
ENDMDL
MODEL 8
REMARK VINA RESULT:      -8.1      2.013      2.788
REMARK  10 active torsions:
REMARK  status: ('A' for Active; 'I' for Inactive)
REMARK    1  A    between atoms: N_7  and  C_8 
REMARK    2  A    between atoms: C_8  and  C_9 
REMARK       I    between atoms: C_9  and  N_10 
REMARK    3  A    between atoms: N_10  and  C_11 
REMARK    4  A    between atoms: C_11  and  C_12 
REMARK    5  A    between atoms: C_12  and  C_13 
REMARK    6  A    between atoms: C_13  and  C_14 
REMARK       I    between atoms: C_14  and  N_15 
REMARK    7  A    between atoms: N_15  and  C_16 
REMARK    8  A    between atoms: C_16  and  C_17 
REMARK    9  A    between atoms: C_17  and  C_18 
REMARK   10  A    between atoms: C_18  and  N_19 
ROOT
HETATM    1  C   UNL     1      42.994 -10.997   5.483  1.00  0.00     0.123 C 
ENDROOT
BRANCH   1   2
HETATM    2  N   UNL     1      42.151 -12.173   5.445  1.00  0.00    -0.360 N 
HETATM    3  C   UNL     1      40.836 -12.132   5.873  1.00  0.00     0.235 C 
HETATM    4  O   UNL     1      40.322 -11.116   6.332  1.00  0.00    -0.272 OA
HETATM    5  H   UNL     1      42.558 -13.055   5.154  1.00  0.00     0.162 HD
BRANCH   3   6
HETATM    6  C   UNL     1      40.063 -13.432   5.651  1.00  0.00     0.235 C 
BRANCH   6   7
HETATM    7  N   UNL     1      40.976 -14.561   5.615  1.00  0.00    -0.299 N 
HETATM    8  C   UNL     1      41.365 -15.179   6.788  1.00  0.00     0.214 A 
HETATM    9  N   UNL     1      42.143 -16.208   6.871  1.00  0.00    -0.235 NA
HETATM   10  C   UNL     1      42.586 -16.673   5.676  1.00  0.00     0.115 A 
HETATM   11  C   UNL     1      42.328 -16.136   4.434  1.00  0.00     0.075 A 
HETATM   12  S   UNL     1      43.564 -18.059   5.574  1.00  0.00    -0.074 SA
HETATM   13  C   UNL     1      42.958 -16.870   3.365  1.00  0.00    -0.031 A 
HETATM   14  C   UNL     1      41.480 -14.956   4.378  1.00  0.00     0.262 A 
HETATM   15  C   UNL     1      42.858 -16.500   1.919  1.00  0.00     0.050 C 
HETATM   16  C   UNL     1      43.638 -17.974   3.865  1.00  0.00    -0.012 A 
HETATM   17  C   UNL     1      44.391 -19.027   3.119  1.00  0.00     0.057 C 
HETATM   18  O   UNL     1      41.227 -14.359   3.333  1.00  0.00    -0.267 OA
ENDBRANCH   6   7
ENDBRANCH   3   6
ENDBRANCH   1   2
BRANCH   1  19
HETATM   19  C   UNL     1      44.414 -11.314   5.949  1.00  0.00     0.029 C 
BRANCH  19  20
HETATM   20  C   UNL     1      44.412 -11.817   7.391  1.00  0.00     0.104 C 
BRANCH  20  21
HETATM   21  C   UNL     1      44.699 -10.730   8.407  1.00  0.00     0.217 C 
HETATM   22  N   UNL     1      44.498  -9.443   7.970  1.00  0.00    -0.361 N 
HETATM   23  H   UNL     1      44.302  -9.300   6.981  1.00  0.00     0.162 HD
HETATM   24  O   UNL     1      45.113 -10.970   9.541  1.00  0.00    -0.274 OA
BRANCH  22  25
HETATM   25  C   UNL     1      44.916  -8.289   8.736  1.00  0.00     0.124 C 
BRANCH  25  26
HETATM   26  C   UNL     1      43.765  -7.414   9.231  1.00  0.00     0.047 C 
BRANCH  26  27
HETATM   27  C   UNL     1      42.398  -8.081   9.410  1.00  0.00     0.236 C 
BRANCH  27  28
HETATM   28  N   UNL     1      42.041  -8.405  10.844  1.00  0.00    -0.070 N 
HETATM   29  H   UNL     1      41.070  -8.044  10.963  1.00  0.00     0.279 HD
HETATM   30  C   UNL     1      42.106  -9.867  11.187  1.00  0.00     0.239 C 
HETATM   31  C   UNL     1      41.622 -10.127  12.616  1.00  0.00     0.008 C 
HETATM   32  C   UNL     1      40.104  -9.969  12.744  1.00  0.00     0.011 C 
HETATM   33  C   UNL     1      42.374  -9.245  13.621  1.00  0.00     0.011 C 
HETATM   34  C   UNL     1      42.352  -7.763  13.233  1.00  0.00     0.008 C 
HETATM   35  C   UNL     1      43.189  -6.942  14.213  1.00  0.00     0.011 C 
HETATM   36  C   UNL     1      42.860  -7.566  11.803  1.00  0.00     0.239 C 
ENDBRANCH  27  28
ENDBRANCH  26  27
ENDBRANCH  25  26
ENDBRANCH  22  25
ENDBRANCH  20  21
ENDBRANCH  19  20
ENDBRANCH   1  19
TORSDOF 10
ENDMDL
MODEL 9
REMARK VINA RESULT:      -8.1      5.061      9.687
REMARK  10 active torsions:
REMARK  status: ('A' for Active; 'I' for Inactive)
REMARK    1  A    between atoms: N_7  and  C_8 
REMARK    2  A    between atoms: C_8  and  C_9 
REMARK       I    between atoms: C_9  and  N_10 
REMARK    3  A    between atoms: N_10  and  C_11 
REMARK    4  A    between atoms: C_11  and  C_12 
REMARK    5  A    between atoms: C_12  and  C_13 
REMARK    6  A    between atoms: C_13  and  C_14 
REMARK       I    between atoms: C_14  and  N_15 
REMARK    7  A    between atoms: N_15  and  C_16 
REMARK    8  A    between atoms: C_16  and  C_17 
REMARK    9  A    between atoms: C_17  and  C_18 
REMARK   10  A    between atoms: C_18  and  N_19 
ROOT
HETATM    1  C   UNL     1      42.814 -10.639   6.604  1.00  0.00     0.123 C 
ENDROOT
BRANCH   1   2
HETATM    2  N   UNL     1      42.603 -12.062   6.773  1.00  0.00    -0.360 N 
HETATM    3  C   UNL     1      43.664 -12.948   6.818  1.00  0.00     0.235 C 
HETATM    4  O   UNL     1      44.832 -12.588   6.690  1.00  0.00    -0.272 OA
HETATM    5  H   UNL     1      41.653 -12.413   6.796  1.00  0.00     0.162 HD
BRANCH   3   6
HETATM    6  C   UNL     1      43.264 -14.392   7.119  1.00  0.00     0.235 C 
BRANCH   6   7
HETATM    7  N   UNL     1      43.169 -15.155   5.887  1.00  0.00    -0.299 N 
HETATM    8  C   UNL     1      42.770 -14.539   4.716  1.00  0.00     0.214 A 
HETATM    9  N   UNL     1      42.683 -15.111   3.560  1.00  0.00    -0.235 NA
HETATM   10  C   UNL     1      43.020 -16.425   3.558  1.00  0.00     0.115 A 
HETATM   11  C   UNL     1      43.386 -17.185   4.647  1.00  0.00     0.075 A 
HETATM   12  S   UNL     1      43.035 -17.332   2.122  1.00  0.00    -0.074 SA
HETATM   13  C   UNL     1      43.675 -18.554   4.302  1.00  0.00    -0.031 A 
HETATM   14  C   UNL     1      43.438 -16.521   5.940  1.00  0.00     0.262 A 
HETATM   15  C   UNL     1      44.081 -19.602   5.290  1.00  0.00     0.050 C 
HETATM   16  C   UNL     1      43.552 -18.749   2.932  1.00  0.00    -0.012 A 
HETATM   17  C   UNL     1      43.797 -19.991   2.137  1.00  0.00     0.057 C 
HETATM   18  O   UNL     1      43.697 -17.109   6.988  1.00  0.00    -0.267 OA
ENDBRANCH   6   7
ENDBRANCH   3   6
ENDBRANCH   1   2
BRANCH   1  19
HETATM   19  C   UNL     1      42.088 -10.085   5.380  1.00  0.00     0.029 C 
BRANCH  19  20
HETATM   20  C   UNL     1      42.603 -10.739   4.100  1.00  0.00     0.104 C 
BRANCH  20  21
HETATM   21  C   UNL     1      41.552 -10.844   3.014  1.00  0.00     0.217 C 
HETATM   22  N   UNL     1      41.520  -9.804   2.117  1.00  0.00    -0.361 N 
HETATM   23  H   UNL     1      42.099  -8.989   2.311  1.00  0.00     0.162 HD
HETATM   24  O   UNL     1      40.755 -11.780   2.947  1.00  0.00    -0.274 OA
BRANCH  22  25
HETATM   25  C   UNL     1      40.455  -9.646   1.150  1.00  0.00     0.124 C 
BRANCH  25  26
HETATM   26  C   UNL     1      40.938  -9.456  -0.288  1.00  0.00     0.047 C 
BRANCH  26  27
HETATM   27  C   UNL     1      41.451 -10.694  -1.030  1.00  0.00     0.236 C 
BRANCH  27  28
HETATM   28  N   UNL     1      40.444 -11.817  -1.145  1.00  0.00    -0.070 N 
HETATM   29  H   UNL     1      39.577 -11.442  -0.705  1.00  0.00     0.279 HD
HETATM   30  C   UNL     1      40.169 -12.264  -2.554  1.00  0.00     0.239 C 
HETATM   31  C   UNL     1      39.060 -13.319  -2.597  1.00  0.00     0.008 C 
HETATM   32  C   UNL     1      37.681 -12.713  -2.318  1.00  0.00     0.011 C 
HETATM   33  C   UNL     1      39.373 -14.486  -1.653  1.00  0.00     0.011 C 
HETATM   34  C   UNL     1      39.708 -14.017  -0.233  1.00  0.00     0.008 C 
HETATM   35  C   UNL     1      40.100 -15.207   0.643  1.00  0.00     0.011 C 
HETATM   36  C   UNL     1      40.832 -12.978  -0.253  1.00  0.00     0.239 C 
ENDBRANCH  27  28
ENDBRANCH  26  27
ENDBRANCH  25  26
ENDBRANCH  22  25
ENDBRANCH  20  21
ENDBRANCH  19  20
ENDBRANCH   1  19
TORSDOF 10
ENDMDL
MODEL 10
REMARK VINA RESULT:      -7.9      3.322     10.954
REMARK  10 active torsions:
REMARK  status: ('A' for Active; 'I' for Inactive)
REMARK    1  A    between atoms: N_7  and  C_8 
REMARK    2  A    between atoms: C_8  and  C_9 
REMARK       I    between atoms: C_9  and  N_10 
REMARK    3  A    between atoms: N_10  and  C_11 
REMARK    4  A    between atoms: C_11  and  C_12 
REMARK    5  A    between atoms: C_12  and  C_13 
REMARK    6  A    between atoms: C_13  and  C_14 
REMARK       I    between atoms: C_14  and  N_15 
REMARK    7  A    between atoms: N_15  and  C_16 
REMARK    8  A    between atoms: C_16  and  C_17 
REMARK    9  A    between atoms: C_17  and  C_18 
REMARK   10  A    between atoms: C_18  and  N_19 
ROOT
HETATM    1  C   UNL     1      42.332 -12.591   6.110  1.00  0.00     0.123 C 
ENDROOT
BRANCH   1   2
HETATM    2  N   UNL     1      42.687 -11.417   6.881  1.00  0.00    -0.360 N 
HETATM    3  C   UNL     1      43.905 -11.323   7.531  1.00  0.00     0.235 C 
HETATM    4  O   UNL     1      44.733 -12.230   7.517  1.00  0.00    -0.272 OA
HETATM    5  H   UNL     1      42.000 -10.681   6.990  1.00  0.00     0.162 HD
BRANCH   3   6
HETATM    6  C   UNL     1      44.158  -9.970   8.195  1.00  0.00     0.235 C 
BRANCH   6   7
HETATM    7  N   UNL     1      43.379  -9.854   9.414  1.00  0.00    -0.299 N 
HETATM    8  C   UNL     1      43.799 -10.481  10.571  1.00  0.00     0.214 A 
HETATM    9  N   UNL     1      43.204 -10.419  11.717  1.00  0.00    -0.235 NA
HETATM   10  C   UNL     1      42.078  -9.663  11.723  1.00  0.00     0.115 A 
HETATM   11  C   UNL     1      41.508  -9.022  10.645  1.00  0.00     0.075 A 
HETATM   12  S   UNL     1      41.193  -9.404  13.150  1.00  0.00    -0.074 SA
HETATM   13  C   UNL     1      40.305  -8.307  10.990  1.00  0.00    -0.031 A 
HETATM   14  C   UNL     1      42.182  -9.144   9.362  1.00  0.00     0.262 A 
HETATM   15  C   UNL     1      39.475  -7.536  10.012  1.00  0.00     0.050 C 
HETATM   16  C   UNL     1      40.048  -8.412  12.351  1.00  0.00    -0.012 A 
HETATM   17  C   UNL     1      38.940  -7.799  13.145  1.00  0.00     0.057 C 
HETATM   18  O   UNL     1      41.738  -8.662   8.321  1.00  0.00    -0.267 OA
ENDBRANCH   6   7
ENDBRANCH   3   6
ENDBRANCH   1   2
BRANCH   1  19
HETATM   19  C   UNL     1      42.694 -12.447   4.633  1.00  0.00     0.029 C 
BRANCH  19  20
HETATM   20  C   UNL     1      41.678 -11.566   3.908  1.00  0.00     0.104 C 
BRANCH  20  21
HETATM   21  C   UNL     1      40.657 -12.355   3.114  1.00  0.00     0.217 C 
HETATM   22  N   UNL     1      41.036 -12.700   1.839  1.00  0.00    -0.361 N 
HETATM   23  H   UNL     1      41.899 -12.302   1.474  1.00  0.00     0.162 HD
HETATM   24  O   UNL     1      39.548 -12.649   3.560  1.00  0.00    -0.274 OA
BRANCH  22  25
HETATM   25  C   UNL     1      40.112 -13.270   0.882  1.00  0.00     0.124 C 
BRANCH  25  26
HETATM   26  C   UNL     1      40.283 -14.773   0.665  1.00  0.00     0.047 C 
BRANCH  26  27
HETATM   27  C   UNL     1      39.824 -15.705   1.790  1.00  0.00     0.236 C 
BRANCH  27  28
HETATM   28  N   UNL     1      40.950 -16.383   2.540  1.00  0.00    -0.070 N 
HETATM   29  H   UNL     1      40.670 -17.386   2.588  1.00  0.00     0.279 HD
HETATM   30  C   UNL     1      42.301 -16.243   1.895  1.00  0.00     0.239 C 
HETATM   31  C   UNL     1      43.363 -17.050   2.646  1.00  0.00     0.008 C 
HETATM   32  C   UNL     1      43.203 -18.556   2.425  1.00  0.00     0.011 C 
HETATM   33  C   UNL     1      43.376 -16.690   4.138  1.00  0.00     0.011 C 
HETATM   34  C   UNL     1      41.984 -16.780   4.773  1.00  0.00     0.008 C 
HETATM   35  C   UNL     1      42.034 -16.325   6.232  1.00  0.00     0.011 C 
HETATM   36  C   UNL     1      40.971 -15.943   3.989  1.00  0.00     0.239 C 
ENDBRANCH  27  28
ENDBRANCH  26  27
ENDBRANCH  25  26
ENDBRANCH  22  25
ENDBRANCH  20  21
ENDBRANCH  19  20
ENDBRANCH   1  19
TORSDOF 10
ENDMDL
