MODEL 1
REMARK VINA RESULT:      -9.3      0.000      0.000
REMARK  3 active torsions:
REMARK  status: ('A' for Active; 'I' for Inactive)
REMARK    1  A    between atoms: O_2  and  C_3 
REMARK       I    between atoms: N_13  and  C_14 
REMARK       I    between atoms: C_14  and  N_15 
REMARK    2  A    between atoms: N_15  and  C_16 
REMARK    3  A    between atoms: C_22  and  C_23 
ROOT
HETATM    1  C   UNL     1      41.282  -8.913   6.801  1.00  0.00     0.069 A 
HETATM    2  C   UNL     1      42.190  -9.980   6.817  1.00  0.00     0.051 A 
HETATM    3  C   UNL     1      41.792 -11.246   6.346  1.00  0.00     0.002 A 
HETATM    4  C   UNL     1      40.479 -11.415   5.901  1.00  0.00     0.043 A 
HETATM    5  N   UNL     1      40.351 -12.722   5.482  1.00  0.00    -0.356 N 
HETATM    6  H   UNL     1      39.511 -13.112   5.076  1.00  0.00     0.166 HD
HETATM    7  C   UNL     1      41.558 -13.367   5.586  1.00  0.00     0.045 A 
HETATM    8  C   UNL     1      42.450 -12.488   6.161  1.00  0.00    -0.019 A 
HETATM    9  C   UNL     1      43.854 -12.887   6.411  1.00  0.00     0.061 C 
HETATM   10  C   UNL     1      43.940 -14.418   6.460  1.00  0.00     0.133 C 
HETATM   11  N   UNL     1      43.283 -15.098   5.318  1.00  0.00    -0.320 N 
HETATM   12  C   UNL     1      43.764 -16.398   5.113  1.00  0.00     0.319 C 
HETATM   13  N   UNL     1      43.316 -17.005   3.971  1.00  0.00    -0.338 N 
HETATM   14  O   UNL     1      44.572 -16.934   5.868  1.00  0.00    -0.247 OA
HETATM   15  C   UNL     1      41.840 -14.765   5.085  1.00  0.00     0.172 C 
HETATM   16  C   UNL     1      39.547 -10.373   5.908  1.00  0.00     0.033 A 
HETATM   17  C   UNL     1      39.973  -9.117   6.362  1.00  0.00     0.039 A 
HETATM   18  H   UNL     1      43.131 -16.345   3.233  1.00  0.00     0.164 HD
ENDROOT
BRANCH  15  19
HETATM   19  C   UNL     1      41.393 -14.860   3.627  1.00  0.00    -0.029 A 
HETATM   20  C   UNL     1      40.324 -15.702   3.270  1.00  0.00     0.012 A 
HETATM   21  C   UNL     1      39.905 -15.786   1.941  1.00  0.00     0.043 A 
HETATM   22  C   UNL     1      40.547 -15.028   0.969  1.00  0.00     0.116 A 
HETATM   23  F   UNL     1      40.141 -15.111  -0.305  1.00  0.00    -0.206 F 
HETATM   24  C   UNL     1      41.601 -14.186   1.298  1.00  0.00     0.043 A 
HETATM   25  C   UNL     1      42.025 -14.100   2.624  1.00  0.00     0.012 A 
ENDBRANCH  15  19
BRANCH  13  26
HETATM   26  C   UNL     1      43.794 -18.283   3.481  1.00  0.00     0.086 C 
HETATM   27  C   UNL     1      43.592 -19.451   4.442  1.00  0.00     0.025 C 
HETATM   28  C   UNL     1      43.914 -20.657   3.573  1.00  0.00     0.002 C 
HETATM   29  C   UNL     1      43.409 -20.292   2.177  1.00  0.00     0.002 C 
HETATM   30  C   UNL     1      43.190 -18.777   2.169  1.00  0.00     0.025 C 
ENDBRANCH  13  26
BRANCH   1  31
HETATM   31  O   UNL     1      41.795  -7.725   7.249  1.00  0.00    -0.356 OA
HETATM   32  C   UNL     1      42.788  -7.807   8.264  1.00  0.00     0.210 C 
ENDBRANCH   1  31
TORSDOF 3
ENDMDL
MODEL 2
REMARK VINA RESULT:      -8.9      2.879      8.710
REMARK  3 active torsions:
REMARK  status: ('A' for Active; 'I' for Inactive)
REMARK    1  A    between atoms: O_2  and  C_3 
REMARK       I    between atoms: N_13  and  C_14 
REMARK       I    between atoms: C_14  and  N_15 
REMARK    2  A    between atoms: N_15  and  C_16 
REMARK    3  A    between atoms: C_22  and  C_23 
ROOT
HETATM    1  C   UNL     1      43.595 -17.959   3.354  1.00  0.00     0.069 A 
HETATM    2  C   UNL     1      42.833 -16.798   3.179  1.00  0.00     0.051 A 
HETATM    3  C   UNL     1      42.774 -15.836   4.206  1.00  0.00     0.002 A 
HETATM    4  C   UNL     1      43.458 -16.083   5.397  1.00  0.00     0.043 A 
HETATM    5  N   UNL     1      43.258 -14.996   6.221  1.00  0.00    -0.356 N 
HETATM    6  H   UNL     1      43.671 -14.891   7.138  1.00  0.00     0.166 HD
HETATM    7  C   UNL     1      42.524 -14.041   5.565  1.00  0.00     0.045 A 
HETATM    8  C   UNL     1      42.174 -14.558   4.336  1.00  0.00    -0.019 A 
HETATM    9  C   UNL     1      41.370 -13.764   3.379  1.00  0.00     0.061 C 
HETATM   10  C   UNL     1      40.611 -12.673   4.146  1.00  0.00     0.133 C 
HETATM   11  N   UNL     1      41.458 -11.881   5.070  1.00  0.00    -0.320 N 
HETATM   12  C   UNL     1      40.901 -10.633   5.380  1.00  0.00     0.319 C 
HETATM   13  N   UNL     1      41.720  -9.797   6.088  1.00  0.00    -0.338 N 
HETATM   14  O   UNL     1      39.786 -10.290   4.996  1.00  0.00    -0.247 OA
HETATM   15  C   UNL     1      42.230 -12.656   6.095  1.00  0.00     0.172 C 
HETATM   16  C   UNL     1      44.199 -17.251   5.606  1.00  0.00     0.033 A 
HETATM   17  C   UNL     1      44.259 -18.184   4.561  1.00  0.00     0.039 A 
HETATM   18  H   UNL     1      42.695  -9.949   5.882  1.00  0.00     0.164 HD
ENDROOT
BRANCH  15  19
HETATM   19  C   UNL     1      43.547 -12.009   6.523  1.00  0.00    -0.029 A 
HETATM   20  C   UNL     1      44.575 -11.813   5.581  1.00  0.00     0.012 A 
HETATM   21  C   UNL     1      45.776 -11.215   5.962  1.00  0.00     0.043 A 
HETATM   22  C   UNL     1      45.953 -10.807   7.279  1.00  0.00     0.116 A 
HETATM   23  F   UNL     1      47.108 -10.231   7.640  1.00  0.00    -0.206 F 
HETATM   24  C   UNL     1      44.952 -10.985   8.225  1.00  0.00     0.043 A 
HETATM   25  C   UNL     1      43.750 -11.584   7.849  1.00  0.00     0.012 A 
ENDBRANCH  15  19
BRANCH  13  26
HETATM   26  C   UNL     1      41.414  -8.412   6.390  1.00  0.00     0.086 C 
HETATM   27  C   UNL     1      42.300  -7.781   7.460  1.00  0.00     0.025 C 
HETATM   28  C   UNL     1      41.945  -6.305   7.358  1.00  0.00     0.002 C 
HETATM   29  C   UNL     1      41.682  -6.057   5.873  1.00  0.00     0.002 C 
HETATM   30  C   UNL     1      41.489  -7.430   5.224  1.00  0.00     0.025 C 
ENDBRANCH  13  26
BRANCH   1  31
HETATM   31  O   UNL     1      43.604 -18.800   2.273  1.00  0.00    -0.356 OA
HETATM   32  C   UNL     1      43.590 -20.194   2.556  1.00  0.00     0.210 C 
ENDBRANCH   1  31
TORSDOF 3
ENDMDL
MODEL 3
REMARK VINA RESULT:      -8.9      3.075      5.396
REMARK  3 active torsions:
REMARK  status: ('A' for Active; 'I' for Inactive)
REMARK    1  A    between atoms: O_2  and  C_3 
REMARK       I    between atoms: N_13  and  C_14 
REMARK       I    between atoms: C_14  and  N_15 
REMARK    2  A    between atoms: N_15  and  C_16 
REMARK    3  A    between atoms: C_22  and  C_23 
ROOT
HETATM    1  C   UNL     1      43.835 -10.358   8.246  1.00  0.00     0.069 A 
HETATM    2  C   UNL     1      42.896 -10.107   7.237  1.00  0.00     0.051 A 
HETATM    3  C   UNL     1      43.026 -10.738   5.985  1.00  0.00     0.002 A 
HETATM    4  C   UNL     1      44.118 -11.581   5.768  1.00  0.00     0.043 A 
HETATM    5  N   UNL     1      44.006 -12.080   4.488  1.00  0.00    -0.356 N 
HETATM    6  H   UNL     1      44.645 -12.748   4.078  1.00  0.00     0.166 HD
HETATM    7  C   UNL     1      42.845 -11.632   3.911  1.00  0.00     0.045 A 
HETATM    8  C   UNL     1      42.248 -10.764   4.800  1.00  0.00    -0.019 A 
HETATM    9  C   UNL     1      40.964 -10.104   4.470  1.00  0.00     0.061 C 
HETATM   10  C   UNL     1      40.778 -10.102   2.947  1.00  0.00     0.133 C 
HETATM   11  N   UNL     1      40.991 -11.423   2.309  1.00  0.00    -0.320 N 
HETATM   12  C   UNL     1      40.369 -11.526   1.058  1.00  0.00     0.319 C 
HETATM   13  N   UNL     1      40.391 -12.778   0.506  1.00  0.00    -0.338 N 
HETATM   14  O   UNL     1      39.797 -10.582   0.521  1.00  0.00    -0.247 OA
HETATM   15  C   UNL     1      42.312 -12.083   2.570  1.00  0.00     0.172 C 
HETATM   16  C   UNL     1      45.085 -11.820   6.750  1.00  0.00     0.033 A 
HETATM   17  C   UNL     1      44.922 -11.196   7.995  1.00  0.00     0.039 A 
HETATM   18  H   UNL     1      40.388 -13.505   1.204  1.00  0.00     0.164 HD
ENDROOT
BRANCH  15  19
HETATM   19  C   UNL     1      42.274 -13.611   2.551  1.00  0.00    -0.029 A 
HETATM   20  C   UNL     1      43.237 -14.331   1.819  1.00  0.00     0.012 A 
HETATM   21  C   UNL     1      43.214 -15.726   1.804  1.00  0.00     0.043 A 
HETATM   22  C   UNL     1      42.235 -16.404   2.521  1.00  0.00     0.116 A 
HETATM   23  F   UNL     1      42.217 -17.744   2.504  1.00  0.00    -0.206 F 
HETATM   24  C   UNL     1      41.277 -15.716   3.254  1.00  0.00     0.043 A 
HETATM   25  C   UNL     1      41.295 -14.321   3.270  1.00  0.00     0.012 A 
ENDBRANCH  15  19
BRANCH  13  26
HETATM   26  C   UNL     1      39.685 -13.152  -0.704  1.00  0.00     0.086 C 
HETATM   27  C   UNL     1      40.315 -12.638  -1.995  1.00  0.00     0.025 C 
HETATM   28  C   UNL     1      39.549 -13.399  -3.066  1.00  0.00     0.002 C 
HETATM   29  C   UNL     1      39.271 -14.775  -2.460  1.00  0.00     0.002 C 
HETATM   30  C   UNL     1      39.506 -14.648  -0.952  1.00  0.00     0.025 C 
ENDBRANCH  13  26
BRANCH   1  31
HETATM   31  O   UNL     1      43.581  -9.716   9.429  1.00  0.00    -0.356 OA
HETATM   32  C   UNL     1      43.792 -10.470  10.615  1.00  0.00     0.210 C 
ENDBRANCH   1  31
TORSDOF 3
ENDMDL
MODEL 4
REMARK VINA RESULT:      -8.4      2.816      8.449
REMARK  3 active torsions:
REMARK  status: ('A' for Active; 'I' for Inactive)
REMARK    1  A    between atoms: O_2  and  C_3 
REMARK       I    between atoms: N_13  and  C_14 
REMARK       I    between atoms: C_14  and  N_15 
REMARK    2  A    between atoms: N_15  and  C_16 
REMARK    3  A    between atoms: C_22  and  C_23 
ROOT
HETATM    1  C   UNL     1      43.978 -18.965   3.151  1.00  0.00     0.069 A 
HETATM    2  C   UNL     1      43.107 -17.953   2.727  1.00  0.00     0.051 A 
HETATM    3  C   UNL     1      42.782 -16.896   3.600  1.00  0.00     0.002 A 
HETATM    4  C   UNL     1      43.316 -16.902   4.889  1.00  0.00     0.043 A 
HETATM    5  N   UNL     1      42.865 -15.766   5.528  1.00  0.00    -0.356 N 
HETATM    6  H   UNL     1      43.129 -15.496   6.466  1.00  0.00     0.166 HD
HETATM    7  C   UNL     1      42.117 -15.009   4.663  1.00  0.00     0.045 A 
HETATM    8  C   UNL     1      42.013 -15.711   3.481  1.00  0.00    -0.019 A 
HETATM    9  C   UNL     1      41.259 -15.157   2.333  1.00  0.00     0.061 C 
HETATM   10  C   UNL     1      40.267 -14.105   2.846  1.00  0.00     0.133 C 
HETATM   11  N   UNL     1      40.868 -13.098   3.753  1.00  0.00    -0.320 N 
HETATM   12  C   UNL     1      40.119 -11.915   3.819  1.00  0.00     0.319 C 
HETATM   13  N   UNL     1      40.717 -10.893   4.505  1.00  0.00    -0.338 N 
HETATM   14  O   UNL     1      39.035 -11.783   3.257  1.00  0.00    -0.247 OA
HETATM   15  C   UNL     1      41.578 -13.629   4.961  1.00  0.00     0.172 C 
HETATM   16  C   UNL     1      44.162 -17.919   5.344  1.00  0.00     0.033 A 
HETATM   17  C   UNL     1      44.486 -18.949   4.451  1.00  0.00     0.039 A 
HETATM   18  H   UNL     1      41.723 -10.926   4.444  1.00  0.00     0.164 HD
ENDROOT
BRANCH  15  19
HETATM   19  C   UNL     1      42.729 -12.754   5.457  1.00  0.00    -0.029 A 
HETATM   20  C   UNL     1      42.859 -12.473   6.831  1.00  0.00     0.012 A 
HETATM   21  C   UNL     1      43.913 -11.682   7.292  1.00  0.00     0.043 A 
HETATM   22  C   UNL     1      44.839 -11.176   6.388  1.00  0.00     0.116 A 
HETATM   23  F   UNL     1      45.849 -10.419   6.835  1.00  0.00    -0.206 F 
HETATM   24  C   UNL     1      44.734 -11.444   5.029  1.00  0.00     0.043 A 
HETATM   25  C   UNL     1      43.682 -12.232   4.562  1.00  0.00     0.012 A 
ENDBRANCH  15  19
BRANCH  13  26
HETATM   26  C   UNL     1      40.199  -9.540   4.576  1.00  0.00     0.086 C 
HETATM   27  C   UNL     1      39.261  -9.278   5.750  1.00  0.00     0.025 C 
HETATM   28  C   UNL     1      39.114  -7.764   5.727  1.00  0.00     0.002 C 
HETATM   29  C   UNL     1      40.477  -7.235   5.279  1.00  0.00     0.002 C 
HETATM   30  C   UNL     1      41.232  -8.420   4.672  1.00  0.00     0.025 C 
ENDBRANCH  13  26
BRANCH   1  31
HETATM   31  O   UNL     1      44.246 -19.916   2.203  1.00  0.00    -0.356 OA
HETATM   32  C   UNL     1      43.125 -20.465   1.523  1.00  0.00     0.210 C 
ENDBRANCH   1  31
TORSDOF 3
ENDMDL
MODEL 5
REMARK VINA RESULT:      -8.3      6.215      9.320
REMARK  3 active torsions:
REMARK  status: ('A' for Active; 'I' for Inactive)
REMARK    1  A    between atoms: O_2  and  C_3 
REMARK       I    between atoms: N_13  and  C_14 
REMARK       I    between atoms: C_14  and  N_15 
REMARK    2  A    between atoms: N_15  and  C_16 
REMARK    3  A    between atoms: C_22  and  C_23 
ROOT
HETATM    1  C   UNL     1      38.635  -5.583  15.299  1.00  0.00     0.069 A 
HETATM    2  C   UNL     1      39.693  -6.481  15.108  1.00  0.00     0.051 A 
HETATM    3  C   UNL     1      39.836  -7.144  13.874  1.00  0.00     0.002 A 
HETATM    4  C   UNL     1      38.891  -6.911  12.873  1.00  0.00     0.043 A 
HETATM    5  N   UNL     1      39.262  -7.657  11.774  1.00  0.00    -0.356 N 
HETATM    6  H   UNL     1      38.774  -7.650  10.889  1.00  0.00     0.166 HD
HETATM    7  C   UNL     1      40.447  -8.302  12.025  1.00  0.00     0.045 A 
HETATM    8  C   UNL     1      40.795  -8.037  13.333  1.00  0.00    -0.019 A 
HETATM    9  C   UNL     1      42.036  -8.595  13.915  1.00  0.00     0.061 C 
HETATM   10  C   UNL     1      42.466  -9.821  13.099  1.00  0.00     0.133 C 
HETATM   11  N   UNL     1      42.502  -9.592  11.635  1.00  0.00    -0.320 N 
HETATM   12  C   UNL     1      43.327 -10.506  10.965  1.00  0.00     0.319 C 
HETATM   13  N   UNL     1      43.530 -10.233   9.639  1.00  0.00    -0.338 N 
HETATM   14  O   UNL     1      43.874 -11.447  11.533  1.00  0.00    -0.247 OA
HETATM   15  C   UNL     1      41.236  -9.093  11.007  1.00  0.00     0.172 C 
HETATM   16  C   UNL     1      37.809  -6.044  13.053  1.00  0.00     0.033 A 
HETATM   17  C   UNL     1      37.699  -5.380  14.283  1.00  0.00     0.039 A 
HETATM   18  H   UNL     1      43.498  -9.246   9.441  1.00  0.00     0.164 HD
ENDROOT
BRANCH  15  19
HETATM   19  C   UNL     1      41.440  -8.224   9.767  1.00  0.00    -0.029 A 
HETATM   20  C   UNL     1      42.292  -7.105   9.823  1.00  0.00     0.012 A 
HETATM   21  C   UNL     1      42.491  -6.312   8.691  1.00  0.00     0.043 A 
HETATM   22  C   UNL     1      41.846  -6.637   7.504  1.00  0.00     0.116 A 
HETATM   23  F   UNL     1      42.041  -5.874   6.420  1.00  0.00    -0.206 F 
HETATM   24  C   UNL     1      41.005  -7.739   7.423  1.00  0.00     0.043 A 
HETATM   25  C   UNL     1      40.801  -8.533   8.551  1.00  0.00     0.012 A 
ENDBRANCH  15  19
BRANCH  13  26
HETATM   26  C   UNL     1      44.459 -10.952   8.788  1.00  0.00     0.086 C 
HETATM   27  C   UNL     1      43.857 -11.479   7.489  1.00  0.00     0.025 C 
HETATM   28  C   UNL     1      45.085 -11.917   6.707  1.00  0.00     0.002 C 
HETATM   29  C   UNL     1      46.176 -10.911   7.075  1.00  0.00     0.002 C 
HETATM   30  C   UNL     1      45.698 -10.184   8.335  1.00  0.00     0.025 C 
ENDBRANCH  13  26
BRANCH   1  31
HETATM   31  O   UNL     1      38.622  -4.973  16.525  1.00  0.00    -0.356 OA
HETATM   32  C   UNL     1      39.814  -5.073  17.293  1.00  0.00     0.210 C 
ENDBRANCH   1  31
TORSDOF 3
ENDMDL
MODEL 6
REMARK VINA RESULT:      -8.1      3.740      6.014
REMARK  3 active torsions:
REMARK  status: ('A' for Active; 'I' for Inactive)
REMARK    1  A    between atoms: O_2  and  C_3 
REMARK       I    between atoms: N_13  and  C_14 
REMARK       I    between atoms: C_14  and  N_15 
REMARK    2  A    between atoms: N_15  and  C_16 
REMARK    3  A    between atoms: C_22  and  C_23 
ROOT
HETATM    1  C   UNL     1      39.485 -10.942  -2.410  1.00  0.00     0.069 A 
HETATM    2  C   UNL     1      40.077 -10.695  -1.164  1.00  0.00     0.051 A 
HETATM    3  C   UNL     1      40.082 -11.702  -0.179  1.00  0.00     0.002 A 
HETATM    4  C   UNL     1      39.461 -12.920  -0.460  1.00  0.00     0.043 A 
HETATM    5  N   UNL     1      39.618 -13.727   0.646  1.00  0.00    -0.356 N 
HETATM    6  H   UNL     1      39.297 -14.685   0.704  1.00  0.00     0.166 HD
HETATM    7  C   UNL     1      40.374 -13.084   1.592  1.00  0.00     0.045 A 
HETATM    8  C   UNL     1      40.631 -11.813   1.123  1.00  0.00    -0.019 A 
HETATM    9  C   UNL     1      41.434 -10.857   1.921  1.00  0.00     0.061 C 
HETATM   10  C   UNL     1      41.403 -11.285   3.394  1.00  0.00     0.133 C 
HETATM   11  N   UNL     1      41.719 -12.716   3.617  1.00  0.00    -0.320 N 
HETATM   12  C   UNL     1      42.157 -12.977   4.922  1.00  0.00     0.319 C 
HETATM   13  N   UNL     1      42.624 -14.246   5.130  1.00  0.00    -0.338 N 
HETATM   14  O   UNL     1      42.175 -12.118   5.800  1.00  0.00    -0.247 OA
HETATM   15  C   UNL     1      40.876 -13.708   2.874  1.00  0.00     0.172 C 
HETATM   16  C   UNL     1      38.836 -13.175  -1.685  1.00  0.00     0.033 A 
HETATM   17  C   UNL     1      38.862 -12.166  -2.657  1.00  0.00     0.039 A 
HETATM   18  H   UNL     1      43.039 -14.643   4.302  1.00  0.00     0.164 HD
ENDROOT
BRANCH  15  19
HETATM   19  C   UNL     1      41.586 -15.017   2.533  1.00  0.00    -0.029 A 
HETATM   20  C   UNL     1      41.023 -16.247   2.920  1.00  0.00     0.012 A 
HETATM   21  C   UNL     1      41.662 -17.447   2.604  1.00  0.00     0.043 A 
HETATM   22  C   UNL     1      42.858 -17.423   1.898  1.00  0.00     0.116 A 
HETATM   23  F   UNL     1      43.468 -18.577   1.595  1.00  0.00    -0.206 F 
HETATM   24  C   UNL     1      43.431 -16.222   1.500  1.00  0.00     0.043 A 
HETATM   25  C   UNL     1      42.798 -15.019   1.815  1.00  0.00     0.012 A 
ENDBRANCH  15  19
BRANCH  13  26
HETATM   26  C   UNL     1      43.261 -14.695   6.354  1.00  0.00     0.086 C 
HETATM   27  C   UNL     1      42.307 -15.273   7.394  1.00  0.00     0.025 C 
HETATM   28  C   UNL     1      43.257 -15.896   8.406  1.00  0.00     0.002 C 
HETATM   29  C   UNL     1      44.427 -16.431   7.581  1.00  0.00     0.002 C 
HETATM   30  C   UNL     1      44.339 -15.765   6.206  1.00  0.00     0.025 C 
ENDBRANCH  13  26
BRANCH   1  31
HETATM   31  O   UNL     1      39.576  -9.902  -3.296  1.00  0.00    -0.356 OA
HETATM   32  C   UNL     1      40.592  -8.941  -3.043  1.00  0.00     0.210 C 
ENDBRANCH   1  31
TORSDOF 3
ENDMDL
MODEL 7
REMARK VINA RESULT:      -8.0      3.691      8.502
REMARK  3 active torsions:
REMARK  status: ('A' for Active; 'I' for Inactive)
REMARK    1  A    between atoms: O_2  and  C_3 
REMARK       I    between atoms: N_13  and  C_14 
REMARK       I    between atoms: C_14  and  N_15 
REMARK    2  A    between atoms: N_15  and  C_16 
REMARK    3  A    between atoms: C_22  and  C_23 
ROOT
HETATM    1  C   UNL     1      42.093 -13.906   1.856  1.00  0.00     0.069 A 
HETATM    2  C   UNL     1      42.657 -13.881   3.138  1.00  0.00     0.051 A 
HETATM    3  C   UNL     1      42.757 -12.663   3.837  1.00  0.00     0.002 A 
HETATM    4  C   UNL     1      42.316 -11.494   3.215  1.00  0.00     0.043 A 
HETATM    5  N   UNL     1      42.505 -10.457   4.104  1.00  0.00    -0.356 N 
HETATM    6  H   UNL     1      42.237  -9.498   3.928  1.00  0.00     0.166 HD
HETATM    7  C   UNL     1      42.989 -10.942   5.292  1.00  0.00     0.045 A 
HETATM    8  C   UNL     1      43.197 -12.296   5.134  1.00  0.00    -0.019 A 
HETATM    9  C   UNL     1      43.721 -13.118   6.248  1.00  0.00     0.061 C 
HETATM   10  C   UNL     1      44.446 -12.207   7.247  1.00  0.00     0.133 C 
HETATM   11  N   UNL     1      43.666 -11.014   7.655  1.00  0.00    -0.320 N 
HETATM   12  C   UNL     1      44.097 -10.476   8.875  1.00  0.00     0.319 C 
HETATM   13  N   UNL     1      43.303  -9.483   9.379  1.00  0.00    -0.338 N 
HETATM   14  O   UNL     1      45.080 -10.902   9.477  1.00  0.00    -0.247 OA
HETATM   15  C   UNL     1      43.181 -10.125   6.549  1.00  0.00     0.172 C 
HETATM   16  C   UNL     1      41.780 -11.490   1.923  1.00  0.00     0.033 A 
HETATM   17  C   UNL     1      41.672 -12.718   1.256  1.00  0.00     0.039 A 
HETATM   18  H   UNL     1      42.336  -9.594   9.118  1.00  0.00     0.164 HD
ENDROOT
BRANCH  15  19
HETATM   19  C   UNL     1      41.879  -9.385   6.853  1.00  0.00    -0.029 A 
HETATM   20  C   UNL     1      41.844  -7.977   6.823  1.00  0.00     0.012 A 
HETATM   21  C   UNL     1      40.657  -7.296   7.091  1.00  0.00     0.043 A 
HETATM   22  C   UNL     1      39.503  -8.014   7.382  1.00  0.00     0.116 A 
HETATM   23  F   UNL     1      38.365  -7.355   7.637  1.00  0.00    -0.206 F 
HETATM   24  C   UNL     1      39.511  -9.402   7.413  1.00  0.00     0.043 A 
HETATM   25  C   UNL     1      40.697 -10.089   7.148  1.00  0.00     0.012 A 
ENDBRANCH  15  19
BRANCH  13  26
HETATM   26  C   UNL     1      43.470  -8.887  10.691  1.00  0.00     0.086 C 
HETATM   27  C   UNL     1      42.709  -7.580  10.899  1.00  0.00     0.025 C 
HETATM   28  C   UNL     1      42.841  -7.354  12.398  1.00  0.00     0.002 C 
HETATM   29  C   UNL     1      42.804  -8.751  13.019  1.00  0.00     0.002 C 
HETATM   30  C   UNL     1      43.062  -9.745  11.885  1.00  0.00     0.025 C 
ENDBRANCH  13  26
BRANCH   1  31
HETATM   31  O   UNL     1      42.017 -15.152   1.294  1.00  0.00    -0.356 OA
HETATM   32  C   UNL     1      43.143 -15.999   1.478  1.00  0.00     0.210 C 
ENDBRANCH   1  31
TORSDOF 3
ENDMDL
MODEL 8
REMARK VINA RESULT:      -7.9     16.804     18.778
REMARK  3 active torsions:
REMARK  status: ('A' for Active; 'I' for Inactive)
REMARK    1  A    between atoms: O_2  and  C_3 
REMARK       I    between atoms: N_13  and  C_14 
REMARK       I    between atoms: C_14  and  N_15 
REMARK    2  A    between atoms: N_15  and  C_16 
REMARK    3  A    between atoms: C_22  and  C_23 
ROOT
HETATM    1  C   UNL     1      50.357 -32.580   6.455  1.00  0.00     0.069 A 
HETATM    2  C   UNL     1      49.107 -32.305   5.885  1.00  0.00     0.051 A 
HETATM    3  C   UNL     1      49.019 -31.458   4.763  1.00  0.00     0.002 A 
HETATM    4  C   UNL     1      50.188 -30.882   4.264  1.00  0.00     0.043 A 
HETATM    5  N   UNL     1      49.837 -30.121   3.169  1.00  0.00    -0.356 N 
HETATM    6  H   UNL     1      50.496 -29.619   2.589  1.00  0.00     0.166 HD
HETATM    7  C   UNL     1      48.494 -30.249   2.921  1.00  0.00     0.045 A 
HETATM    8  C   UNL     1      47.961 -31.033   3.922  1.00  0.00    -0.019 A 
HETATM    9  C   UNL     1      46.517 -31.361   3.940  1.00  0.00     0.061 C 
HETATM   10  C   UNL     1      45.755 -30.321   3.107  1.00  0.00     0.133 C 
HETATM   11  N   UNL     1      46.332 -30.081   1.763  1.00  0.00    -0.320 N 
HETATM   12  C   UNL     1      45.405 -29.534   0.866  1.00  0.00     0.319 C 
HETATM   13  N   UNL     1      45.836 -29.454  -0.430  1.00  0.00    -0.338 N 
HETATM   14  O   UNL     1      44.270 -29.205   1.203  1.00  0.00    -0.247 OA
HETATM   15  C   UNL     1      47.776 -29.679   1.720  1.00  0.00     0.172 C 
HETATM   16  C   UNL     1      51.442 -31.117   4.837  1.00  0.00     0.033 A 
HETATM   17  C   UNL     1      51.506 -31.979   5.940  1.00  0.00     0.039 A 
HETATM   18  H   UNL     1      46.489 -30.185  -0.664  1.00  0.00     0.164 HD
ENDROOT
BRANCH  15  19
HETATM   19  C   UNL     1      48.519 -30.112   0.457  1.00  0.00    -0.029 A 
HETATM   20  C   UNL     1      48.804 -31.474   0.239  1.00  0.00     0.012 A 
HETATM   21  C   UNL     1      49.475 -31.877  -0.917  1.00  0.00     0.043 A 
HETATM   22  C   UNL     1      49.856 -30.928  -1.857  1.00  0.00     0.116 A 
HETATM   23  F   UNL     1      50.498 -31.320  -2.966  1.00  0.00    -0.206 F 
HETATM   24  C   UNL     1      49.581 -29.580  -1.667  1.00  0.00     0.043 A 
HETATM   25  C   UNL     1      48.913 -29.171  -0.512  1.00  0.00     0.012 A 
ENDBRANCH  15  19
BRANCH  13  26
HETATM   26  C   UNL     1      45.000 -29.062  -1.549  1.00  0.00     0.086 C 
HETATM   27  C   UNL     1      45.717 -28.261  -2.631  1.00  0.00     0.025 C 
HETATM   28  C   UNL     1      44.699 -28.244  -3.762  1.00  0.00     0.002 C 
HETATM   29  C   UNL     1      43.998 -29.601  -3.691  1.00  0.00     0.002 C 
HETATM   30  C   UNL     1      44.319 -30.192  -2.316  1.00  0.00     0.025 C 
ENDBRANCH  13  26
BRANCH   1  31
HETATM   31  O   UNL     1      50.318 -33.445   7.517  1.00  0.00    -0.356 OA
HETATM   32  C   UNL     1      51.365 -33.322   8.471  1.00  0.00     0.210 C 
ENDBRANCH   1  31
TORSDOF 3
ENDMDL
MODEL 9
REMARK VINA RESULT:      -7.8     16.326     18.822
REMARK  3 active torsions:
REMARK  status: ('A' for Active; 'I' for Inactive)
REMARK    1  A    between atoms: O_2  and  C_3 
REMARK       I    between atoms: N_13  and  C_14 
REMARK       I    between atoms: C_14  and  N_15 
REMARK    2  A    between atoms: N_15  and  C_16 
REMARK    3  A    between atoms: C_22  and  C_23 
ROOT
HETATM    1  C   UNL     1      51.430 -32.024   6.389  1.00  0.00     0.069 A 
HETATM    2  C   UNL     1      51.541 -31.454   5.114  1.00  0.00     0.051 A 
HETATM    3  C   UNL     1      50.503 -31.626   4.177  1.00  0.00     0.002 A 
HETATM    4  C   UNL     1      49.395 -32.395   4.536  1.00  0.00     0.043 A 
HETATM    5  N   UNL     1      48.528 -32.393   3.464  1.00  0.00    -0.356 N 
HETATM    6  H   UNL     1      47.622 -32.844   3.462  1.00  0.00     0.166 HD
HETATM    7  C   UNL     1      49.021 -31.595   2.464  1.00  0.00     0.045 A 
HETATM    8  C   UNL     1      50.263 -31.148   2.864  1.00  0.00    -0.019 A 
HETATM    9  C   UNL     1      51.064 -30.256   1.996  1.00  0.00     0.061 C 
HETATM   10  C   UNL     1      50.584 -30.403   0.546  1.00  0.00     0.133 C 
HETATM   11  N   UNL     1      49.115 -30.293   0.381  1.00  0.00    -0.320 N 
HETATM   12  C   UNL     1      48.742 -29.948  -0.925  1.00  0.00     0.319 C 
HETATM   13  N   UNL     1      47.413 -29.667  -1.089  1.00  0.00    -0.338 N 
HETATM   14  O   UNL     1      49.552 -29.847  -1.843  1.00  0.00    -0.247 OA
HETATM   15  C   UNL     1      48.280 -31.234   1.197  1.00  0.00     0.172 C 
HETATM   16  C   UNL     1      49.279 -33.000   5.792  1.00  0.00     0.033 A 
HETATM   17  C   UNL     1      50.315 -32.797   6.714  1.00  0.00     0.039 A 
HETATM   18  H   UNL     1      46.997 -29.277  -0.258  1.00  0.00     0.164 HD
ENDROOT
BRANCH  15  19
HETATM   19  C   UNL     1      46.901 -30.696   1.575  1.00  0.00    -0.029 A 
HETATM   20  C   UNL     1      46.786 -29.475   2.268  1.00  0.00     0.012 A 
HETATM   21  C   UNL     1      45.529 -28.973   2.609  1.00  0.00     0.043 A 
HETATM   22  C   UNL     1      44.387 -29.682   2.256  1.00  0.00     0.116 A 
HETATM   23  F   UNL     1      43.183 -29.196   2.584  1.00  0.00    -0.206 F 
HETATM   24  C   UNL     1      44.475 -30.886   1.568  1.00  0.00     0.043 A 
HETATM   25  C   UNL     1      45.729 -31.393   1.227  1.00  0.00     0.012 A 
ENDBRANCH  15  19
BRANCH  13  26
HETATM   26  C   UNL     1      46.830 -29.146  -2.311  1.00  0.00     0.086 C 
HETATM   27  C   UNL     1      45.988 -30.149  -3.094  1.00  0.00     0.025 C 
HETATM   28  C   UNL     1      45.302 -29.271  -4.129  1.00  0.00     0.002 C 
HETATM   29  C   UNL     1      45.038 -27.943  -3.418  1.00  0.00     0.002 C 
HETATM   30  C   UNL     1      45.916 -27.932  -2.164  1.00  0.00     0.025 C 
ENDBRANCH  13  26
BRANCH   1  31
HETATM   31  O   UNL     1      52.484 -31.757   7.222  1.00  0.00    -0.356 OA
HETATM   32  C   UNL     1      52.579 -32.553   8.396  1.00  0.00     0.210 C 
ENDBRANCH   1  31
TORSDOF 3
ENDMDL
MODEL 10
REMARK VINA RESULT:      -7.6      3.618      5.507
REMARK  3 active torsions:
REMARK  status: ('A' for Active; 'I' for Inactive)
REMARK    1  A    between atoms: O_2  and  C_3 
REMARK       I    between atoms: N_13  and  C_14 
REMARK       I    between atoms: C_14  and  N_15 
REMARK    2  A    between atoms: N_15  and  C_16 
REMARK    3  A    between atoms: C_22  and  C_23 
ROOT
HETATM    1  C   UNL     1      43.995 -10.871   7.800  1.00  0.00     0.069 A 
HETATM    2  C   UNL     1      43.701 -11.885   6.880  1.00  0.00     0.051 A 
HETATM    3  C   UNL     1      42.609 -11.741   6.002  1.00  0.00     0.002 A 
HETATM    4  C   UNL     1      41.820 -10.593   6.096  1.00  0.00     0.043 A 
HETATM    5  N   UNL     1      40.842 -10.686   5.129  1.00  0.00    -0.356 N 
HETATM    6  H   UNL     1      40.151  -9.970   4.946  1.00  0.00     0.166 HD
HETATM    7  C   UNL     1      41.026 -11.823   4.384  1.00  0.00     0.045 A 
HETATM    8  C   UNL     1      42.084 -12.513   4.937  1.00  0.00    -0.019 A 
HETATM    9  C   UNL     1      42.537 -13.798   4.355  1.00  0.00     0.061 C 
HETATM   10  C   UNL     1      41.395 -14.407   3.533  1.00  0.00     0.133 C 
HETATM   11  N   UNL     1      40.770 -13.465   2.574  1.00  0.00    -0.320 N 
HETATM   12  C   UNL     1      40.101 -14.120   1.531  1.00  0.00     0.319 C 
HETATM   13  N   UNL     1      39.655 -13.301   0.529  1.00  0.00    -0.338 N 
HETATM   14  O   UNL     1      39.973 -15.341   1.486  1.00  0.00    -0.247 OA
HETATM   15  C   UNL     1      40.238 -12.186   3.147  1.00  0.00     0.172 C 
HETATM   16  C   UNL     1      42.076  -9.583   7.029  1.00  0.00     0.033 A 
HETATM   17  C   UNL     1      43.181  -9.741   7.878  1.00  0.00     0.039 A 
HETATM   18  H   UNL     1      40.239 -12.490   0.408  1.00  0.00     0.164 HD
ENDROOT
BRANCH  15  19
HETATM   19  C   UNL     1      40.267 -10.999   2.185  1.00  0.00    -0.029 A 
HETATM   20  C   UNL     1      39.103 -10.237   1.969  1.00  0.00     0.012 A 
HETATM   21  C   UNL     1      39.125  -9.146   1.099  1.00  0.00     0.043 A 
HETATM   22  C   UNL     1      40.306  -8.810   0.448  1.00  0.00     0.116 A 
HETATM   23  F   UNL     1      40.322  -7.761  -0.385  1.00  0.00    -0.206 F 
HETATM   24  C   UNL     1      41.468  -9.543   0.649  1.00  0.00     0.043 A 
HETATM   25  C   UNL     1      41.451 -10.636   1.516  1.00  0.00     0.012 A 
ENDBRANCH  15  19
BRANCH  13  26
HETATM   26  C   UNL     1      39.071 -13.769  -0.713  1.00  0.00     0.086 C 
HETATM   27  C   UNL     1      38.141 -12.772  -1.397  1.00  0.00     0.025 C 
HETATM   28  C   UNL     1      37.919 -13.405  -2.762  1.00  0.00     0.002 C 
HETATM   29  C   UNL     1      39.246 -14.078  -3.113  1.00  0.00     0.002 C 
HETATM   30  C   UNL     1      40.049 -14.175  -1.813  1.00  0.00     0.025 C 
ENDBRANCH  13  26
BRANCH   1  31
HETATM   31  O   UNL     1      45.101 -11.110   8.573  1.00  0.00    -0.356 OA
HETATM   32  C   UNL     1      45.296 -10.242   9.682  1.00  0.00     0.210 C 
ENDBRANCH   1  31
TORSDOF 3
ENDMDL
