MODEL 1
REMARK VINA RESULT:      -8.7      0.000      0.000
REMARK  2 active torsions:
REMARK  status: ('A' for Active; 'I' for Inactive)
REMARK    1  A    between atoms: O_2  and  C_3 
REMARK    2  A    between atoms: C_7  and  N_8 
REMARK       I    between atoms: N_8  and  C_9 
REMARK       I    between atoms: C_9  and  N_10 
ROOT
HETATM    1  N   UNL     1      43.004 -12.533   6.487  1.00  0.00    -0.307 N 
HETATM    2  C   UNL     1      43.217 -13.781   7.019  1.00  0.00     0.323 C 
HETATM    3  N   UNL     1      42.869 -14.847   6.198  1.00  0.00    -0.328 N 
HETATM    4  C   UNL     1      42.857 -16.173   6.836  1.00  0.00     0.185 C 
HETATM    5  C   UNL     1      43.121 -17.221   5.817  1.00  0.00     0.035 A 
HETATM    6  C   UNL     1      43.187 -17.058   4.451  1.00  0.00    -0.020 A 
HETATM    7  C   UNL     1      43.013 -15.720   3.832  1.00  0.00     0.061 C 
HETATM    8  C   UNL     1      42.322 -14.759   4.823  1.00  0.00     0.132 C 
HETATM    9  N   UNL     1      43.354 -18.538   6.101  1.00  0.00    -0.357 N 
HETATM   10  H   UNL     1      43.381 -18.948   7.025  1.00  0.00     0.166 HD
HETATM   11  C   UNL     1      43.576 -19.236   4.932  1.00  0.00     0.043 A 
HETATM   12  C   UNL     1      43.475 -18.325   3.877  1.00  0.00    -0.001 A 
HETATM   13  C   UNL     1      43.866 -20.591   4.735  1.00  0.00     0.030 A 
HETATM   14  C   UNL     1      44.058 -21.028   3.421  1.00  0.00     0.002 A 
HETATM   15  C   UNL     1      43.961 -20.145   2.349  1.00  0.00     0.001 A 
HETATM   16  C   UNL     1      43.671 -18.791   2.562  1.00  0.00     0.014 A 
HETATM   17  O   UNL     1      43.671 -13.967   8.148  1.00  0.00    -0.247 OA
HETATM   18  H   UNL     1      42.250 -12.449   5.823  1.00  0.00     0.170 HD
ENDROOT
BRANCH   1  19
HETATM   19  C   UNL     1      43.438 -11.295   7.027  1.00  0.00     0.058 A 
HETATM   20  C   UNL     1      42.508 -10.252   7.172  1.00  0.00     0.063 A 
HETATM   21  C   UNL     1      42.889  -9.019   7.707  1.00  0.00     0.063 A 
HETATM   22 CL   UNL     1      40.852 -10.467   6.709  1.00  0.00    -0.082 Cl
HETATM   23  C   UNL     1      44.209  -8.802   8.102  1.00  0.00     0.070 A 
HETATM   24  C   UNL     1      45.148  -9.817   7.928  1.00  0.00     0.039 A 
HETATM   25  C   UNL     1      44.765 -11.053   7.392  1.00  0.00     0.034 A 
BRANCH  23  26
HETATM   26  O   UNL     1      44.458  -7.563   8.626  1.00  0.00    -0.356 OA
HETATM   27  C   UNL     1      43.374  -6.923   9.290  1.00  0.00     0.210 C 
ENDBRANCH  23  26
ENDBRANCH   1  19
TORSDOF 2
ENDMDL
MODEL 2
REMARK VINA RESULT:      -8.5      2.517      3.299
REMARK  2 active torsions:
REMARK  status: ('A' for Active; 'I' for Inactive)
REMARK    1  A    between atoms: O_2  and  C_3 
REMARK    2  A    between atoms: C_7  and  N_8 
REMARK       I    between atoms: N_8  and  C_9 
REMARK       I    between atoms: C_9  and  N_10 
ROOT
HETATM    1  N   UNL     1      41.903 -12.568   5.923  1.00  0.00    -0.307 N 
HETATM    2  C   UNL     1      41.941 -13.276   4.747  1.00  0.00     0.323 C 
HETATM    3  N   UNL     1      42.750 -14.407   4.758  1.00  0.00    -0.328 N 
HETATM    4  C   UNL     1      42.996 -15.034   3.449  1.00  0.00     0.185 C 
HETATM    5  C   UNL     1      43.271 -16.482   3.631  1.00  0.00     0.035 A 
HETATM    6  C   UNL     1      43.464 -17.152   4.820  1.00  0.00    -0.020 A 
HETATM    7  C   UNL     1      43.383 -16.439   6.120  1.00  0.00     0.061 C 
HETATM    8  C   UNL     1      43.537 -14.918   5.905  1.00  0.00     0.132 C 
HETATM    9  N   UNL     1      43.364 -17.389   2.612  1.00  0.00    -0.357 N 
HETATM   10  H   UNL     1      43.252 -17.186   1.628  1.00  0.00     0.166 HD
HETATM   11  C   UNL     1      43.612 -18.645   3.125  1.00  0.00     0.043 A 
HETATM   12  C   UNL     1      43.681 -18.522   4.516  1.00  0.00    -0.001 A 
HETATM   13  C   UNL     1      43.769 -19.870   2.468  1.00  0.00     0.030 A 
HETATM   14  C   UNL     1      44.003 -21.003   3.253  1.00  0.00     0.002 A 
HETATM   15  C   UNL     1      44.079 -20.911   4.641  1.00  0.00     0.001 A 
HETATM   16  C   UNL     1      43.919 -19.677   5.285  1.00  0.00     0.014 A 
HETATM   17  O   UNL     1      41.322 -12.945   3.737  1.00  0.00    -0.247 OA
HETATM   18  H   UNL     1      42.730 -12.608   6.499  1.00  0.00     0.170 HD
ENDROOT
BRANCH   1  19
HETATM   19  C   UNL     1      41.029 -11.497   6.241  1.00  0.00     0.058 A 
HETATM   20  C   UNL     1      41.572 -10.293   6.716  1.00  0.00     0.063 A 
HETATM   21  C   UNL     1      40.749  -9.210   7.033  1.00  0.00     0.063 A 
HETATM   22 CL   UNL     1      43.284 -10.104   6.907  1.00  0.00    -0.082 Cl
HETATM   23  C   UNL     1      39.365  -9.311   6.887  1.00  0.00     0.070 A 
HETATM   24  C   UNL     1      38.813 -10.514   6.451  1.00  0.00     0.039 A 
HETATM   25  C   UNL     1      39.640 -11.599   6.133  1.00  0.00     0.034 A 
BRANCH  23  26
HETATM   26  O   UNL     1      38.667  -8.181   7.212  1.00  0.00    -0.356 OA
HETATM   27  C   UNL     1      39.021  -7.541   8.432  1.00  0.00     0.210 C 
ENDBRANCH  23  26
ENDBRANCH   1  19
TORSDOF 2
ENDMDL
MODEL 3
REMARK VINA RESULT:      -8.1      3.211      4.714
REMARK  2 active torsions:
REMARK  status: ('A' for Active; 'I' for Inactive)
REMARK    1  A    between atoms: O_2  and  C_3 
REMARK    2  A    between atoms: C_7  and  N_8 
REMARK       I    between atoms: N_8  and  C_9 
REMARK       I    between atoms: C_9  and  N_10 
ROOT
HETATM    1  N   UNL     1      43.362 -10.551   8.838  1.00  0.00    -0.307 N 
HETATM    2  C   UNL     1      43.090 -10.364   7.505  1.00  0.00     0.323 C 
HETATM    3  N   UNL     1      43.439 -11.420   6.670  1.00  0.00    -0.328 N 
HETATM    4  C   UNL     1      43.384 -11.143   5.226  1.00  0.00     0.185 C 
HETATM    5  C   UNL     1      43.129 -12.404   4.484  1.00  0.00     0.035 A 
HETATM    6  C   UNL     1      43.124 -13.685   4.992  1.00  0.00    -0.020 A 
HETATM    7  C   UNL     1      43.364 -13.934   6.436  1.00  0.00     0.061 C 
HETATM    8  C   UNL     1      44.043 -12.709   7.084  1.00  0.00     0.132 C 
HETATM    9  N   UNL     1      42.845 -12.476   3.148  1.00  0.00    -0.357 N 
HETATM   10  H   UNL     1      42.768 -11.689   2.518  1.00  0.00     0.166 HD
HETATM   11  C   UNL     1      42.650 -13.791   2.781  1.00  0.00     0.043 A 
HETATM   12  C   UNL     1      42.822 -14.573   3.926  1.00  0.00    -0.001 A 
HETATM   13  C   UNL     1      42.327 -14.338   1.535  1.00  0.00     0.030 A 
HETATM   14  C   UNL     1      42.176 -15.726   1.455  1.00  0.00     0.002 A 
HETATM   15  C   UNL     1      42.342 -16.531   2.578  1.00  0.00     0.001 A 
HETATM   16  C   UNL     1      42.665 -15.969   3.820  1.00  0.00     0.014 A 
HETATM   17  O   UNL     1      42.585  -9.336   7.055  1.00  0.00    -0.247 OA
HETATM   18  H   UNL     1      44.145 -11.148   9.057  1.00  0.00     0.170 HD
ENDROOT
BRANCH   1  19
HETATM   19  C   UNL     1      42.945  -9.726   9.913  1.00  0.00     0.058 A 
HETATM   20  C   UNL     1      43.910  -9.229  10.804  1.00  0.00     0.063 A 
HETATM   21  C   UNL     1      43.545  -8.406  11.872  1.00  0.00     0.063 A 
HETATM   22 CL   UNL     1      45.589  -9.606  10.597  1.00  0.00    -0.082 Cl
HETATM   23  C   UNL     1      42.207  -8.068  12.075  1.00  0.00     0.070 A 
HETATM   24  C   UNL     1      41.237  -8.585  11.218  1.00  0.00     0.039 A 
HETATM   25  C   UNL     1      41.604  -9.410  10.147  1.00  0.00     0.034 A 
BRANCH  23  26
HETATM   26  O   UNL     1      41.976  -7.243  13.140  1.00  0.00    -0.356 OA
HETATM   27  C   UNL     1      43.024  -7.125  14.095  1.00  0.00     0.210 C 
ENDBRANCH  23  26
ENDBRANCH   1  19
TORSDOF 2
ENDMDL
MODEL 4
REMARK VINA RESULT:      -8.0      5.510      9.337
REMARK  2 active torsions:
REMARK  status: ('A' for Active; 'I' for Inactive)
REMARK    1  A    between atoms: O_2  and  C_3 
REMARK    2  A    between atoms: C_7  and  N_8 
REMARK       I    between atoms: N_8  and  C_9 
REMARK       I    between atoms: C_9  and  N_10 
ROOT
HETATM    1  N   UNL     1      42.426 -15.494   2.771  1.00  0.00    -0.307 N 
HETATM    2  C   UNL     1      41.171 -15.025   3.072  1.00  0.00     0.323 C 
HETATM    3  N   UNL     1      40.813 -13.835   2.448  1.00  0.00    -0.328 N 
HETATM    4  C   UNL     1      39.584 -13.194   2.941  1.00  0.00     0.185 C 
HETATM    5  C   UNL     1      38.974 -12.380   1.859  1.00  0.00     0.035 A 
HETATM    6  C   UNL     1      39.521 -12.083   0.630  1.00  0.00    -0.020 A 
HETATM    7  C   UNL     1      40.854 -12.607   0.240  1.00  0.00     0.061 C 
HETATM    8  C   UNL     1      41.638 -13.058   1.491  1.00  0.00     0.132 C 
HETATM    9  N   UNL     1      37.738 -11.800   1.927  1.00  0.00    -0.357 N 
HETATM   10  H   UNL     1      37.098 -11.862   2.707  1.00  0.00     0.166 HD
HETATM   11  C   UNL     1      37.471 -11.130   0.751  1.00  0.00     0.043 A 
HETATM   12  C   UNL     1      38.581 -11.291  -0.083  1.00  0.00    -0.001 A 
HETATM   13  C   UNL     1      36.336 -10.408   0.365  1.00  0.00     0.030 A 
HETATM   14  C   UNL     1      36.335  -9.834  -0.910  1.00  0.00     0.002 A 
HETATM   15  C   UNL     1      37.427  -9.977  -1.762  1.00  0.00     0.001 A 
HETATM   16  C   UNL     1      38.556 -10.703  -1.362  1.00  0.00     0.014 A 
HETATM   17  O   UNL     1      40.404 -15.594   3.847  1.00  0.00    -0.247 OA
HETATM   18  H   UNL     1      43.122 -14.801   2.540  1.00  0.00     0.170 HD
ENDROOT
BRANCH   1  19
HETATM   19  C   UNL     1      42.964 -16.760   3.117  1.00  0.00     0.058 A 
HETATM   20  C   UNL     1      43.556 -16.927   4.379  1.00  0.00     0.063 A 
HETATM   21  C   UNL     1      44.091 -18.159   4.764  1.00  0.00     0.063 A 
HETATM   22 CL   UNL     1      43.626 -15.615   5.509  1.00  0.00    -0.082 Cl
HETATM   23  C   UNL     1      44.050 -19.247   3.893  1.00  0.00     0.070 A 
HETATM   24  C   UNL     1      43.498 -19.082   2.624  1.00  0.00     0.039 A 
HETATM   25  C   UNL     1      42.961 -17.847   2.239  1.00  0.00     0.034 A 
BRANCH  23  26
HETATM   26  O   UNL     1      44.588 -20.402   4.388  1.00  0.00    -0.356 OA
HETATM   27  C   UNL     1      43.979 -20.941   5.555  1.00  0.00     0.210 C 
ENDBRANCH  23  26
ENDBRANCH   1  19
TORSDOF 2
ENDMDL
MODEL 5
REMARK VINA RESULT:      -8.0      4.977      9.199
REMARK  2 active torsions:
REMARK  status: ('A' for Active; 'I' for Inactive)
REMARK    1  A    between atoms: O_2  and  C_3 
REMARK    2  A    between atoms: C_7  and  N_8 
REMARK       I    between atoms: N_8  and  C_9 
REMARK       I    between atoms: C_9  and  N_10 
ROOT
HETATM    1  N   UNL     1      41.318 -13.268   1.889  1.00  0.00    -0.307 N 
HETATM    2  C   UNL     1      40.854 -12.500   2.929  1.00  0.00     0.323 C 
HETATM    3  N   UNL     1      41.671 -12.460   4.053  1.00  0.00    -0.328 N 
HETATM    4  C   UNL     1      41.081 -11.852   5.256  1.00  0.00     0.185 C 
HETATM    5  C   UNL     1      42.156 -11.287   6.110  1.00  0.00     0.035 A 
HETATM    6  C   UNL     1      43.516 -11.441   5.951  1.00  0.00    -0.020 A 
HETATM    7  C   UNL     1      44.068 -12.220   4.814  1.00  0.00     0.061 C 
HETATM    8  C   UNL     1      42.980 -13.138   4.216  1.00  0.00     0.132 C 
HETATM    9  N   UNL     1      41.943 -10.499   7.208  1.00  0.00    -0.357 N 
HETATM   10  H   UNL     1      41.041 -10.206   7.558  1.00  0.00     0.166 HD
HETATM   11  C   UNL     1      43.152 -10.134   7.763  1.00  0.00     0.043 A 
HETATM   12  C   UNL     1      44.160 -10.717   6.989  1.00  0.00    -0.001 A 
HETATM   13  C   UNL     1      43.424  -9.331   8.876  1.00  0.00     0.030 A 
HETATM   14  C   UNL     1      44.765  -9.117   9.209  1.00  0.00     0.002 A 
HETATM   15  C   UNL     1      45.790  -9.685   8.458  1.00  0.00     0.001 A 
HETATM   16  C   UNL     1      45.502 -10.487   7.346  1.00  0.00     0.014 A 
HETATM   17  O   UNL     1      39.785 -11.892   2.896  1.00  0.00    -0.247 OA
HETATM   18  H   UNL     1      41.899 -14.055   2.135  1.00  0.00     0.170 HD
ENDROOT
BRANCH   1  19
HETATM   19  C   UNL     1      40.784 -13.332   0.577  1.00  0.00     0.058 A 
HETATM   20  C   UNL     1      40.066 -14.476   0.190  1.00  0.00     0.063 A 
HETATM   21  C   UNL     1      39.515 -14.578  -1.090  1.00  0.00     0.063 A 
HETATM   22 CL   UNL     1      39.824 -15.790   1.293  1.00  0.00    -0.082 Cl
HETATM   23  C   UNL     1      39.675 -13.542  -2.010  1.00  0.00     0.070 A 
HETATM   24  C   UNL     1      40.417 -12.419  -1.648  1.00  0.00     0.039 A 
HETATM   25  C   UNL     1      40.969 -12.317  -0.365  1.00  0.00     0.034 A 
BRANCH  23  26
HETATM   26  O   UNL     1      39.077 -13.749  -3.222  1.00  0.00    -0.356 OA
HETATM   27  C   UNL     1      38.324 -14.948  -3.365  1.00  0.00     0.210 C 
ENDBRANCH  23  26
ENDBRANCH   1  19
TORSDOF 2
ENDMDL
MODEL 6
REMARK VINA RESULT:      -7.7      5.784      6.437
REMARK  2 active torsions:
REMARK  status: ('A' for Active; 'I' for Inactive)
REMARK    1  A    between atoms: O_2  and  C_3 
REMARK    2  A    between atoms: C_7  and  N_8 
REMARK       I    between atoms: N_8  and  C_9 
REMARK       I    between atoms: C_9  and  N_10 
ROOT
HETATM    1  N   UNL     1      40.778 -11.624   0.498  1.00  0.00    -0.307 N 
HETATM    2  C   UNL     1      41.517 -11.923   1.616  1.00  0.00     0.323 C 
HETATM    3  N   UNL     1      41.464 -13.249   2.030  1.00  0.00    -0.328 N 
HETATM    4  C   UNL     1      42.042 -13.534   3.353  1.00  0.00     0.185 C 
HETATM    5  C   UNL     1      42.514 -14.941   3.401  1.00  0.00     0.035 A 
HETATM    6  C   UNL     1      42.303 -15.924   2.459  1.00  0.00    -0.020 A 
HETATM    7  C   UNL     1      41.553 -15.637   1.211  1.00  0.00     0.061 C 
HETATM    8  C   UNL     1      40.718 -14.349   1.373  1.00  0.00     0.132 C 
HETATM    9  N   UNL     1      43.259 -15.477   4.416  1.00  0.00    -0.357 N 
HETATM   10  H   UNL     1      43.578 -14.983   5.238  1.00  0.00     0.166 HD
HETATM   11  C   UNL     1      43.539 -16.799   4.143  1.00  0.00     0.043 A 
HETATM   12  C   UNL     1      42.946 -17.107   2.915  1.00  0.00    -0.001 A 
HETATM   13  C   UNL     1      44.275 -17.733   4.880  1.00  0.00     0.030 A 
HETATM   14  C   UNL     1      44.408 -19.019   4.348  1.00  0.00     0.002 A 
HETATM   15  C   UNL     1      43.827 -19.356   3.128  1.00  0.00     0.001 A 
HETATM   16  C   UNL     1      43.094 -18.409   2.401  1.00  0.00     0.014 A 
HETATM   17  O   UNL     1      42.176 -11.088   2.234  1.00  0.00    -0.247 OA
HETATM   18  H   UNL     1      39.953 -12.184   0.341  1.00  0.00     0.170 HD
ENDROOT
BRANCH   1  19
HETATM   19  C   UNL     1      40.801 -10.411  -0.236  1.00  0.00     0.058 A 
HETATM   20  C   UNL     1      39.850  -9.420   0.058  1.00  0.00     0.063 A 
HETATM   21  C   UNL     1      39.842  -8.206  -0.634  1.00  0.00     0.063 A 
HETATM   22 CL   UNL     1      38.668  -9.662   1.301  1.00  0.00    -0.082 Cl
HETATM   23  C   UNL     1      40.780  -7.961  -1.637  1.00  0.00     0.070 A 
HETATM   24  C   UNL     1      41.705  -8.953  -1.961  1.00  0.00     0.039 A 
HETATM   25  C   UNL     1      41.712 -10.169  -1.267  1.00  0.00     0.034 A 
BRANCH  23  26
HETATM   26  O   UNL     1      40.683  -6.733  -2.230  1.00  0.00    -0.356 OA
HETATM   27  C   UNL     1      41.474  -5.690  -1.671  1.00  0.00     0.210 C 
ENDBRANCH  23  26
ENDBRANCH   1  19
TORSDOF 2
ENDMDL
MODEL 7
REMARK VINA RESULT:      -7.5      2.578      2.931
REMARK  2 active torsions:
REMARK  status: ('A' for Active; 'I' for Inactive)
REMARK    1  A    between atoms: O_2  and  C_3 
REMARK    2  A    between atoms: C_7  and  N_8 
REMARK       I    between atoms: N_8  and  C_9 
REMARK       I    between atoms: C_9  and  N_10 
ROOT
HETATM    1  N   UNL     1      40.770 -11.433   5.298  1.00  0.00    -0.307 N 
HETATM    2  C   UNL     1      41.780 -12.254   5.736  1.00  0.00     0.323 C 
HETATM    3  N   UNL     1      41.662 -13.592   5.375  1.00  0.00    -0.328 N 
HETATM    4  C   UNL     1      42.591 -14.521   6.036  1.00  0.00     0.185 C 
HETATM    5  C   UNL     1      42.828 -15.699   5.162  1.00  0.00     0.035 A 
HETATM    6  C   UNL     1      42.168 -16.017   3.995  1.00  0.00    -0.020 A 
HETATM    7  C   UNL     1      41.103 -15.135   3.455  1.00  0.00     0.061 C 
HETATM    8  C   UNL     1      40.579 -14.192   4.558  1.00  0.00     0.132 C 
HETATM    9  N   UNL     1      43.772 -16.660   5.393  1.00  0.00    -0.357 N 
HETATM   10  H   UNL     1      44.417 -16.680   6.172  1.00  0.00     0.166 HD
HETATM   11  C   UNL     1      43.738 -17.602   4.386  1.00  0.00     0.043 A 
HETATM   12  C   UNL     1      42.733 -17.220   3.492  1.00  0.00    -0.001 A 
HETATM   13  C   UNL     1      44.520 -18.746   4.197  1.00  0.00     0.030 A 
HETATM   14  C   UNL     1      44.270 -19.523   3.062  1.00  0.00     0.002 A 
HETATM   15  C   UNL     1      43.275 -19.169   2.155  1.00  0.00     0.001 A 
HETATM   16  C   UNL     1      42.500 -18.020   2.357  1.00  0.00     0.014 A 
HETATM   17  O   UNL     1      42.727 -11.859   6.414  1.00  0.00    -0.247 OA
HETATM   18  H   UNL     1      39.863 -11.859   5.180  1.00  0.00     0.170 HD
ENDROOT
BRANCH   1  19
HETATM   19  C   UNL     1      40.739 -10.017   5.363  1.00  0.00     0.058 A 
HETATM   20  C   UNL     1      40.040  -9.400   6.413  1.00  0.00     0.063 A 
HETATM   21  C   UNL     1      39.990  -8.008   6.522  1.00  0.00     0.063 A 
HETATM   22 CL   UNL     1      39.232 -10.344   7.621  1.00  0.00    -0.082 Cl
HETATM   23  C   UNL     1      40.633  -7.205   5.579  1.00  0.00     0.070 A 
HETATM   24  C   UNL     1      41.299  -7.807   4.513  1.00  0.00     0.039 A 
HETATM   25  C   UNL     1      41.348  -9.203   4.405  1.00  0.00     0.034 A 
BRANCH  23  26
HETATM   26  O   UNL     1      40.529  -5.860   5.800  1.00  0.00    -0.356 OA
HETATM   27  C   UNL     1      41.746  -5.124   5.845  1.00  0.00     0.210 C 
ENDBRANCH  23  26
ENDBRANCH   1  19
TORSDOF 2
ENDMDL
MODEL 8
REMARK VINA RESULT:      -7.5      2.813      9.461
REMARK  2 active torsions:
REMARK  status: ('A' for Active; 'I' for Inactive)
REMARK    1  A    between atoms: O_2  and  C_3 
REMARK    2  A    between atoms: C_7  and  N_8 
REMARK       I    between atoms: N_8  and  C_9 
REMARK       I    between atoms: C_9  and  N_10 
ROOT
HETATM    1  N   UNL     1      42.549 -12.024   5.346  1.00  0.00    -0.307 N 
HETATM    2  C   UNL     1      43.358 -11.907   6.449  1.00  0.00     0.323 C 
HETATM    3  N   UNL     1      43.159 -10.765   7.217  1.00  0.00    -0.328 N 
HETATM    4  C   UNL     1      44.171 -10.500   8.251  1.00  0.00     0.185 C 
HETATM    5  C   UNL     1      43.563  -9.721   9.360  1.00  0.00     0.035 A 
HETATM    6  C   UNL     1      42.311  -9.147   9.386  1.00  0.00    -0.020 A 
HETATM    7  C   UNL     1      41.381  -9.288   8.238  1.00  0.00     0.061 C 
HETATM    8  C   UNL     1      42.158  -9.699   6.969  1.00  0.00     0.132 C 
HETATM    9  N   UNL     1      44.175  -9.462  10.554  1.00  0.00    -0.357 N 
HETATM   10  H   UNL     1      45.099  -9.772  10.824  1.00  0.00     0.166 HD
HETATM   11  C   UNL     1      43.333  -8.728  11.363  1.00  0.00     0.043 A 
HETATM   12  C   UNL     1      42.150  -8.515  10.648  1.00  0.00    -0.001 A 
HETATM   13  C   UNL     1      43.525  -8.250  12.664  1.00  0.00     0.030 A 
HETATM   14  C   UNL     1      42.478  -7.534  13.253  1.00  0.00     0.002 A 
HETATM   15  C   UNL     1      41.289  -7.304  12.565  1.00  0.00     0.001 A 
HETATM   16  C   UNL     1      41.112  -7.789  11.263  1.00  0.00     0.014 A 
HETATM   17  O   UNL     1      44.216 -12.735   6.750  1.00  0.00    -0.247 OA
HETATM   18  H   UNL     1      42.239 -11.163   4.922  1.00  0.00     0.170 HD
ENDROOT
BRANCH   1  19
HETATM   19  C   UNL     1      42.415 -13.161   4.509  1.00  0.00     0.058 A 
HETATM   20  C   UNL     1      41.500 -14.165   4.866  1.00  0.00     0.063 A 
HETATM   21  C   UNL     1      41.330 -15.298   4.066  1.00  0.00     0.063 A 
HETATM   22 CL   UNL     1      40.539 -14.023   6.300  1.00  0.00    -0.082 Cl
HETATM   23  C   UNL     1      42.074 -15.452   2.896  1.00  0.00     0.070 A 
HETATM   24  C   UNL     1      43.011 -14.480   2.552  1.00  0.00     0.039 A 
HETATM   25  C   UNL     1      43.181 -13.344   3.355  1.00  0.00     0.034 A 
BRANCH  23  26
HETATM   26  O   UNL     1      41.807 -16.592   2.189  1.00  0.00    -0.356 OA
HETATM   27  C   UNL     1      42.628 -17.721   2.464  1.00  0.00     0.210 C 
ENDBRANCH  23  26
ENDBRANCH   1  19
TORSDOF 2
ENDMDL
MODEL 9
REMARK VINA RESULT:      -7.5      6.184      7.855
REMARK  2 active torsions:
REMARK  status: ('A' for Active; 'I' for Inactive)
REMARK    1  A    between atoms: O_2  and  C_3 
REMARK    2  A    between atoms: C_7  and  N_8 
REMARK       I    between atoms: N_8  and  C_9 
REMARK       I    between atoms: C_9  and  N_10 
ROOT
HETATM    1  N   UNL     1      39.354 -13.120   0.447  1.00  0.00    -0.307 N 
HETATM    2  C   UNL     1      39.761 -12.708   1.692  1.00  0.00     0.323 C 
HETATM    3  N   UNL     1      39.965 -13.723   2.620  1.00  0.00    -0.328 N 
HETATM    4  C   UNL     1      40.159 -13.292   4.013  1.00  0.00     0.185 C 
HETATM    5  C   UNL     1      40.975 -14.298   4.740  1.00  0.00     0.035 A 
HETATM    6  C   UNL     1      41.356 -15.543   4.292  1.00  0.00    -0.020 A 
HETATM    7  C   UNL     1      40.982 -16.014   2.934  1.00  0.00     0.061 C 
HETATM    8  C   UNL     1      39.807 -15.178   2.384  1.00  0.00     0.132 C 
HETATM    9  N   UNL     1      41.487 -14.122   5.996  1.00  0.00    -0.357 N 
HETATM   10  H   UNL     1      41.380 -13.295   6.567  1.00  0.00     0.166 HD
HETATM   11  C   UNL     1      42.204 -15.239   6.369  1.00  0.00     0.043 A 
HETATM   12  C   UNL     1      42.136 -16.151   5.312  1.00  0.00    -0.001 A 
HETATM   13  C   UNL     1      42.909 -15.503   7.549  1.00  0.00     0.030 A 
HETATM   14  C   UNL     1      43.563 -16.734   7.652  1.00  0.00     0.002 A 
HETATM   15  C   UNL     1      43.512 -17.664   6.616  1.00  0.00     0.001 A 
HETATM   16  C   UNL     1      42.802 -17.385   5.441  1.00  0.00     0.014 A 
HETATM   17  O   UNL     1      39.929 -11.527   1.993  1.00  0.00    -0.247 OA
HETATM   18  H   UNL     1      38.814 -13.972   0.409  1.00  0.00     0.170 HD
ENDROOT
BRANCH   1  19
HETATM   19  C   UNL     1      39.256 -12.322  -0.721  1.00  0.00     0.058 A 
HETATM   20  C   UNL     1      38.162 -11.453  -0.862  1.00  0.00     0.063 A 
HETATM   21  C   UNL     1      38.030 -10.642  -1.992  1.00  0.00     0.063 A 
HETATM   22 CL   UNL     1      36.949 -11.342   0.371  1.00  0.00    -0.082 Cl
HETATM   23  C   UNL     1      38.986 -10.689  -3.007  1.00  0.00     0.070 A 
HETATM   24  C   UNL     1      40.056 -11.575  -2.894  1.00  0.00     0.039 A 
HETATM   25  C   UNL     1      40.187 -12.387  -1.760  1.00  0.00     0.034 A 
BRANCH  23  26
HETATM   26  O   UNL     1      38.758  -9.838  -4.053  1.00  0.00    -0.356 OA
HETATM   27  C   UNL     1      39.850  -9.022  -4.461  1.00  0.00     0.210 C 
ENDBRANCH  23  26
ENDBRANCH   1  19
TORSDOF 2
ENDMDL
MODEL 10
REMARK VINA RESULT:      -7.5     17.707     19.551
REMARK  2 active torsions:
REMARK  status: ('A' for Active; 'I' for Inactive)
REMARK    1  A    between atoms: O_2  and  C_3 
REMARK    2  A    between atoms: C_7  and  N_8 
REMARK       I    between atoms: N_8  and  C_9 
REMARK       I    between atoms: C_9  and  N_10 
ROOT
HETATM    1  N   UNL     1      45.501 -30.376  -1.891  1.00  0.00    -0.307 N 
HETATM    2  C   UNL     1      46.817 -30.119  -1.594  1.00  0.00     0.323 C 
HETATM    3  N   UNL     1      47.113 -30.005  -0.241  1.00  0.00    -0.328 N 
HETATM    4  C   UNL     1      48.453 -29.491   0.084  1.00  0.00     0.185 C 
HETATM    5  C   UNL     1      48.880 -30.008   1.410  1.00  0.00     0.035 A 
HETATM    6  C   UNL     1      48.115 -30.705   2.319  1.00  0.00    -0.020 A 
HETATM    7  C   UNL     1      46.702 -31.049   2.023  1.00  0.00     0.061 C 
HETATM    8  C   UNL     1      46.161 -30.156   0.886  1.00  0.00     0.132 C 
HETATM    9  N   UNL     1      50.137 -29.869   1.929  1.00  0.00    -0.357 N 
HETATM   10  H   UNL     1      50.916 -29.411   1.476  1.00  0.00     0.166 HD
HETATM   11  C   UNL     1      50.201 -30.473   3.167  1.00  0.00     0.043 A 
HETATM   12  C   UNL     1      48.938 -31.006   3.437  1.00  0.00    -0.001 A 
HETATM   13  C   UNL     1      51.276 -30.593   4.055  1.00  0.00     0.030 A 
HETATM   14  C   UNL     1      51.054 -31.279   5.253  1.00  0.00     0.002 A 
HETATM   15  C   UNL     1      49.806 -31.820   5.550  1.00  0.00     0.001 A 
HETATM   16  C   UNL     1      48.739 -31.691   4.651  1.00  0.00     0.014 A 
HETATM   17  O   UNL     1      47.689 -29.982  -2.451  1.00  0.00    -0.247 OA
HETATM   18  H   UNL     1      44.816 -30.024  -1.239  1.00  0.00     0.170 HD
ENDROOT
BRANCH   1  19
HETATM   19  C   UNL     1      44.968 -30.718  -3.159  1.00  0.00     0.058 A 
HETATM   20  C   UNL     1      44.657 -29.693  -4.067  1.00  0.00     0.063 A 
HETATM   21  C   UNL     1      44.138 -29.985  -5.331  1.00  0.00     0.063 A 
HETATM   22 CL   UNL     1      44.924 -28.031  -3.656  1.00  0.00    -0.082 Cl
HETATM   23  C   UNL     1      43.914 -31.309  -5.710  1.00  0.00     0.070 A 
HETATM   24  C   UNL     1      44.186 -32.332  -4.804  1.00  0.00     0.039 A 
HETATM   25  C   UNL     1      44.706 -32.038  -3.537  1.00  0.00     0.034 A 
BRANCH  23  26
HETATM   26  O   UNL     1      43.422 -31.470  -6.976  1.00  0.00    -0.356 OA
HETATM   27  C   UNL     1      44.371 -31.470  -8.035  1.00  0.00     0.210 C 
ENDBRANCH  23  26
ENDBRANCH   1  19
TORSDOF 2
ENDMDL
