MODEL 1
REMARK VINA RESULT:      -7.9      0.000      0.000
REMARK  5 active torsions:
REMARK  status: ('A' for Active; 'I' for Inactive)
REMARK    1  A    between atoms: C_6  and  N_7 
REMARK       I    between atoms: N_7  and  C_8 
REMARK    2  A    between atoms: C_8  and  C_9 
REMARK    3  A    between atoms: C_9  and  O_10 
REMARK    4  A    between atoms: O_10  and  C_11 
REMARK    5  A    between atoms: C_19  and  C_20 
ROOT
HETATM    1  C   UNL     1      42.803 -20.260   1.710  1.00  0.00     0.073 C 
HETATM    2  C   UNL     1      43.463 -19.708   2.919  1.00  0.00     0.065 A 
HETATM    3  N   UNL     1      44.058 -20.532   3.791  1.00  0.00    -0.177 NA
HETATM    4  N   UNL     1      44.515 -19.712   4.751  1.00  0.00    -0.262 N 
HETATM    5  H   UNL     1      45.034 -20.122   5.522  1.00  0.00     0.191 HD
HETATM    6  C   UNL     1      44.253 -18.386   4.528  1.00  0.00     0.137 A 
HETATM    7  C   UNL     1      43.559 -18.352   3.332  1.00  0.00     0.046 A 
ENDROOT
BRANCH   6   8
HETATM    8  N   UNL     1      44.685 -17.338   5.315  1.00  0.00    -0.309 N 
HETATM    9  C   UNL     1      44.056 -16.750   6.380  1.00  0.00     0.247 C 
HETATM   10  O   UNL     1      44.715 -16.026   7.131  1.00  0.00    -0.271 OA
HETATM   11  H   UNL     1      45.604 -16.956   5.121  1.00  0.00     0.170 HD
BRANCH   9  12
HETATM   12  C   UNL     1      42.535 -16.835   6.508  1.00  0.00     0.278 C 
BRANCH  12  13
HETATM   13  O   UNL     1      41.935 -15.700   7.110  1.00  0.00    -0.342 OA
BRANCH  13  14
HETATM   14  C   UNL     1      41.640 -14.662   6.259  1.00  0.00     0.069 A 
HETATM   15  C   UNL     1      40.296 -14.273   6.248  1.00  0.00     0.040 A 
HETATM   16  C   UNL     1      39.865 -13.239   5.414  1.00  0.00     0.045 A 
HETATM   17  C   UNL     1      40.781 -12.593   4.595  1.00  0.00     0.116 A 
HETATM   18  F   UNL     1      40.371 -11.600   3.794  1.00  0.00    -0.206 F 
HETATM   19  C   UNL     1      42.119 -12.963   4.596  1.00  0.00     0.045 A 
HETATM   20  C   UNL     1      42.552 -13.999   5.429  1.00  0.00     0.040 A 
ENDBRANCH  13  14
ENDBRANCH  12  13
ENDBRANCH   9  12
ENDBRANCH   6   8
BRANCH   7  21
HETATM   21  C   UNL     1      42.932 -17.164   2.787  1.00  0.00    -0.020 A 
HETATM   22  C   UNL     1      41.581 -16.885   3.019  1.00  0.00     0.014 A 
HETATM   23  C   UNL     1      40.988 -15.765   2.427  1.00  0.00     0.020 A 
HETATM   24  C   UNL     1      41.747 -14.927   1.611  1.00  0.00     0.011 A 
HETATM   25 BR   UNL     1      40.939 -13.426   0.793  1.00  0.00    -0.051 Br
HETATM   26  C   UNL     1      43.097 -15.188   1.388  1.00  0.00     0.020 A 
HETATM   27  C   UNL     1      43.688 -16.307   1.976  1.00  0.00     0.014 A 
ENDBRANCH   7  21
TORSDOF 5
ENDMDL
MODEL 2
REMARK VINA RESULT:      -7.8      3.759      6.427
REMARK  5 active torsions:
REMARK  status: ('A' for Active; 'I' for Inactive)
REMARK    1  A    between atoms: C_6  and  N_7 
REMARK       I    between atoms: N_7  and  C_8 
REMARK    2  A    between atoms: C_8  and  C_9 
REMARK    3  A    between atoms: C_9  and  O_10 
REMARK    4  A    between atoms: O_10  and  C_11 
REMARK    5  A    between atoms: C_19  and  C_20 
ROOT
HETATM    1  C   UNL     1      42.679 -11.926   2.782  1.00  0.00     0.073 C 
HETATM    2  C   UNL     1      42.328 -13.010   3.733  1.00  0.00     0.065 A 
HETATM    3  N   UNL     1      41.597 -14.052   3.320  1.00  0.00    -0.177 NA
HETATM    4  N   UNL     1      41.452 -14.805   4.422  1.00  0.00    -0.262 N 
HETATM    5  H   UNL     1      40.942 -15.679   4.340  1.00  0.00     0.191 HD
HETATM    6  C   UNL     1      42.075 -14.299   5.532  1.00  0.00     0.137 A 
HETATM    7  C   UNL     1      42.657 -13.116   5.112  1.00  0.00     0.046 A 
ENDROOT
BRANCH   6   8
HETATM    8  N   UNL     1      42.150 -14.917   6.764  1.00  0.00    -0.309 N 
HETATM    9  C   UNL     1      43.161 -15.684   7.278  1.00  0.00     0.247 C 
HETATM   10  O   UNL     1      43.174 -15.909   8.492  1.00  0.00    -0.271 OA
HETATM   11  H   UNL     1      41.379 -14.771   7.406  1.00  0.00     0.170 HD
BRANCH   9  12
HETATM   12  C   UNL     1      44.127 -16.403   6.336  1.00  0.00     0.278 C 
BRANCH  12  13
HETATM   13  O   UNL     1      43.981 -17.813   6.312  1.00  0.00    -0.342 OA
BRANCH  13  14
HETATM   14  C   UNL     1      43.863 -18.377   5.064  1.00  0.00     0.069 A 
HETATM   15  C   UNL     1      44.057 -19.761   5.024  1.00  0.00     0.040 A 
HETATM   16  C   UNL     1      43.980 -20.452   3.812  1.00  0.00     0.045 A 
HETATM   17  C   UNL     1      43.703 -19.756   2.644  1.00  0.00     0.116 A 
HETATM   18  F   UNL     1      43.626 -20.415   1.481  1.00  0.00    -0.206 F 
HETATM   19  C   UNL     1      43.503 -18.382   2.667  1.00  0.00     0.045 A 
HETATM   20  C   UNL     1      43.581 -17.689   3.878  1.00  0.00     0.040 A 
ENDBRANCH  13  14
ENDBRANCH  12  13
ENDBRANCH   9  12
ENDBRANCH   6   8
BRANCH   7  21
HETATM   21  C   UNL     1      43.285 -12.157   5.998  1.00  0.00    -0.020 A 
HETATM   22  C   UNL     1      42.589 -11.038   6.468  1.00  0.00     0.014 A 
HETATM   23  C   UNL     1      43.242 -10.096   7.269  1.00  0.00     0.020 A 
HETATM   24  C   UNL     1      44.583 -10.278   7.604  1.00  0.00     0.011 A 
HETATM   25 BR   UNL     1      45.471  -8.992   8.669  1.00  0.00    -0.051 Br
HETATM   26  C   UNL     1      45.280 -11.397   7.153  1.00  0.00     0.020 A 
HETATM   27  C   UNL     1      44.629 -12.336   6.351  1.00  0.00     0.014 A 
ENDBRANCH   7  21
TORSDOF 5
ENDMDL
MODEL 3
REMARK VINA RESULT:      -7.3      3.355      5.871
REMARK  5 active torsions:
REMARK  status: ('A' for Active; 'I' for Inactive)
REMARK    1  A    between atoms: C_6  and  N_7 
REMARK       I    between atoms: N_7  and  C_8 
REMARK    2  A    between atoms: C_8  and  C_9 
REMARK    3  A    between atoms: C_9  and  O_10 
REMARK    4  A    between atoms: O_10  and  C_11 
REMARK    5  A    between atoms: C_19  and  C_20 
ROOT
HETATM    1  C   UNL     1      40.268 -13.921   2.280  1.00  0.00     0.073 C 
HETATM    2  C   UNL     1      40.536 -14.734   3.492  1.00  0.00     0.065 A 
HETATM    3  N   UNL     1      40.290 -16.050   3.483  1.00  0.00    -0.177 NA
HETATM    4  N   UNL     1      40.615 -16.450   4.722  1.00  0.00    -0.262 N 
HETATM    5  H   UNL     1      40.532 -17.438   4.943  1.00  0.00     0.191 HD
HETATM    6  C   UNL     1      41.078 -15.447   5.532  1.00  0.00     0.137 A 
HETATM    7  C   UNL     1      41.034 -14.304   4.752  1.00  0.00     0.046 A 
ENDROOT
BRANCH   6   8
HETATM    8  N   UNL     1      41.555 -15.606   6.817  1.00  0.00    -0.309 N 
HETATM    9  C   UNL     1      42.844 -15.804   7.235  1.00  0.00     0.247 C 
HETATM   10  O   UNL     1      43.112 -15.637   8.428  1.00  0.00    -0.271 OA
HETATM   11  H   UNL     1      40.885 -15.537   7.575  1.00  0.00     0.170 HD
BRANCH   9  12
HETATM   12  C   UNL     1      43.871 -16.409   6.278  1.00  0.00     0.278 C 
BRANCH  12  13
HETATM   13  O   UNL     1      43.912 -17.826   6.285  1.00  0.00    -0.342 OA
BRANCH  13  14
HETATM   14  C   UNL     1      43.829 -18.429   5.052  1.00  0.00     0.069 A 
HETATM   15  C   UNL     1      44.013 -19.816   5.062  1.00  0.00     0.040 A 
HETATM   16  C   UNL     1      43.969 -20.545   3.871  1.00  0.00     0.045 A 
HETATM   17  C   UNL     1      43.735 -19.884   2.673  1.00  0.00     0.116 A 
HETATM   18  F   UNL     1      43.690 -20.580   1.530  1.00  0.00    -0.206 F 
HETATM   19  C   UNL     1      43.546 -18.510   2.646  1.00  0.00     0.045 A 
HETATM   20  C   UNL     1      43.591 -17.778   3.836  1.00  0.00     0.040 A 
ENDBRANCH  13  14
ENDBRANCH  12  13
ENDBRANCH   9  12
ENDBRANCH   6   8
BRANCH   7  21
HETATM   21  C   UNL     1      41.277 -12.967   5.252  1.00  0.00    -0.020 A 
HETATM   22  C   UNL     1      42.550 -12.388   5.191  1.00  0.00     0.014 A 
HETATM   23  C   UNL     1      42.768 -11.121   5.740  1.00  0.00     0.020 A 
HETATM   24  C   UNL     1      41.715 -10.434   6.342  1.00  0.00     0.011 A 
HETATM   25 BR   UNL     1      42.016  -8.730   7.104  1.00  0.00    -0.051 Br
HETATM   26  C   UNL     1      40.441 -10.995   6.394  1.00  0.00     0.020 A 
HETATM   27  C   UNL     1      40.223 -12.261   5.849  1.00  0.00     0.014 A 
ENDBRANCH   7  21
TORSDOF 5
ENDMDL
MODEL 4
REMARK VINA RESULT:      -7.3      3.248      4.045
REMARK  5 active torsions:
REMARK  status: ('A' for Active; 'I' for Inactive)
REMARK    1  A    between atoms: C_6  and  N_7 
REMARK       I    between atoms: N_7  and  C_8 
REMARK    2  A    between atoms: C_8  and  C_9 
REMARK    3  A    between atoms: C_9  and  O_10 
REMARK    4  A    between atoms: O_10  and  C_11 
REMARK    5  A    between atoms: C_19  and  C_20 
ROOT
HETATM    1  C   UNL     1      44.242 -18.830   3.295  1.00  0.00     0.073 C 
HETATM    2  C   UNL     1      43.616 -18.061   4.399  1.00  0.00     0.065 A 
HETATM    3  N   UNL     1      43.797 -18.446   5.669  1.00  0.00    -0.177 NA
HETATM    4  N   UNL     1      43.083 -17.559   6.381  1.00  0.00    -0.262 N 
HETATM    5  H   UNL     1      43.093 -17.641   7.393  1.00  0.00     0.191 HD
HETATM    6  C   UNL     1      42.459 -16.604   5.623  1.00  0.00     0.137 A 
HETATM    7  C   UNL     1      42.787 -16.910   4.314  1.00  0.00     0.046 A 
ENDROOT
BRANCH   6   8
HETATM    8  N   UNL     1      41.736 -15.535   6.113  1.00  0.00    -0.309 N 
HETATM    9  C   UNL     1      42.107 -14.220   6.206  1.00  0.00     0.247 C 
HETATM   10  O   UNL     1      41.233 -13.371   6.400  1.00  0.00    -0.271 OA
HETATM   11  H   UNL     1      40.786 -15.715   6.420  1.00  0.00     0.170 HD
BRANCH   9  12
HETATM   12  C   UNL     1      43.589 -13.849   6.266  1.00  0.00     0.278 C 
BRANCH  12  13
HETATM   13  O   UNL     1      43.881 -12.536   5.817  1.00  0.00    -0.342 OA
BRANCH  13  14
HETATM   14  C   UNL     1      44.348 -11.670   6.777  1.00  0.00     0.069 A 
HETATM   15  C   UNL     1      45.712 -11.375   6.690  1.00  0.00     0.040 A 
HETATM   16  C   UNL     1      46.312 -10.519   7.618  1.00  0.00     0.045 A 
HETATM   17  C   UNL     1      45.543  -9.957   8.627  1.00  0.00     0.116 A 
HETATM   18  F   UNL     1      46.114  -9.135   9.517  1.00  0.00    -0.206 F 
HETATM   19  C   UNL     1      44.186 -10.235   8.725  1.00  0.00     0.045 A 
HETATM   20  C   UNL     1      43.585 -11.093   7.799  1.00  0.00     0.040 A 
ENDBRANCH  13  14
ENDBRANCH  12  13
ENDBRANCH   9  12
ENDBRANCH   6   8
BRANCH   7  21
HETATM   21  C   UNL     1      42.209 -16.260   3.156  1.00  0.00    -0.020 A 
HETATM   22  C   UNL     1      42.939 -15.332   2.404  1.00  0.00     0.014 A 
HETATM   23  C   UNL     1      42.333 -14.673   1.330  1.00  0.00     0.020 A 
HETATM   24  C   UNL     1      41.004 -14.946   1.007  1.00  0.00     0.011 A 
HETATM   25 BR   UNL     1      40.179 -14.038  -0.432  1.00  0.00    -0.051 Br
HETATM   26  C   UNL     1      40.275 -15.879   1.740  1.00  0.00     0.020 A 
HETATM   27  C   UNL     1      40.878 -16.536   2.814  1.00  0.00     0.014 A 
ENDBRANCH   7  21
TORSDOF 5
ENDMDL
MODEL 5
REMARK VINA RESULT:      -7.3      3.224      5.702
REMARK  5 active torsions:
REMARK  status: ('A' for Active; 'I' for Inactive)
REMARK    1  A    between atoms: C_6  and  N_7 
REMARK       I    between atoms: N_7  and  C_8 
REMARK    2  A    between atoms: C_8  and  C_9 
REMARK    3  A    between atoms: C_9  and  O_10 
REMARK    4  A    between atoms: O_10  and  C_11 
REMARK    5  A    between atoms: C_19  and  C_20 
ROOT
HETATM    1  C   UNL     1      45.120 -11.221   5.637  1.00  0.00     0.073 C 
HETATM    2  C   UNL     1      44.171 -12.204   6.215  1.00  0.00     0.065 A 
HETATM    3  N   UNL     1      44.357 -12.664   7.458  1.00  0.00    -0.177 NA
HETATM    4  N   UNL     1      43.350 -13.534   7.637  1.00  0.00    -0.262 N 
HETATM    5  H   UNL     1      43.273 -13.997   8.538  1.00  0.00     0.191 HD
HETATM    6  C   UNL     1      42.507 -13.644   6.563  1.00  0.00     0.137 A 
HETATM    7  C   UNL     1      43.023 -12.785   5.610  1.00  0.00     0.046 A 
ENDROOT
BRANCH   6   8
HETATM    8  N   UNL     1      41.354 -14.402   6.521  1.00  0.00    -0.309 N 
HETATM    9  C   UNL     1      41.207 -15.750   6.713  1.00  0.00     0.247 C 
HETATM   10  O   UNL     1      40.076 -16.198   6.919  1.00  0.00    -0.271 OA
HETATM   11  H   UNL     1      40.480 -13.913   6.361  1.00  0.00     0.170 HD
BRANCH   9  12
HETATM   12  C   UNL     1      42.391 -16.687   6.475  1.00  0.00     0.278 C 
BRANCH  12  13
HETATM   13  O   UNL     1      43.145 -16.394   5.311  1.00  0.00    -0.342 OA
BRANCH  13  14
HETATM   14  C   UNL     1      43.342 -17.446   4.450  1.00  0.00     0.069 A 
HETATM   15  C   UNL     1      42.816 -17.263   3.167  1.00  0.00     0.040 A 
HETATM   16  C   UNL     1      42.935 -18.266   2.202  1.00  0.00     0.045 A 
HETATM   17  C   UNL     1      43.588 -19.449   2.522  1.00  0.00     0.116 A 
HETATM   18  F   UNL     1      43.706 -20.413   1.600  1.00  0.00    -0.206 F 
HETATM   19  C   UNL     1      44.120 -19.646   3.789  1.00  0.00     0.045 A 
HETATM   20  C   UNL     1      43.999 -18.644   4.756  1.00  0.00     0.040 A 
ENDBRANCH  13  14
ENDBRANCH  12  13
ENDBRANCH   9  12
ENDBRANCH   6   8
BRANCH   7  21
HETATM   21  C   UNL     1      42.545 -12.701   4.245  1.00  0.00    -0.020 A 
HETATM   22  C   UNL     1      41.685 -11.674   3.838  1.00  0.00     0.014 A 
HETATM   23  C   UNL     1      41.189 -11.656   2.531  1.00  0.00     0.020 A 
HETATM   24  C   UNL     1      41.558 -12.658   1.633  1.00  0.00     0.011 A 
HETATM   25 BR   UNL     1      40.868 -12.645  -0.127  1.00  0.00    -0.051 Br
HETATM   26  C   UNL     1      42.425 -13.675   2.025  1.00  0.00     0.020 A 
HETATM   27  C   UNL     1      42.918 -13.695   3.331  1.00  0.00     0.014 A 
ENDBRANCH   7  21
TORSDOF 5
ENDMDL
MODEL 6
REMARK VINA RESULT:      -7.3      3.805      5.773
REMARK  5 active torsions:
REMARK  status: ('A' for Active; 'I' for Inactive)
REMARK    1  A    between atoms: C_6  and  N_7 
REMARK       I    between atoms: N_7  and  C_8 
REMARK    2  A    between atoms: C_8  and  C_9 
REMARK    3  A    between atoms: C_9  and  O_10 
REMARK    4  A    between atoms: O_10  and  C_11 
REMARK    5  A    between atoms: C_19  and  C_20 
ROOT
HETATM    1  C   UNL     1      39.768 -16.154   6.673  1.00  0.00     0.073 C 
HETATM    2  C   UNL     1      40.509 -14.991   6.124  1.00  0.00     0.065 A 
HETATM    3  N   UNL     1      40.168 -13.749   6.488  1.00  0.00    -0.177 NA
HETATM    4  N   UNL     1      41.011 -12.965   5.796  1.00  0.00    -0.262 N 
HETATM    5  H   UNL     1      40.952 -11.961   5.936  1.00  0.00     0.191 HD
HETATM    6  C   UNL     1      41.896 -13.652   5.009  1.00  0.00     0.137 A 
HETATM    7  C   UNL     1      41.589 -14.987   5.200  1.00  0.00     0.046 A 
ENDROOT
BRANCH   6   8
HETATM    8  N   UNL     1      42.916 -13.090   4.266  1.00  0.00    -0.309 N 
HETATM    9  C   UNL     1      42.837 -12.136   3.287  1.00  0.00     0.247 C 
HETATM   10  O   UNL     1      43.870 -11.556   2.942  1.00  0.00    -0.271 OA
HETATM   11  H   UNL     1      43.863 -13.382   4.479  1.00  0.00     0.170 HD
BRANCH   9  12
HETATM   12  C   UNL     1      41.534 -11.947   2.511  1.00  0.00     0.278 C 
BRANCH  12  13
HETATM   13  O   UNL     1      41.707 -11.744   1.118  1.00  0.00    -0.342 OA
BRANCH  13  14
HETATM   14  C   UNL     1      41.005 -12.597   0.301  1.00  0.00     0.069 A 
HETATM   15  C   UNL     1      40.673 -13.826   0.880  1.00  0.00     0.040 A 
HETATM   16  C   UNL     1      39.973 -14.788   0.147  1.00  0.00     0.045 A 
HETATM   17  C   UNL     1      39.602 -14.515  -1.162  1.00  0.00     0.116 A 
HETATM   18  F   UNL     1      38.930 -15.433  -1.867  1.00  0.00    -0.206 F 
HETATM   19  C   UNL     1      39.919 -13.298  -1.751  1.00  0.00     0.045 A 
HETATM   20  C   UNL     1      40.621 -12.335  -1.020  1.00  0.00     0.040 A 
ENDBRANCH  13  14
ENDBRANCH  12  13
ENDBRANCH   9  12
ENDBRANCH   6   8
BRANCH   7  21
HETATM   21  C   UNL     1      42.166 -16.074   4.435  1.00  0.00    -0.020 A 
HETATM   22  C   UNL     1      41.707 -16.382   3.150  1.00  0.00     0.014 A 
HETATM   23  C   UNL     1      42.239 -17.477   2.462  1.00  0.00     0.020 A 
HETATM   24  C   UNL     1      43.231 -18.256   3.057  1.00  0.00     0.011 A 
HETATM   25 BR   UNL     1      43.933 -19.750   2.135  1.00  0.00    -0.051 Br
HETATM   26  C   UNL     1      43.705 -17.948   4.329  1.00  0.00     0.020 A 
HETATM   27  C   UNL     1      43.172 -16.857   5.018  1.00  0.00     0.014 A 
ENDBRANCH   7  21
TORSDOF 5
ENDMDL
MODEL 7
REMARK VINA RESULT:      -7.2      3.833      5.795
REMARK  5 active torsions:
REMARK  status: ('A' for Active; 'I' for Inactive)
REMARK    1  A    between atoms: C_6  and  N_7 
REMARK       I    between atoms: N_7  and  C_8 
REMARK    2  A    between atoms: C_8  and  C_9 
REMARK    3  A    between atoms: C_9  and  O_10 
REMARK    4  A    between atoms: O_10  and  C_11 
REMARK    5  A    between atoms: C_19  and  C_20 
ROOT
HETATM    1  C   UNL     1      40.936 -12.516  -0.532  1.00  0.00     0.073 C 
HETATM    2  C   UNL     1      40.289 -12.346   0.793  1.00  0.00     0.065 A 
HETATM    3  N   UNL     1      39.573 -11.244   1.051  1.00  0.00    -0.177 NA
HETATM    4  N   UNL     1      39.169 -11.411   2.321  1.00  0.00    -0.262 N 
HETATM    5  H   UNL     1      38.576 -10.695   2.731  1.00  0.00     0.191 HD
HETATM    6  C   UNL     1      39.581 -12.586   2.891  1.00  0.00     0.137 A 
HETATM    7  C   UNL     1      40.324 -13.221   1.912  1.00  0.00     0.046 A 
ENDROOT
BRANCH   6   8
HETATM    8  N   UNL     1      39.233 -13.034   4.149  1.00  0.00    -0.309 N 
HETATM    9  C   UNL     1      39.918 -12.900   5.327  1.00  0.00     0.247 C 
HETATM   10  O   UNL     1      39.321 -13.110   6.387  1.00  0.00    -0.271 OA
HETATM   11  H   UNL     1      38.337 -13.499   4.248  1.00  0.00     0.170 HD
BRANCH   9  12
HETATM   12  C   UNL     1      41.433 -12.692   5.308  1.00  0.00     0.278 C 
BRANCH  12  13
HETATM   13  O   UNL     1      42.111 -13.229   6.430  1.00  0.00    -0.342 OA
BRANCH  13  14
HETATM   14  C   UNL     1      42.503 -14.542   6.316  1.00  0.00     0.069 A 
HETATM   15  C   UNL     1      43.878 -14.759   6.454  1.00  0.00     0.040 A 
HETATM   16  C   UNL     1      44.407 -16.047   6.341  1.00  0.00     0.045 A 
HETATM   17  C   UNL     1      43.556 -17.117   6.097  1.00  0.00     0.116 A 
HETATM   18  F   UNL     1      44.058 -18.354   5.990  1.00  0.00    -0.206 F 
HETATM   19  C   UNL     1      42.188 -16.920   5.962  1.00  0.00     0.045 A 
HETATM   20  C   UNL     1      41.658 -15.630   6.072  1.00  0.00     0.040 A 
ENDBRANCH  13  14
ENDBRANCH  12  13
ENDBRANCH   9  12
ENDBRANCH   6   8
BRANCH   7  21
HETATM   21  C   UNL     1      41.097 -14.427   2.130  1.00  0.00    -0.020 A 
HETATM   22  C   UNL     1      42.487 -14.380   2.288  1.00  0.00     0.014 A 
HETATM   23  C   UNL     1      43.213 -15.566   2.432  1.00  0.00     0.020 A 
HETATM   24  C   UNL     1      42.550 -16.793   2.424  1.00  0.00     0.011 A 
HETATM   25 BR   UNL     1      43.536 -18.397   2.597  1.00  0.00    -0.051 Br
HETATM   26  C   UNL     1      41.166 -16.848   2.283  1.00  0.00     0.020 A 
HETATM   27  C   UNL     1      40.440 -15.664   2.136  1.00  0.00     0.014 A 
ENDBRANCH   7  21
TORSDOF 5
ENDMDL
MODEL 8
REMARK VINA RESULT:      -7.1      4.106      6.895
REMARK  5 active torsions:
REMARK  status: ('A' for Active; 'I' for Inactive)
REMARK    1  A    between atoms: C_6  and  N_7 
REMARK       I    between atoms: N_7  and  C_8 
REMARK    2  A    between atoms: C_8  and  C_9 
REMARK    3  A    between atoms: C_9  and  O_10 
REMARK    4  A    between atoms: O_10  and  C_11 
REMARK    5  A    between atoms: C_19  and  C_20 
ROOT
HETATM    1  C   UNL     1      40.967 -10.405   3.494  1.00  0.00     0.073 C 
HETATM    2  C   UNL     1      40.794 -11.653   4.278  1.00  0.00     0.065 A 
HETATM    3  N   UNL     1      39.800 -12.499   3.979  1.00  0.00    -0.177 NA
HETATM    4  N   UNL     1      39.926 -13.481   4.886  1.00  0.00    -0.262 N 
HETATM    5  H   UNL     1      39.280 -14.264   4.835  1.00  0.00     0.191 HD
HETATM    6  C   UNL     1      40.974 -13.314   5.752  1.00  0.00     0.137 A 
HETATM    7  C   UNL     1      41.562 -12.118   5.380  1.00  0.00     0.046 A 
ENDROOT
BRANCH   6   8
HETATM    8  N   UNL     1      41.369 -14.216   6.719  1.00  0.00    -0.309 N 
HETATM    9  C   UNL     1      42.487 -15.006   6.748  1.00  0.00     0.247 C 
HETATM   10  O   UNL     1      42.815 -15.529   7.817  1.00  0.00    -0.271 OA
HETATM   11  H   UNL     1      40.788 -14.298   7.546  1.00  0.00     0.170 HD
BRANCH   9  12
HETATM   12  C   UNL     1      43.187 -15.385   5.442  1.00  0.00     0.278 C 
BRANCH  12  13
HETATM   13  O   UNL     1      42.371 -16.095   4.526  1.00  0.00    -0.342 OA
BRANCH  13  14
HETATM   14  C   UNL     1      42.895 -17.275   4.055  1.00  0.00     0.069 A 
HETATM   15  C   UNL     1      42.554 -17.584   2.734  1.00  0.00     0.040 A 
HETATM   16  C   UNL     1      43.010 -18.764   2.142  1.00  0.00     0.045 A 
HETATM   17  C   UNL     1      43.811 -19.631   2.873  1.00  0.00     0.116 A 
HETATM   18  F   UNL     1      44.252 -20.762   2.308  1.00  0.00    -0.206 F 
HETATM   19  C   UNL     1      44.163 -19.338   4.183  1.00  0.00     0.045 A 
HETATM   20  C   UNL     1      43.706 -18.157   4.778  1.00  0.00     0.040 A 
ENDBRANCH  13  14
ENDBRANCH  12  13
ENDBRANCH   9  12
ENDBRANCH   6   8
BRANCH   7  21
HETATM   21  C   UNL     1      42.612 -11.458   6.130  1.00  0.00    -0.020 A 
HETATM   22  C   UNL     1      42.320 -10.450   7.056  1.00  0.00     0.014 A 
HETATM   23  C   UNL     1      43.359  -9.788   7.717  1.00  0.00     0.020 A 
HETATM   24  C   UNL     1      44.684 -10.137   7.456  1.00  0.00     0.011 A 
HETATM   25 BR   UNL     1      46.088  -9.225   8.333  1.00  0.00    -0.051 Br
HETATM   26  C   UNL     1      44.983 -11.149   6.547  1.00  0.00     0.020 A 
HETATM   27  C   UNL     1      43.946 -11.810   5.885  1.00  0.00     0.014 A 
ENDBRANCH   7  21
TORSDOF 5
ENDMDL
MODEL 9
REMARK VINA RESULT:      -7.0     14.206     16.303
REMARK  5 active torsions:
REMARK  status: ('A' for Active; 'I' for Inactive)
REMARK    1  A    between atoms: C_6  and  N_7 
REMARK       I    between atoms: N_7  and  C_8 
REMARK    2  A    between atoms: C_8  and  C_9 
REMARK    3  A    between atoms: C_9  and  O_10 
REMARK    4  A    between atoms: O_10  and  C_11 
REMARK    5  A    between atoms: C_19  and  C_20 
ROOT
HETATM    1  C   UNL     1      43.718 -29.500  -3.461  1.00  0.00     0.073 C 
HETATM    2  C   UNL     1      44.671 -28.915  -2.485  1.00  0.00     0.065 A 
HETATM    3  N   UNL     1      45.721 -28.206  -2.918  1.00  0.00    -0.177 NA
HETATM    4  N   UNL     1      46.366 -27.861  -1.792  1.00  0.00    -0.262 N 
HETATM    5  H   UNL     1      47.199 -27.285  -1.875  1.00  0.00     0.191 HD
HETATM    6  C   UNL     1      45.766 -28.306  -0.643  1.00  0.00     0.137 A 
HETATM    7  C   UNL     1      44.650 -29.006  -1.067  1.00  0.00     0.046 A 
ENDROOT
BRANCH   6   8
HETATM    8  N   UNL     1      46.178 -28.019   0.642  1.00  0.00    -0.309 N 
HETATM    9  C   UNL     1      47.354 -28.355   1.260  1.00  0.00     0.247 C 
HETATM   10  O   UNL     1      47.662 -27.770   2.303  1.00  0.00    -0.271 OA
HETATM   11  H   UNL     1      45.560 -27.456   1.216  1.00  0.00     0.170 HD
BRANCH   9  12
HETATM   12  C   UNL     1      48.154 -29.562   0.771  1.00  0.00     0.278 C 
BRANCH  12  13
HETATM   13  O   UNL     1      48.787 -29.374  -0.483  1.00  0.00    -0.342 OA
BRANCH  13  14
HETATM   14  C   UNL     1      49.897 -30.152  -0.711  1.00  0.00     0.069 A 
HETATM   15  C   UNL     1      50.335 -30.890   0.394  1.00  0.00     0.040 A 
HETATM   16  C   UNL     1      51.463 -31.708   0.297  1.00  0.00     0.045 A 
HETATM   17  C   UNL     1      52.148 -31.790  -0.908  1.00  0.00     0.116 A 
HETATM   18  F   UNL     1      53.229 -32.574  -1.006  1.00  0.00    -0.206 F 
HETATM   19  C   UNL     1      51.724 -31.067  -2.016  1.00  0.00     0.045 A 
HETATM   20  C   UNL     1      50.596 -30.247  -1.920  1.00  0.00     0.040 A 
ENDBRANCH  13  14
ENDBRANCH  12  13
ENDBRANCH   9  12
ENDBRANCH   6   8
BRANCH   7  21
HETATM   21  C   UNL     1      43.804 -29.795  -0.195  1.00  0.00    -0.020 A 
HETATM   22  C   UNL     1      43.800 -31.193  -0.255  1.00  0.00     0.014 A 
HETATM   23  C   UNL     1      42.925 -31.924   0.553  1.00  0.00     0.020 A 
HETATM   24  C   UNL     1      42.062 -31.259   1.424  1.00  0.00     0.011 A 
HETATM   25 BR   UNL     1      40.864 -32.248   2.501  1.00  0.00    -0.051 Br
HETATM   26  C   UNL     1      42.070 -29.868   1.502  1.00  0.00     0.020 A 
HETATM   27  C   UNL     1      42.941 -29.137   0.693  1.00  0.00     0.014 A 
ENDBRANCH   7  21
TORSDOF 5
ENDMDL
MODEL 10
REMARK VINA RESULT:      -6.9      4.141      5.065
REMARK  5 active torsions:
REMARK  status: ('A' for Active; 'I' for Inactive)
REMARK    1  A    between atoms: C_6  and  N_7 
REMARK       I    between atoms: N_7  and  C_8 
REMARK    2  A    between atoms: C_8  and  C_9 
REMARK    3  A    between atoms: C_9  and  O_10 
REMARK    4  A    between atoms: O_10  and  C_11 
REMARK    5  A    between atoms: C_19  and  C_20 
ROOT
HETATM    1  C   UNL     1      44.029 -17.863   5.298  1.00  0.00     0.073 C 
HETATM    2  C   UNL     1      43.449 -16.698   6.012  1.00  0.00     0.065 A 
HETATM    3  N   UNL     1      43.603 -16.580   7.337  1.00  0.00    -0.177 NA
HETATM    4  N   UNL     1      42.943 -15.452   7.642  1.00  0.00    -0.262 N 
HETATM    5  H   UNL     1      42.946 -15.143   8.609  1.00  0.00     0.191 HD
HETATM    6  C   UNL     1      42.379 -14.824   6.563  1.00  0.00     0.137 A 
HETATM    7  C   UNL     1      42.691 -15.622   5.477  1.00  0.00     0.046 A 
ENDROOT
BRANCH   6   8
HETATM    8  N   UNL     1      41.722 -13.610   6.592  1.00  0.00    -0.309 N 
HETATM    9  C   UNL     1      42.223 -12.358   6.354  1.00  0.00     0.247 C 
HETATM   10  O   UNL     1      41.431 -11.434   6.145  1.00  0.00    -0.271 OA
HETATM   11  H   UNL     1      40.725 -13.624   6.780  1.00  0.00     0.170 HD
BRANCH   9  12
HETATM   12  C   UNL     1      43.715 -12.085   6.543  1.00  0.00     0.278 C 
BRANCH  12  13
HETATM   13  O   UNL     1      44.046 -10.713   6.679  1.00  0.00    -0.342 OA
BRANCH  13  14
HETATM   14  C   UNL     1      44.181 -10.260   7.969  1.00  0.00     0.069 A 
HETATM   15  C   UNL     1      43.131  -9.454   8.422  1.00  0.00     0.040 A 
HETATM   16  C   UNL     1      43.156  -8.916   9.711  1.00  0.00     0.045 A 
HETATM   17  C   UNL     1      44.231  -9.191  10.547  1.00  0.00     0.116 A 
HETATM   18  F   UNL     1      44.258  -8.679  11.783  1.00  0.00    -0.206 F 
HETATM   19  C   UNL     1      45.278  -9.993  10.115  1.00  0.00     0.045 A 
HETATM   20  C   UNL     1      45.255 -10.530   8.824  1.00  0.00     0.040 A 
ENDBRANCH  13  14
ENDBRANCH  12  13
ENDBRANCH   9  12
ENDBRANCH   6   8
BRANCH   7  21
HETATM   21  C   UNL     1      42.156 -15.430   4.144  1.00  0.00    -0.020 A 
HETATM   22  C   UNL     1      42.861 -14.706   3.175  1.00  0.00     0.014 A 
HETATM   23  C   UNL     1      42.290 -14.483   1.919  1.00  0.00     0.020 A 
HETATM   24  C   UNL     1      41.022 -14.987   1.632  1.00  0.00     0.011 A 
HETATM   25 BR   UNL     1      40.241 -14.665  -0.061  1.00  0.00    -0.051 Br
HETATM   26  C   UNL     1      40.320 -15.721   2.584  1.00  0.00     0.020 A 
HETATM   27  C   UNL     1      40.888 -15.942   3.840  1.00  0.00     0.014 A 
ENDBRANCH   7  21
TORSDOF 5
ENDMDL
