MODEL 1
REMARK VINA RESULT:      -9.1      0.000      0.000
REMARK  9 active torsions:
REMARK  status: ('A' for Active; 'I' for Inactive)
REMARK    1  A    between atoms: C_6  and  N_7 
REMARK       I    between atoms: N_7  and  C_8 
REMARK    2  A    between atoms: C_8  and  C_9 
REMARK    3  A    between atoms: C_9  and  N_10 
REMARK       I    between atoms: N_10  and  C_11 
REMARK    4  A    between atoms: C_11  and  C_12 
REMARK    5  A    between atoms: C_12  and  S_13 
REMARK    6  A    between atoms: S_13  and  C_14 
REMARK    7  A    between atoms: N_15  and  C_16 
REMARK    8  A    between atoms: C_22  and  C_23 
REMARK    9  A    between atoms: C_23  and  N_24 
ROOT
HETATM    1  C   UNL     1      40.531 -10.469   6.060  1.00  0.00     0.185 C 
ENDROOT
BRANCH   1   2
HETATM    2  C   UNL     1      41.789 -11.292   5.836  1.00  0.00     0.227 C 
HETATM    3  N   UNL     1      41.754 -12.559   6.372  1.00  0.00    -0.352 N 
HETATM    4  H   UNL     1      40.987 -12.830   6.978  1.00  0.00     0.162 HD
HETATM    5  O   UNL     1      42.800 -10.855   5.285  1.00  0.00    -0.273 OA
BRANCH   3   6
HETATM    6  C   UNL     1      42.851 -13.506   6.218  1.00  0.00     0.225 C 
BRANCH   6   7
HETATM    7  C   UNL     1      42.464 -14.794   5.477  1.00  0.00     0.239 C 
HETATM    8  N   UNL     1      43.557 -15.478   4.964  1.00  0.00    -0.325 N 
HETATM    9  H   UNL     1      44.383 -14.889   4.867  1.00  0.00     0.169 HD
HETATM   10  O   UNL     1      41.285 -15.052   5.250  1.00  0.00    -0.271 OA
BRANCH   8  11
HETATM   11  C   UNL     1      43.495 -16.638   4.156  1.00  0.00     0.046 A 
HETATM   12  C   UNL     1      43.586 -17.894   4.804  1.00  0.00    -0.034 A 
HETATM   13  C   UNL     1      43.573 -19.073   4.039  1.00  0.00     0.015 A 
HETATM   14  C   UNL     1      43.768 -18.014   6.294  1.00  0.00     0.050 C 
HETATM   15  C   UNL     1      43.469 -19.029   2.648  1.00  0.00    -0.061 A 
HETATM   16  C   UNL     1      43.470 -20.290   1.836  1.00  0.00     0.048 C 
HETATM   17  C   UNL     1      43.317 -17.790   2.024  1.00  0.00     0.015 A 
HETATM   18  C   UNL     1      43.303 -16.589   2.760  1.00  0.00    -0.034 A 
HETATM   19  C   UNL     1      43.055 -15.325   1.981  1.00  0.00     0.050 C 
ENDBRANCH   8  11
ENDBRANCH   6   7
ENDBRANCH   3   6
ENDBRANCH   1   2
BRANCH   1  20
HETATM   20  S   UNL     1      40.985  -8.812   6.651  1.00  0.00    -0.081 SA
BRANCH  20  21
HETATM   21  C   UNL     1      40.889  -9.034   8.367  1.00  0.00     0.196 A 
HETATM   22  N   UNL     1      41.949  -9.382   9.185  1.00  0.00    -0.274 N 
HETATM   23  C   UNL     1      41.359  -9.574  10.426  1.00  0.00     0.161 A 
HETATM   24  N   UNL     1      40.056  -9.395  10.341  1.00  0.00    -0.132 NA
HETATM   25  N   UNL     1      39.766  -9.064   9.051  1.00  0.00    -0.122 NA
BRANCH  22  26
HETATM   26  C   UNL     1      43.332  -9.461   8.897  1.00  0.00     0.043 A 
HETATM   27  C   UNL     1      43.923 -10.693   8.599  1.00  0.00     0.030 A 
HETATM   28  C   UNL     1      45.277 -10.748   8.266  1.00  0.00     0.002 A 
HETATM   29  C   UNL     1      46.042  -9.582   8.240  1.00  0.00     0.000 A 
HETATM   30  C   UNL     1      45.457  -8.354   8.546  1.00  0.00     0.002 A 
HETATM   31  C   UNL     1      44.102  -8.287   8.872  1.00  0.00     0.030 A 
ENDBRANCH  22  26
BRANCH  23  32
HETATM   32  C   UNL     1      42.066  -9.751  11.719  1.00  0.00     0.315 C 
BRANCH  32  33
HETATM   33  N   UNL     1      41.733  -8.612  12.659  1.00  0.00    -0.064 N 
HETATM   34  H   UNL     1      40.797  -8.291  12.357  1.00  0.00     0.280 HD
HETATM   35  C   UNL     1      42.651  -7.411  12.534  1.00  0.00     0.235 C 
HETATM   36  C   UNL     1      43.260  -7.260  13.915  1.00  0.00     0.029 C 
HETATM   37  C   UNL     1      42.170  -7.765  14.837  1.00  0.00     0.029 C 
HETATM   38  C   UNL     1      41.661  -8.995  14.113  1.00  0.00     0.235 C 
ENDBRANCH  32  33
ENDBRANCH  23  32
ENDBRANCH  20  21
ENDBRANCH   1  20
TORSDOF 9
ENDMDL
MODEL 2
REMARK VINA RESULT:      -9.1      1.747      3.121
REMARK  9 active torsions:
REMARK  status: ('A' for Active; 'I' for Inactive)
REMARK    1  A    between atoms: C_6  and  N_7 
REMARK       I    between atoms: N_7  and  C_8 
REMARK    2  A    between atoms: C_8  and  C_9 
REMARK    3  A    between atoms: C_9  and  N_10 
REMARK       I    between atoms: N_10  and  C_11 
REMARK    4  A    between atoms: C_11  and  C_12 
REMARK    5  A    between atoms: C_12  and  S_13 
REMARK    6  A    between atoms: S_13  and  C_14 
REMARK    7  A    between atoms: N_15  and  C_16 
REMARK    8  A    between atoms: C_22  and  C_23 
REMARK    9  A    between atoms: C_23  and  N_24 
ROOT
HETATM    1  C   UNL     1      45.601 -11.260   7.113  1.00  0.00     0.185 C 
ENDROOT
BRANCH   1   2
HETATM    2  C   UNL     1      44.513 -11.506   6.081  1.00  0.00     0.227 C 
HETATM    3  N   UNL     1      43.365 -12.082   6.578  1.00  0.00    -0.352 N 
HETATM    4  H   UNL     1      43.345 -12.425   7.532  1.00  0.00     0.162 HD
HETATM    5  O   UNL     1      44.651 -11.283   4.879  1.00  0.00    -0.273 OA
BRANCH   3   6
HETATM    6  C   UNL     1      42.199 -12.350   5.746  1.00  0.00     0.225 C 
BRANCH   6   7
HETATM    7  C   UNL     1      42.051 -13.823   5.336  1.00  0.00     0.239 C 
HETATM    8  N   UNL     1      43.154 -14.312   4.651  1.00  0.00    -0.325 N 
HETATM    9  H   UNL     1      43.729 -13.574   4.247  1.00  0.00     0.169 HD
HETATM   10  O   UNL     1      40.979 -14.404   5.479  1.00  0.00    -0.271 OA
BRANCH   8  11
HETATM   11  C   UNL     1      43.255 -15.598   4.070  1.00  0.00     0.046 A 
HETATM   12  C   UNL     1      42.993 -15.714   2.683  1.00  0.00    -0.034 A 
HETATM   13  C   UNL     1      43.038 -16.977   2.070  1.00  0.00     0.015 A 
HETATM   14  C   UNL     1      42.594 -14.529   1.843  1.00  0.00     0.050 C 
HETATM   15  C   UNL     1      43.340 -18.125   2.805  1.00  0.00    -0.061 A 
HETATM   16  C   UNL     1      43.373 -19.473   2.148  1.00  0.00     0.048 C 
HETATM   17  C   UNL     1      43.659 -17.993   4.157  1.00  0.00     0.015 A 
HETATM   18  C   UNL     1      43.645 -16.740   4.800  1.00  0.00    -0.034 A 
HETATM   19  C   UNL     1      44.082 -16.717   6.241  1.00  0.00     0.050 C 
ENDBRANCH   8  11
ENDBRANCH   6   7
ENDBRANCH   3   6
ENDBRANCH   1   2
BRANCH   1  20
HETATM   20  S   UNL     1      45.370  -9.623   7.864  1.00  0.00    -0.081 SA
BRANCH  20  21
HETATM   21  C   UNL     1      44.522 -10.040   9.317  1.00  0.00     0.196 A 
HETATM   22  N   UNL     1      43.461  -9.330   9.850  1.00  0.00    -0.274 N 
HETATM   23  C   UNL     1      43.219  -9.960  11.064  1.00  0.00     0.161 A 
HETATM   24  N   UNL     1      44.090 -10.932  11.250  1.00  0.00    -0.132 NA
HETATM   25  N   UNL     1      44.906 -10.973  10.160  1.00  0.00    -0.122 NA
BRANCH  22  26
HETATM   26  C   UNL     1      42.712  -8.264   9.300  1.00  0.00     0.043 A 
HETATM   27  C   UNL     1      41.629  -8.524   8.452  1.00  0.00     0.030 A 
HETATM   28  C   UNL     1      40.867  -7.465   7.959  1.00  0.00     0.002 A 
HETATM   29  C   UNL     1      41.187  -6.151   8.299  1.00  0.00     0.000 A 
HETATM   30  C   UNL     1      42.272  -5.889   9.135  1.00  0.00     0.002 A 
HETATM   31  C   UNL     1      43.035  -6.942   9.641  1.00  0.00     0.030 A 
ENDBRANCH  22  26
BRANCH  23  32
HETATM   32  C   UNL     1      42.049  -9.744  11.949  1.00  0.00     0.315 C 
BRANCH  32  33
HETATM   33  N   UNL     1      42.496  -9.182  13.282  1.00  0.00    -0.064 N 
HETATM   34  H   UNL     1      43.084  -9.927  13.694  1.00  0.00     0.280 HD
HETATM   35  C   UNL     1      41.368  -8.942  14.268  1.00  0.00     0.235 C 
HETATM   36  C   UNL     1      41.442  -7.457  14.567  1.00  0.00     0.029 C 
HETATM   37  C   UNL     1      42.918  -7.144  14.431  1.00  0.00     0.029 C 
HETATM   38  C   UNL     1      43.314  -7.921  13.192  1.00  0.00     0.235 C 
ENDBRANCH  32  33
ENDBRANCH  23  32
ENDBRANCH  20  21
ENDBRANCH   1  20
TORSDOF 9
ENDMDL
MODEL 3
REMARK VINA RESULT:      -9.0      5.139      9.133
REMARK  9 active torsions:
REMARK  status: ('A' for Active; 'I' for Inactive)
REMARK    1  A    between atoms: C_6  and  N_7 
REMARK       I    between atoms: N_7  and  C_8 
REMARK    2  A    between atoms: C_8  and  C_9 
REMARK    3  A    between atoms: C_9  and  N_10 
REMARK       I    between atoms: N_10  and  C_11 
REMARK    4  A    between atoms: C_11  and  C_12 
REMARK    5  A    between atoms: C_12  and  S_13 
REMARK    6  A    between atoms: S_13  and  C_14 
REMARK    7  A    between atoms: N_15  and  C_16 
REMARK    8  A    between atoms: C_22  and  C_23 
REMARK    9  A    between atoms: C_23  and  N_24 
ROOT
HETATM    1  C   UNL     1      39.291 -11.481   4.168  1.00  0.00     0.185 C 
ENDROOT
BRANCH   1   2
HETATM    2  C   UNL     1      39.847 -12.409   5.235  1.00  0.00     0.227 C 
HETATM    3  N   UNL     1      41.186 -12.701   5.105  1.00  0.00    -0.352 N 
HETATM    4  H   UNL     1      41.688 -12.411   4.273  1.00  0.00     0.162 HD
HETATM    5  O   UNL     1      39.158 -12.931   6.111  1.00  0.00    -0.273 OA
BRANCH   3   6
HETATM    6  C   UNL     1      41.902 -13.537   6.060  1.00  0.00     0.225 C 
BRANCH   6   7
HETATM    7  C   UNL     1      41.975 -15.018   5.660  1.00  0.00     0.239 C 
HETATM    8  N   UNL     1      42.811 -15.251   4.577  1.00  0.00    -0.325 N 
HETATM    9  H   UNL     1      42.983 -14.413   4.023  1.00  0.00     0.169 HD
HETATM   10  O   UNL     1      41.221 -15.840   6.174  1.00  0.00    -0.271 OA
BRANCH   8  11
HETATM   11  C   UNL     1      42.993 -16.498   3.933  1.00  0.00     0.046 A 
HETATM   12  C   UNL     1      43.944 -17.389   4.488  1.00  0.00    -0.034 A 
HETATM   13  C   UNL     1      44.191 -18.621   3.859  1.00  0.00     0.015 A 
HETATM   14  C   UNL     1      44.761 -17.033   5.702  1.00  0.00     0.050 C 
HETATM   15  C   UNL     1      43.514 -18.985   2.694  1.00  0.00    -0.061 A 
HETATM   16  C   UNL     1      43.792 -20.295   2.019  1.00  0.00     0.048 C 
HETATM   17  C   UNL     1      42.533 -18.128   2.191  1.00  0.00     0.015 A 
HETATM   18  C   UNL     1      42.243 -16.896   2.807  1.00  0.00    -0.034 A 
HETATM   19  C   UNL     1      41.113 -16.096   2.215  1.00  0.00     0.050 C 
ENDBRANCH   8  11
ENDBRANCH   6   7
ENDBRANCH   3   6
ENDBRANCH   1   2
BRANCH   1  20
HETATM   20  S   UNL     1      39.113 -12.389   2.604  1.00  0.00    -0.081 SA
BRANCH  20  21
HETATM   21  C   UNL     1      40.154 -11.470   1.567  1.00  0.00     0.196 A 
HETATM   22  N   UNL     1      40.277 -11.652   0.201  1.00  0.00    -0.274 N 
HETATM   23  C   UNL     1      41.311 -10.796  -0.154  1.00  0.00     0.161 A 
HETATM   24  N   UNL     1      41.785 -10.191   0.917  1.00  0.00    -0.132 NA
HETATM   25  N   UNL     1      41.064 -10.621   1.990  1.00  0.00    -0.122 NA
BRANCH  22  26
HETATM   26  C   UNL     1      39.509 -12.444  -0.684  1.00  0.00     0.043 A 
HETATM   27  C   UNL     1      38.348 -11.927  -1.268  1.00  0.00     0.030 A 
HETATM   28  C   UNL     1      37.629 -12.702  -2.180  1.00  0.00     0.002 A 
HETATM   29  C   UNL     1      38.058 -13.989  -2.500  1.00  0.00     0.000 A 
HETATM   30  C   UNL     1      39.210 -14.510  -1.911  1.00  0.00     0.002 A 
HETATM   31  C   UNL     1      39.940 -13.741  -1.005  1.00  0.00     0.030 A 
ENDBRANCH  22  26
BRANCH  23  32
HETATM   32  C   UNL     1      41.715 -10.430  -1.534  1.00  0.00     0.315 C 
BRANCH  32  33
HETATM   33  N   UNL     1      41.655  -8.928  -1.717  1.00  0.00    -0.064 N 
HETATM   34  H   UNL     1      41.033  -8.598  -0.959  1.00  0.00     0.280 HD
HETATM   35  C   UNL     1      41.007  -8.484  -3.015  1.00  0.00     0.235 C 
HETATM   36  C   UNL     1      42.087  -7.683  -3.717  1.00  0.00     0.029 C 
HETATM   37  C   UNL     1      42.873  -7.075  -2.573  1.00  0.00     0.029 C 
HETATM   38  C   UNL     1      42.979  -8.224  -1.591  1.00  0.00     0.235 C 
ENDBRANCH  32  33
ENDBRANCH  23  32
ENDBRANCH  20  21
ENDBRANCH   1  20
TORSDOF 9
ENDMDL
MODEL 4
REMARK VINA RESULT:      -9.0      1.611      2.235
REMARK  9 active torsions:
REMARK  status: ('A' for Active; 'I' for Inactive)
REMARK    1  A    between atoms: C_6  and  N_7 
REMARK       I    between atoms: N_7  and  C_8 
REMARK    2  A    between atoms: C_8  and  C_9 
REMARK    3  A    between atoms: C_9  and  N_10 
REMARK       I    between atoms: N_10  and  C_11 
REMARK    4  A    between atoms: C_11  and  C_12 
REMARK    5  A    between atoms: C_12  and  S_13 
REMARK    6  A    between atoms: S_13  and  C_14 
REMARK    7  A    between atoms: N_15  and  C_16 
REMARK    8  A    between atoms: C_22  and  C_23 
REMARK    9  A    between atoms: C_23  and  N_24 
ROOT
HETATM    1  C   UNL     1      39.409  -9.145   6.055  1.00  0.00     0.185 C 
ENDROOT
BRANCH   1   2
HETATM    2  C   UNL     1      39.087 -10.621   6.215  1.00  0.00     0.227 C 
HETATM    3  N   UNL     1      39.652 -11.442   5.265  1.00  0.00    -0.352 N 
HETATM    4  H   UNL     1      40.121 -11.037   4.462  1.00  0.00     0.162 HD
HETATM    5  O   UNL     1      38.324 -11.063   7.074  1.00  0.00    -0.273 OA
BRANCH   3   6
HETATM    6  C   UNL     1      39.490 -12.890   5.283  1.00  0.00     0.225 C 
BRANCH   6   7
HETATM    7  C   UNL     1      40.659 -13.657   4.649  1.00  0.00     0.239 C 
HETATM    8  N   UNL     1      40.464 -15.031   4.628  1.00  0.00    -0.325 N 
HETATM    9  H   UNL     1      39.765 -15.341   5.302  1.00  0.00     0.169 HD
HETATM   10  O   UNL     1      41.702 -13.076   4.362  1.00  0.00    -0.271 OA
BRANCH   8  11
HETATM   11  C   UNL     1      41.411 -15.988   4.196  1.00  0.00     0.046 A 
HETATM   12  C   UNL     1      41.374 -16.379   2.835  1.00  0.00    -0.034 A 
HETATM   13  C   UNL     1      42.266 -17.359   2.368  1.00  0.00     0.015 A 
HETATM   14  C   UNL     1      40.355 -15.828   1.872  1.00  0.00     0.050 C 
HETATM   15  C   UNL     1      43.194 -17.956   3.224  1.00  0.00    -0.061 A 
HETATM   16  C   UNL     1      44.134 -19.012   2.724  1.00  0.00     0.048 C 
HETATM   17  C   UNL     1      43.265 -17.519   4.547  1.00  0.00     0.015 A 
HETATM   18  C   UNL     1      42.403 -16.524   5.044  1.00  0.00    -0.034 A 
HETATM   19  C   UNL     1      42.629 -16.084   6.466  1.00  0.00     0.050 C 
ENDBRANCH   8  11
ENDBRANCH   6   7
ENDBRANCH   3   6
ENDBRANCH   1   2
BRANCH   1  20
HETATM   20  S   UNL     1      41.167  -8.863   6.414  1.00  0.00    -0.081 SA
BRANCH  20  21
HETATM   21  C   UNL     1      41.165  -8.913   8.147  1.00  0.00     0.196 A 
HETATM   22  N   UNL     1      42.222  -9.337   8.931  1.00  0.00    -0.274 N 
HETATM   23  C   UNL     1      41.701  -9.330  10.218  1.00  0.00     0.161 A 
HETATM   24  N   UNL     1      40.433  -8.971  10.191  1.00  0.00    -0.132 NA
HETATM   25  N   UNL     1      40.101  -8.720   8.894  1.00  0.00    -0.122 NA
BRANCH  22  26
HETATM   26  C   UNL     1      43.556  -9.641   8.573  1.00  0.00     0.043 A 
HETATM   27  C   UNL     1      43.888 -10.914   8.097  1.00  0.00     0.030 A 
HETATM   28  C   UNL     1      45.198 -11.183   7.698  1.00  0.00     0.002 A 
HETATM   29  C   UNL     1      46.175 -10.192   7.782  1.00  0.00     0.000 A 
HETATM   30  C   UNL     1      45.849  -8.925   8.265  1.00  0.00     0.002 A 
HETATM   31  C   UNL     1      44.541  -8.644   8.659  1.00  0.00     0.030 A 
ENDBRANCH  22  26
BRANCH  23  32
HETATM   32  C   UNL     1      42.468  -9.490  11.479  1.00  0.00     0.315 C 
BRANCH  32  33
HETATM   33  N   UNL     1      41.929  -8.558  12.543  1.00  0.00    -0.064 N 
HETATM   34  H   UNL     1      40.972  -8.328  12.226  1.00  0.00     0.280 HD
HETATM   35  C   UNL     1      42.667  -7.236  12.646  1.00  0.00     0.235 C 
HETATM   36  C   UNL     1      43.184  -7.207  14.072  1.00  0.00     0.029 C 
HETATM   37  C   UNL     1      42.137  -7.987  14.841  1.00  0.00     0.029 C 
HETATM   38  C   UNL     1      41.847  -9.156  13.921  1.00  0.00     0.235 C 
ENDBRANCH  32  33
ENDBRANCH  23  32
ENDBRANCH  20  21
ENDBRANCH   1  20
TORSDOF 9
ENDMDL
MODEL 5
REMARK VINA RESULT:      -8.9      2.122     10.183
REMARK  9 active torsions:
REMARK  status: ('A' for Active; 'I' for Inactive)
REMARK    1  A    between atoms: C_6  and  N_7 
REMARK       I    between atoms: N_7  and  C_8 
REMARK    2  A    between atoms: C_8  and  C_9 
REMARK    3  A    between atoms: C_9  and  N_10 
REMARK       I    between atoms: N_10  and  C_11 
REMARK    4  A    between atoms: C_11  and  C_12 
REMARK    5  A    between atoms: C_12  and  S_13 
REMARK    6  A    between atoms: S_13  and  C_14 
REMARK    7  A    between atoms: N_15  and  C_16 
REMARK    8  A    between atoms: C_22  and  C_23 
REMARK    9  A    between atoms: C_23  and  N_24 
ROOT
HETATM    1  C   UNL     1      41.378 -12.192   5.240  1.00  0.00     0.185 C 
ENDROOT
BRANCH   1   2
HETATM    2  C   UNL     1      42.840 -12.058   5.632  1.00  0.00     0.227 C 
HETATM    3  N   UNL     1      43.060 -11.833   6.973  1.00  0.00    -0.352 N 
HETATM    4  H   UNL     1      42.278 -11.640   7.588  1.00  0.00     0.162 HD
HETATM    5  O   UNL     1      43.767 -12.071   4.822  1.00  0.00    -0.273 OA
BRANCH   3   6
HETATM    6  C   UNL     1      44.399 -11.722   7.539  1.00  0.00     0.225 C 
BRANCH   6   7
HETATM    7  C   UNL     1      44.534 -10.630   8.611  1.00  0.00     0.239 C 
HETATM    8  N   UNL     1      43.335 -10.334   9.244  1.00  0.00    -0.325 N 
HETATM    9  H   UNL     1      42.521 -10.627   8.706  1.00  0.00     0.169 HD
HETATM   10  O   UNL     1      45.583 -10.003   8.732  1.00  0.00    -0.271 OA
BRANCH   8  11
HETATM   11  C   UNL     1      43.142  -9.308  10.198  1.00  0.00     0.046 A 
HETATM   12  C   UNL     1      43.262  -9.654  11.566  1.00  0.00    -0.034 A 
HETATM   13  C   UNL     1      43.036  -8.678  12.552  1.00  0.00     0.015 A 
HETATM   14  C   UNL     1      43.558 -11.061  12.012  1.00  0.00     0.050 C 
HETATM   15  C   UNL     1      42.695  -7.369  12.206  1.00  0.00    -0.061 A 
HETATM   16  C   UNL     1      42.441  -6.335  13.263  1.00  0.00     0.048 C 
HETATM   17  C   UNL     1      42.641  -7.023  10.855  1.00  0.00     0.015 A 
HETATM   18  C   UNL     1      42.884  -7.968   9.841  1.00  0.00    -0.034 A 
HETATM   19  C   UNL     1      42.872  -7.455   8.425  1.00  0.00     0.050 C 
ENDBRANCH   8  11
ENDBRANCH   6   7
ENDBRANCH   3   6
ENDBRANCH   1   2
BRANCH   1  20
HETATM   20  S   UNL     1      40.618 -13.548   6.180  1.00  0.00    -0.081 SA
BRANCH  20  21
HETATM   21  C   UNL     1      41.926 -14.684   6.242  1.00  0.00     0.196 A 
HETATM   22  N   UNL     1      42.342 -15.477   5.187  1.00  0.00    -0.274 N 
HETATM   23  C   UNL     1      43.304 -16.301   5.754  1.00  0.00     0.161 A 
HETATM   24  N   UNL     1      43.419 -16.044   7.042  1.00  0.00    -0.132 NA
HETATM   25  N   UNL     1      42.550 -15.039   7.343  1.00  0.00    -0.122 NA
BRANCH  22  26
HETATM   26  C   UNL     1      41.968 -15.445   3.823  1.00  0.00     0.043 A 
HETATM   27  C   UNL     1      40.777 -16.045   3.403  1.00  0.00     0.030 A 
HETATM   28  C   UNL     1      40.395 -15.960   2.063  1.00  0.00     0.002 A 
HETATM   29  C   UNL     1      41.202 -15.289   1.144  1.00  0.00     0.000 A 
HETATM   30  C   UNL     1      42.395 -14.700   1.559  1.00  0.00     0.002 A 
HETATM   31  C   UNL     1      42.781 -14.771   2.898  1.00  0.00     0.030 A 
ENDBRANCH  22  26
BRANCH  23  32
HETATM   32  C   UNL     1      44.233 -17.200   5.024  1.00  0.00     0.315 C 
BRANCH  32  33
HETATM   33  N   UNL     1      43.550 -18.514   4.709  1.00  0.00    -0.064 N 
HETATM   34  H   UNL     1      42.552 -18.268   4.598  1.00  0.00     0.280 HD
HETATM   35  C   UNL     1      43.611 -19.533   5.832  1.00  0.00     0.235 C 
HETATM   36  C   UNL     1      44.327 -20.721   5.220  1.00  0.00     0.029 C 
HETATM   37  C   UNL     1      43.925 -20.661   3.760  1.00  0.00     0.029 C 
HETATM   38  C   UNL     1      44.023 -19.182   3.446  1.00  0.00     0.235 C 
ENDBRANCH  32  33
ENDBRANCH  23  32
ENDBRANCH  20  21
ENDBRANCH   1  20
TORSDOF 9
ENDMDL
MODEL 6
REMARK VINA RESULT:      -8.9      5.431      9.280
REMARK  9 active torsions:
REMARK  status: ('A' for Active; 'I' for Inactive)
REMARK    1  A    between atoms: C_6  and  N_7 
REMARK       I    between atoms: N_7  and  C_8 
REMARK    2  A    between atoms: C_8  and  C_9 
REMARK    3  A    between atoms: C_9  and  N_10 
REMARK       I    between atoms: N_10  and  C_11 
REMARK    4  A    between atoms: C_11  and  C_12 
REMARK    5  A    between atoms: C_12  and  S_13 
REMARK    6  A    between atoms: S_13  and  C_14 
REMARK    7  A    between atoms: N_15  and  C_16 
REMARK    8  A    between atoms: C_22  and  C_23 
REMARK    9  A    between atoms: C_23  and  N_24 
ROOT
HETATM    1  C   UNL     1      38.982 -11.400   3.880  1.00  0.00     0.185 C 
ENDROOT
BRANCH   1   2
HETATM    2  C   UNL     1      39.430 -12.156   5.119  1.00  0.00     0.227 C 
HETATM    3  N   UNL     1      40.468 -13.038   4.914  1.00  0.00    -0.352 N 
HETATM    4  H   UNL     1      40.782 -13.236   3.971  1.00  0.00     0.162 HD
HETATM    5  O   UNL     1      38.877 -12.059   6.214  1.00  0.00    -0.273 OA
BRANCH   3   6
HETATM    6  C   UNL     1      41.059 -13.817   5.994  1.00  0.00     0.225 C 
BRANCH   6   7
HETATM    7  C   UNL     1      41.393 -15.265   5.608  1.00  0.00     0.239 C 
HETATM    8  N   UNL     1      42.324 -15.356   4.583  1.00  0.00    -0.325 N 
HETATM    9  H   UNL     1      42.397 -14.499   4.037  1.00  0.00     0.169 HD
HETATM   10  O   UNL     1      40.748 -16.199   6.076  1.00  0.00    -0.271 OA
BRANCH   8  11
HETATM   11  C   UNL     1      42.745 -16.555   3.960  1.00  0.00     0.046 A 
HETATM   12  C   UNL     1      42.127 -16.909   2.736  1.00  0.00    -0.034 A 
HETATM   13  C   UNL     1      42.480 -18.113   2.102  1.00  0.00     0.015 A 
HETATM   14  C   UNL     1      41.042 -16.069   2.115  1.00  0.00     0.050 C 
HETATM   15  C   UNL     1      43.434 -18.968   2.657  1.00  0.00    -0.061 A 
HETATM   16  C   UNL     1      43.797 -20.258   1.983  1.00  0.00     0.048 C 
HETATM   17  C   UNL     1      44.082 -18.580   3.831  1.00  0.00     0.015 A 
HETATM   18  C   UNL     1      43.770 -17.371   4.481  1.00  0.00    -0.034 A 
HETATM   19  C   UNL     1      44.592 -17.028   5.696  1.00  0.00     0.050 C 
ENDBRANCH   8  11
ENDBRANCH   6   7
ENDBRANCH   3   6
ENDBRANCH   1   2
BRANCH   1  20
HETATM   20  S   UNL     1      39.135 -12.474   2.423  1.00  0.00    -0.081 SA
BRANCH  20  21
HETATM   21  C   UNL     1      40.177 -11.523   1.417  1.00  0.00     0.196 A 
HETATM   22  N   UNL     1      40.301 -11.660   0.046  1.00  0.00    -0.274 N 
HETATM   23  C   UNL     1      41.335 -10.794  -0.280  1.00  0.00     0.161 A 
HETATM   24  N   UNL     1      41.810 -10.225   0.810  1.00  0.00    -0.132 NA
HETATM   25  N   UNL     1      41.088 -10.689   1.868  1.00  0.00    -0.122 NA
BRANCH  22  26
HETATM   26  C   UNL     1      39.532 -12.422  -0.865  1.00  0.00     0.043 A 
HETATM   27  C   UNL     1      39.938 -13.710  -1.227  1.00  0.00     0.030 A 
HETATM   28  C   UNL     1      39.143 -14.470  -2.086  1.00  0.00     0.002 A 
HETATM   29  C   UNL     1      37.953 -13.945  -2.590  1.00  0.00     0.000 A 
HETATM   30  C   UNL     1      37.552 -12.657  -2.239  1.00  0.00     0.002 A 
HETATM   31  C   UNL     1      38.336 -11.892  -1.375  1.00  0.00     0.030 A 
ENDBRANCH  22  26
BRANCH  23  32
HETATM   32  C   UNL     1      41.741 -10.382  -1.648  1.00  0.00     0.315 C 
BRANCH  32  33
HETATM   33  N   UNL     1      41.651  -8.878  -1.790  1.00  0.00    -0.064 N 
HETATM   34  H   UNL     1      41.001  -8.583  -1.042  1.00  0.00     0.280 HD
HETATM   35  C   UNL     1      41.031  -8.412  -3.094  1.00  0.00     0.235 C 
HETATM   36  C   UNL     1      42.112  -7.568  -3.742  1.00  0.00     0.029 C 
HETATM   37  C   UNL     1      42.851  -6.975  -2.560  1.00  0.00     0.029 C 
HETATM   38  C   UNL     1      42.955  -8.149  -1.607  1.00  0.00     0.235 C 
ENDBRANCH  32  33
ENDBRANCH  23  32
ENDBRANCH  20  21
ENDBRANCH   1  20
TORSDOF 9
ENDMDL
MODEL 7
REMARK VINA RESULT:      -8.6      2.275      3.927
REMARK  9 active torsions:
REMARK  status: ('A' for Active; 'I' for Inactive)
REMARK    1  A    between atoms: C_6  and  N_7 
REMARK       I    between atoms: N_7  and  C_8 
REMARK    2  A    between atoms: C_8  and  C_9 
REMARK    3  A    between atoms: C_9  and  N_10 
REMARK       I    between atoms: N_10  and  C_11 
REMARK    4  A    between atoms: C_11  and  C_12 
REMARK    5  A    between atoms: C_12  and  S_13 
REMARK    6  A    between atoms: S_13  and  C_14 
REMARK    7  A    between atoms: N_15  and  C_16 
REMARK    8  A    between atoms: C_22  and  C_23 
REMARK    9  A    between atoms: C_23  and  N_24 
ROOT
HETATM    1  C   UNL     1      45.124 -10.993   7.695  1.00  0.00     0.185 C 
ENDROOT
BRANCH   1   2
HETATM    2  C   UNL     1      44.239 -11.403   6.530  1.00  0.00     0.227 C 
HETATM    3  N   UNL     1      43.035 -11.966   6.889  1.00  0.00    -0.352 N 
HETATM    4  H   UNL     1      42.855 -12.197   7.860  1.00  0.00     0.162 HD
HETATM    5  O   UNL     1      44.581 -11.317   5.350  1.00  0.00    -0.273 OA
BRANCH   3   6
HETATM    6  C   UNL     1      42.039 -12.380   5.908  1.00  0.00     0.225 C 
BRANCH   6   7
HETATM    7  C   UNL     1      42.044 -13.886   5.611  1.00  0.00     0.239 C 
HETATM    8  N   UNL     1      43.032 -14.262   4.712  1.00  0.00    -0.325 N 
HETATM    9  H   UNL     1      43.376 -13.483   4.153  1.00  0.00     0.169 HD
HETATM   10  O   UNL     1      41.139 -14.606   6.024  1.00  0.00    -0.271 OA
BRANCH   8  11
HETATM   11  C   UNL     1      43.209 -15.562   4.183  1.00  0.00     0.046 A 
HETATM   12  C   UNL     1      42.764 -15.798   2.859  1.00  0.00    -0.034 A 
HETATM   13  C   UNL     1      42.878 -17.084   2.306  1.00  0.00     0.015 A 
HETATM   14  C   UNL     1      42.100 -14.725   2.037  1.00  0.00     0.050 C 
HETATM   15  C   UNL     1      43.427 -18.138   3.039  1.00  0.00    -0.061 A 
HETATM   16  C   UNL     1      43.533 -19.513   2.448  1.00  0.00     0.048 C 
HETATM   17  C   UNL     1      43.920 -17.882   4.319  1.00  0.00     0.015 A 
HETATM   18  C   UNL     1      43.843 -16.601   4.897  1.00  0.00    -0.034 A 
HETATM   19  C   UNL     1      44.479 -16.433   6.251  1.00  0.00     0.050 C 
ENDBRANCH   8  11
ENDBRANCH   6   7
ENDBRANCH   3   6
ENDBRANCH   1   2
BRANCH   1  20
HETATM   20  S   UNL     1      44.110 -10.798   9.189  1.00  0.00    -0.081 SA
BRANCH  20  21
HETATM   21  C   UNL     1      43.933  -9.075   9.249  1.00  0.00     0.196 A 
HETATM   22  N   UNL     1      43.103  -8.390  10.118  1.00  0.00    -0.274 N 
HETATM   23  C   UNL     1      43.198  -7.071   9.695  1.00  0.00     0.161 A 
HETATM   24  N   UNL     1      43.984  -6.990   8.640  1.00  0.00    -0.132 NA
HETATM   25  N   UNL     1      44.434  -8.245   8.360  1.00  0.00    -0.122 NA
BRANCH  22  26
HETATM   26  C   UNL     1      42.374  -8.857  11.237  1.00  0.00     0.043 A 
HETATM   27  C   UNL     1      42.929  -8.792  12.520  1.00  0.00     0.030 A 
HETATM   28  C   UNL     1      42.178  -9.207  13.620  1.00  0.00     0.002 A 
HETATM   29  C   UNL     1      40.884  -9.695  13.443  1.00  0.00     0.000 A 
HETATM   30  C   UNL     1      40.333  -9.771  12.164  1.00  0.00     0.002 A 
HETATM   31  C   UNL     1      41.072  -9.350  11.059  1.00  0.00     0.030 A 
ENDBRANCH  22  26
BRANCH  23  32
HETATM   32  C   UNL     1      42.681  -5.878  10.410  1.00  0.00     0.315 C 
BRANCH  32  33
HETATM   33  N   UNL     1      41.211  -5.681  10.107  1.00  0.00    -0.064 N 
HETATM   34  H   UNL     1      40.959  -6.485   9.507  1.00  0.00     0.280 HD
HETATM   35  C   UNL     1      40.904  -4.437   9.294  1.00  0.00     0.235 C 
HETATM   36  C   UNL     1      39.968  -3.635  10.177  1.00  0.00     0.029 C 
HETATM   37  C   UNL     1      39.218  -4.699  10.954  1.00  0.00     0.029 C 
HETATM   38  C   UNL     1      40.312  -5.684  11.314  1.00  0.00     0.235 C 
ENDBRANCH  32  33
ENDBRANCH  23  32
ENDBRANCH  20  21
ENDBRANCH   1  20
TORSDOF 9
ENDMDL
MODEL 8
REMARK VINA RESULT:      -8.6      2.176      3.531
REMARK  9 active torsions:
REMARK  status: ('A' for Active; 'I' for Inactive)
REMARK    1  A    between atoms: C_6  and  N_7 
REMARK       I    between atoms: N_7  and  C_8 
REMARK    2  A    between atoms: C_8  and  C_9 
REMARK    3  A    between atoms: C_9  and  N_10 
REMARK       I    between atoms: N_10  and  C_11 
REMARK    4  A    between atoms: C_11  and  C_12 
REMARK    5  A    between atoms: C_12  and  S_13 
REMARK    6  A    between atoms: S_13  and  C_14 
REMARK    7  A    between atoms: N_15  and  C_16 
REMARK    8  A    between atoms: C_22  and  C_23 
REMARK    9  A    between atoms: C_23  and  N_24 
ROOT
HETATM    1  C   UNL     1      44.483 -10.741   7.611  1.00  0.00     0.185 C 
ENDROOT
BRANCH   1   2
HETATM    2  C   UNL     1      43.217 -11.034   6.823  1.00  0.00     0.227 C 
HETATM    3  N   UNL     1      42.924 -12.372   6.678  1.00  0.00    -0.352 N 
HETATM    4  H   UNL     1      43.598 -13.071   6.968  1.00  0.00     0.162 HD
HETATM    5  O   UNL     1      42.532 -10.164   6.285  1.00  0.00    -0.273 OA
BRANCH   3   6
HETATM    6  C   UNL     1      41.728 -12.842   5.991  1.00  0.00     0.225 C 
BRANCH   6   7
HETATM    7  C   UNL     1      41.759 -14.336   5.635  1.00  0.00     0.239 C 
HETATM    8  N   UNL     1      42.765 -14.663   4.738  1.00  0.00    -0.325 N 
HETATM    9  H   UNL     1      43.106 -13.858   4.215  1.00  0.00     0.169 HD
HETATM   10  O   UNL     1      40.858 -15.083   6.007  1.00  0.00    -0.271 OA
BRANCH   8  11
HETATM   11  C   UNL     1      42.968 -15.939   4.162  1.00  0.00     0.046 A 
HETATM   12  C   UNL     1      43.829 -16.836   4.841  1.00  0.00    -0.034 A 
HETATM   13  C   UNL     1      44.096 -18.098   4.284  1.00  0.00     0.015 A 
HETATM   14  C   UNL     1      44.532 -16.457   6.117  1.00  0.00     0.050 C 
HETATM   15  C   UNL     1      43.525 -18.487   3.071  1.00  0.00    -0.061 A 
HETATM   16  C   UNL     1      43.825 -19.830   2.475  1.00  0.00     0.048 C 
HETATM   17  C   UNL     1      42.629 -17.622   2.442  1.00  0.00     0.015 A 
HETATM   18  C   UNL     1      42.321 -16.358   2.981  1.00  0.00    -0.034 A 
HETATM   19  C   UNL     1      41.283 -15.548   2.250  1.00  0.00     0.050 C 
ENDBRANCH   8  11
ENDBRANCH   6   7
ENDBRANCH   3   6
ENDBRANCH   1   2
BRANCH   1  20
HETATM   20  S   UNL     1      44.060 -10.444   9.353  1.00  0.00    -0.081 SA
BRANCH  20  21
HETATM   21  C   UNL     1      43.596  -8.775   9.302  1.00  0.00     0.196 A 
HETATM   22  N   UNL     1      42.612  -8.199  10.085  1.00  0.00    -0.274 N 
HETATM   23  C   UNL     1      42.513  -6.905   9.591  1.00  0.00     0.161 A 
HETATM   24  N   UNL     1      43.339  -6.743   8.577  1.00  0.00    -0.132 NA
HETATM   25  N   UNL     1      44.008  -7.916   8.395  1.00  0.00    -0.122 NA
BRANCH  22  26
HETATM   26  C   UNL     1      41.901  -8.728  11.187  1.00  0.00     0.043 A 
HETATM   27  C   UNL     1      40.650  -9.325  11.001  1.00  0.00     0.030 A 
HETATM   28  C   UNL     1      39.984  -9.889  12.090  1.00  0.00     0.002 A 
HETATM   29  C   UNL     1      40.557  -9.849  13.361  1.00  0.00     0.000 A 
HETATM   30  C   UNL     1      41.799  -9.245  13.551  1.00  0.00     0.002 A 
HETATM   31  C   UNL     1      42.477  -8.686  12.467  1.00  0.00     0.030 A 
ENDBRANCH  22  26
BRANCH  23  32
HETATM   32  C   UNL     1      41.761  -5.783  10.207  1.00  0.00     0.315 C 
BRANCH  32  33
HETATM   33  N   UNL     1      42.668  -4.983  11.117  1.00  0.00    -0.064 N 
HETATM   34  H   UNL     1      43.569  -5.489  11.098  1.00  0.00     0.280 HD
HETATM   35  C   UNL     1      42.229  -4.961  12.570  1.00  0.00     0.235 C 
HETATM   36  C   UNL     1      42.020  -3.490  12.875  1.00  0.00     0.029 C 
HETATM   37  C   UNL     1      43.030  -2.798  11.983  1.00  0.00     0.029 C 
HETATM   38  C   UNL     1      42.905  -3.562  10.680  1.00  0.00     0.235 C 
ENDBRANCH  32  33
ENDBRANCH  23  32
ENDBRANCH  20  21
ENDBRANCH   1  20
TORSDOF 9
ENDMDL
MODEL 9
REMARK VINA RESULT:      -8.4      1.886      2.569
REMARK  9 active torsions:
REMARK  status: ('A' for Active; 'I' for Inactive)
REMARK    1  A    between atoms: C_6  and  N_7 
REMARK       I    between atoms: N_7  and  C_8 
REMARK    2  A    between atoms: C_8  and  C_9 
REMARK    3  A    between atoms: C_9  and  N_10 
REMARK       I    between atoms: N_10  and  C_11 
REMARK    4  A    between atoms: C_11  and  C_12 
REMARK    5  A    between atoms: C_12  and  S_13 
REMARK    6  A    between atoms: S_13  and  C_14 
REMARK    7  A    between atoms: N_15  and  C_16 
REMARK    8  A    between atoms: C_22  and  C_23 
REMARK    9  A    between atoms: C_23  and  N_24 
ROOT
HETATM    1  C   UNL     1      39.689  -8.259   5.717  1.00  0.00     0.185 C 
ENDROOT
BRANCH   1   2
HETATM    2  C   UNL     1      39.008  -9.513   5.195  1.00  0.00     0.227 C 
HETATM    3  N   UNL     1      39.625 -10.096   4.112  1.00  0.00    -0.352 N 
HETATM    4  H   UNL     1      40.389  -9.618   3.647  1.00  0.00     0.162 HD
HETATM    5  O   UNL     1      37.947  -9.949   5.642  1.00  0.00    -0.273 OA
BRANCH   3   6
HETATM    6  C   UNL     1      39.141 -11.329   3.504  1.00  0.00     0.225 C 
BRANCH   6   7
HETATM    7  C   UNL     1      39.817 -12.599   4.043  1.00  0.00     0.239 C 
HETATM    8  N   UNL     1      40.732 -13.148   3.157  1.00  0.00    -0.325 N 
HETATM    9  H   UNL     1      40.586 -12.841   2.196  1.00  0.00     0.169 HD
HETATM   10  O   UNL     1      39.426 -13.118   5.085  1.00  0.00    -0.271 OA
BRANCH   8  11
HETATM   11  C   UNL     1      41.428 -14.365   3.345  1.00  0.00     0.046 A 
HETATM   12  C   UNL     1      42.555 -14.350   4.204  1.00  0.00    -0.034 A 
HETATM   13  C   UNL     1      43.304 -15.525   4.388  1.00  0.00     0.015 A 
HETATM   14  C   UNL     1      43.027 -13.091   4.881  1.00  0.00     0.050 C 
HETATM   15  C   UNL     1      42.957 -16.711   3.739  1.00  0.00    -0.061 A 
HETATM   16  C   UNL     1      43.768 -17.958   3.928  1.00  0.00     0.048 C 
HETATM   17  C   UNL     1      41.809 -16.732   2.945  1.00  0.00     0.015 A 
HETATM   18  C   UNL     1      41.021 -15.580   2.756  1.00  0.00    -0.034 A 
HETATM   19  C   UNL     1      39.766 -15.749   1.941  1.00  0.00     0.050 C 
ENDBRANCH   8  11
ENDBRANCH   6   7
ENDBRANCH   3   6
ENDBRANCH   1   2
BRANCH   1  20
HETATM   20  S   UNL     1      41.414  -8.635   6.143  1.00  0.00    -0.081 SA
BRANCH  20  21
HETATM   21  C   UNL     1      41.306  -8.793   7.865  1.00  0.00     0.196 A 
HETATM   22  N   UNL     1      42.290  -9.326   8.678  1.00  0.00    -0.274 N 
HETATM   23  C   UNL     1      41.694  -9.367   9.932  1.00  0.00     0.161 A 
HETATM   24  N   UNL     1      40.452  -8.934   9.857  1.00  0.00    -0.132 NA
HETATM   25  N   UNL     1      40.211  -8.583   8.563  1.00  0.00    -0.122 NA
BRANCH  22  26
HETATM   26  C   UNL     1      43.624  -9.684   8.376  1.00  0.00     0.043 A 
HETATM   27  C   UNL     1      43.918 -10.960   7.883  1.00  0.00     0.030 A 
HETATM   28  C   UNL     1      45.232 -11.282   7.539  1.00  0.00     0.002 A 
HETATM   29  C   UNL     1      46.250 -10.342   7.696  1.00  0.00     0.000 A 
HETATM   30  C   UNL     1      45.960  -9.074   8.198  1.00  0.00     0.002 A 
HETATM   31  C   UNL     1      44.649  -8.739   8.536  1.00  0.00     0.030 A 
ENDBRANCH  22  26
BRANCH  23  32
HETATM   32  C   UNL     1      42.375  -9.651  11.220  1.00  0.00     0.315 C 
BRANCH  32  33
HETATM   33  N   UNL     1      41.879  -8.705  12.293  1.00  0.00    -0.064 N 
HETATM   34  H   UNL     1      40.926  -8.442  11.989  1.00  0.00     0.280 HD
HETATM   35  C   UNL     1      42.662  -7.409  12.393  1.00  0.00     0.235 C 
HETATM   36  C   UNL     1      43.196  -7.403  13.813  1.00  0.00     0.029 C 
HETATM   37  C   UNL     1      42.133  -8.151  14.592  1.00  0.00     0.029 C 
HETATM   38  C   UNL     1      41.793  -9.306  13.671  1.00  0.00     0.235 C 
ENDBRANCH  32  33
ENDBRANCH  23  32
ENDBRANCH  20  21
ENDBRANCH   1  20
TORSDOF 9
ENDMDL
MODEL 10
REMARK VINA RESULT:      -8.3      5.241      9.204
REMARK  9 active torsions:
REMARK  status: ('A' for Active; 'I' for Inactive)
REMARK    1  A    between atoms: C_6  and  N_7 
REMARK       I    between atoms: N_7  and  C_8 
REMARK    2  A    between atoms: C_8  and  C_9 
REMARK    3  A    between atoms: C_9  and  N_10 
REMARK       I    between atoms: N_10  and  C_11 
REMARK    4  A    between atoms: C_11  and  C_12 
REMARK    5  A    between atoms: C_12  and  S_13 
REMARK    6  A    between atoms: S_13  and  C_14 
REMARK    7  A    between atoms: N_15  and  C_16 
REMARK    8  A    between atoms: C_22  and  C_23 
REMARK    9  A    between atoms: C_23  and  N_24 
ROOT
HETATM    1  C   UNL     1      39.595 -10.799   3.381  1.00  0.00     0.185 C 
ENDROOT
BRANCH   1   2
HETATM    2  C   UNL     1      40.126 -11.717   4.469  1.00  0.00     0.227 C 
HETATM    3  N   UNL     1      41.422 -12.142   4.284  1.00  0.00    -0.352 N 
HETATM    4  H   UNL     1      41.898 -11.947   3.411  1.00  0.00     0.162 HD
HETATM    5  O   UNL     1      39.445 -12.122   5.412  1.00  0.00    -0.273 OA
BRANCH   3   6
HETATM    6  C   UNL     1      42.114 -12.991   5.247  1.00  0.00     0.225 C 
BRANCH   6   7
HETATM    7  C   UNL     1      42.000 -14.493   4.948  1.00  0.00     0.239 C 
HETATM    8  N   UNL     1      43.117 -15.008   4.304  1.00  0.00    -0.325 N 
HETATM    9  H   UNL     1      43.676 -14.289   3.846  1.00  0.00     0.169 HD
HETATM   10  O   UNL     1      40.941 -15.087   5.132  1.00  0.00    -0.271 OA
BRANCH   8  11
HETATM   11  C   UNL     1      43.249 -16.331   3.822  1.00  0.00     0.046 A 
HETATM   12  C   UNL     1      43.847 -17.285   4.681  1.00  0.00    -0.034 A 
HETATM   13  C   UNL     1      44.040 -18.602   4.230  1.00  0.00     0.015 A 
HETATM   14  C   UNL     1      44.353 -16.921   6.052  1.00  0.00     0.050 C 
HETATM   15  C   UNL     1      43.650 -18.989   2.946  1.00  0.00    -0.061 A 
HETATM   16  C   UNL     1      43.871 -20.392   2.465  1.00  0.00     0.048 C 
HETATM   17  C   UNL     1      43.005 -18.059   2.130  1.00  0.00     0.015 A 
HETATM   18  C   UNL     1      42.775 -16.737   2.557  1.00  0.00    -0.034 A 
HETATM   19  C   UNL     1      42.002 -15.850   1.617  1.00  0.00     0.050 C 
ENDBRANCH   8  11
ENDBRANCH   6   7
ENDBRANCH   3   6
ENDBRANCH   1   2
BRANCH   1  20
HETATM   20  S   UNL     1      40.985 -10.094   2.448  1.00  0.00    -0.081 SA
BRANCH  20  21
HETATM   21  C   UNL     1      41.016 -11.133   1.061  1.00  0.00     0.196 A 
HETATM   22  N   UNL     1      41.033 -10.703  -0.254  1.00  0.00    -0.274 N 
HETATM   23  C   UNL     1      40.912 -11.877  -0.986  1.00  0.00     0.161 A 
HETATM   24  N   UNL     1      40.792 -12.907  -0.172  1.00  0.00    -0.132 NA
HETATM   25  N   UNL     1      40.850 -12.436   1.105  1.00  0.00    -0.122 NA
BRANCH  22  26
HETATM   26  C   UNL     1      41.210  -9.404  -0.784  1.00  0.00     0.043 A 
HETATM   27  C   UNL     1      40.109  -8.563  -0.977  1.00  0.00     0.030 A 
HETATM   28  C   UNL     1      40.304  -7.265  -1.451  1.00  0.00     0.002 A 
HETATM   29  C   UNL     1      41.590  -6.810  -1.742  1.00  0.00     0.000 A 
HETATM   30  C   UNL     1      42.688  -7.650  -1.560  1.00  0.00     0.002 A 
HETATM   31  C   UNL     1      42.504  -8.946  -1.078  1.00  0.00     0.030 A 
ENDBRANCH  22  26
BRANCH  23  32
HETATM   32  C   UNL     1      41.093 -12.022  -2.452  1.00  0.00     0.315 C 
BRANCH  32  33
HETATM   33  N   UNL     1      39.780 -12.391  -3.108  1.00  0.00    -0.064 N 
HETATM   34  H   UNL     1      39.923 -12.186  -4.111  1.00  0.00     0.280 HD
HETATM   35  C   UNL     1      38.602 -11.541  -2.668  1.00  0.00     0.235 C 
HETATM   36  C   UNL     1      37.623 -12.536  -2.076  1.00  0.00     0.029 C 
HETATM   37  C   UNL     1      37.877 -13.798  -2.875  1.00  0.00     0.029 C 
HETATM   38  C   UNL     1      39.390 -13.838  -2.966  1.00  0.00     0.235 C 
ENDBRANCH  32  33
ENDBRANCH  23  32
ENDBRANCH  20  21
ENDBRANCH   1  20
TORSDOF 9
ENDMDL
