MODEL 1
REMARK VINA RESULT:      -8.3      0.000      0.000
REMARK  4 active torsions:
REMARK  status: ('A' for Active; 'I' for Inactive)
REMARK    1  A    between atoms: C_4  and  N_5 
REMARK       I    between atoms: N_5  and  C_6 
REMARK       I    between atoms: C_6  and  N_7 
REMARK    2  A    between atoms: N_7  and  C_8 
REMARK    3  A    between atoms: C_8  and  C_9 
REMARK    4  A    between atoms: C_10  and  O_11 
ROOT
HETATM    1  N   UNL     1      40.095 -15.296   2.337  1.00  0.00    -0.307 N 
HETATM    2  C   UNL     1      41.028 -15.813   3.178  1.00  0.00     0.321 C 
HETATM    3  N   UNL     1      42.320 -15.819   2.743  1.00  0.00    -0.338 N 
HETATM    4  O   UNL     1      40.683 -16.286   4.258  1.00  0.00    -0.247 OA
HETATM    5  H   UNL     1      39.142 -15.544   2.602  1.00  0.00     0.170 HD
HETATM    6  H   UNL     1      42.397 -15.932   1.743  1.00  0.00     0.164 HD
ENDROOT
BRANCH   1   7
HETATM    7  C   UNL     1      40.159 -14.488   1.177  1.00  0.00     0.066 A 
HETATM    8  C   UNL     1      39.782 -14.931  -0.097  1.00  0.00     0.038 A 
HETATM    9  C   UNL     1      39.875 -14.080  -1.205  1.00  0.00    -0.059 A 
HETATM   10  C   UNL     1      39.435 -14.539  -2.564  1.00  0.00     0.048 C 
HETATM   11  C   UNL     1      40.352 -12.781  -1.023  1.00  0.00     0.020 A 
HETATM   12  C   UNL     1      40.770 -12.340   0.244  1.00  0.00    -0.005 A 
HETATM   13  C   UNL     1      40.687 -13.197   1.361  1.00  0.00     0.093 A 
HETATM   14  C   UNL     1      41.279 -11.048   0.433  1.00  0.00     0.015 A 
HETATM   15  N   UNL     1      41.091 -12.798   2.591  1.00  0.00    -0.258 NA
HETATM   16  C   UNL     1      41.579 -11.546   2.733  1.00  0.00     0.117 A 
HETATM   17  C   UNL     1      41.691 -10.642   1.696  1.00  0.00     0.020 A 
ENDBRANCH   1   7
BRANCH   3  18
HETATM   18  C   UNL     1      43.371 -16.451   3.521  1.00  0.00     0.167 C 
BRANCH  18  19
HETATM   19  C   UNL     1      43.461 -17.946   3.367  1.00  0.00     0.012 A 
HETATM   20  C   UNL     1      43.949 -18.725   4.420  1.00  0.00     0.171 A 
HETATM   21  N   UNL     1      44.098 -20.069   4.368  1.00  0.00    -0.237 NA
HETATM   22  C   UNL     1      43.767 -20.675   3.210  1.00  0.00     0.119 A 
HETATM   23  C   UNL     1      43.290 -20.002   2.101  1.00  0.00     0.020 A 
HETATM   24  C   UNL     1      43.139 -18.620   2.182  1.00  0.00     0.014 A 
BRANCH  20  25
HETATM   25  O   UNL     1      44.290 -18.062   5.584  1.00  0.00    -0.339 OA
HETATM   26  C   UNL     1      43.330 -18.219   6.625  1.00  0.00     0.211 C 
ENDBRANCH  20  25
ENDBRANCH  18  19
ENDBRANCH   3  18
TORSDOF 4
ENDMDL
MODEL 2
REMARK VINA RESULT:      -8.1      4.101      7.316
REMARK  4 active torsions:
REMARK  status: ('A' for Active; 'I' for Inactive)
REMARK    1  A    between atoms: C_4  and  N_5 
REMARK       I    between atoms: N_5  and  C_6 
REMARK       I    between atoms: C_6  and  N_7 
REMARK    2  A    between atoms: N_7  and  C_8 
REMARK    3  A    between atoms: C_8  and  C_9 
REMARK    4  A    between atoms: C_10  and  O_11 
ROOT
HETATM    1  N   UNL     1      42.596 -15.741   6.273  1.00  0.00    -0.307 N 
HETATM    2  C   UNL     1      43.179 -14.704   6.929  1.00  0.00     0.321 C 
HETATM    3  N   UNL     1      43.762 -13.737   6.167  1.00  0.00    -0.338 N 
HETATM    4  O   UNL     1      43.199 -14.691   8.158  1.00  0.00    -0.247 OA
HETATM    5  H   UNL     1      42.406 -16.537   6.881  1.00  0.00     0.170 HD
HETATM    6  H   UNL     1      44.150 -14.095   5.307  1.00  0.00     0.164 HD
ENDROOT
BRANCH   1   7
HETATM    7  C   UNL     1      42.195 -15.954   4.933  1.00  0.00     0.066 A 
HETATM    8  C   UNL     1      41.207 -15.196   4.291  1.00  0.00     0.038 A 
HETATM    9  C   UNL     1      40.854 -15.462   2.963  1.00  0.00    -0.059 A 
HETATM   10  C   UNL     1      39.824 -14.627   2.261  1.00  0.00     0.048 C 
HETATM   11  C   UNL     1      41.501 -16.497   2.285  1.00  0.00     0.020 A 
HETATM   12  C   UNL     1      42.465 -17.288   2.932  1.00  0.00    -0.005 A 
HETATM   13  C   UNL     1      42.817 -17.029   4.274  1.00  0.00     0.093 A 
HETATM   14  C   UNL     1      43.098 -18.348   2.271  1.00  0.00     0.015 A 
HETATM   15  N   UNL     1      43.737 -17.783   4.921  1.00  0.00    -0.258 NA
HETATM   16  C   UNL     1      44.324 -18.799   4.251  1.00  0.00     0.117 A 
HETATM   17  C   UNL     1      44.043 -19.118   2.938  1.00  0.00     0.020 A 
ENDBRANCH   1   7
BRANCH   3  18
HETATM   18  C   UNL     1      44.507 -12.648   6.776  1.00  0.00     0.167 C 
BRANCH  18  19
HETATM   19  C   UNL     1      43.721 -11.380   6.979  1.00  0.00     0.012 A 
HETATM   20  C   UNL     1      43.927 -10.611   8.129  1.00  0.00     0.171 A 
HETATM   21  N   UNL     1      43.251  -9.475   8.417  1.00  0.00    -0.237 NA
HETATM   22  C   UNL     1      42.306  -9.088   7.537  1.00  0.00     0.119 A 
HETATM   23  C   UNL     1      42.008  -9.779   6.378  1.00  0.00     0.020 A 
HETATM   24  C   UNL     1      42.723 -10.941   6.100  1.00  0.00     0.014 A 
BRANCH  20  25
HETATM   25  O   UNL     1      44.896 -11.053   9.012  1.00  0.00    -0.339 OA
HETATM   26  C   UNL     1      45.254 -10.080   9.989  1.00  0.00     0.211 C 
ENDBRANCH  20  25
ENDBRANCH  18  19
ENDBRANCH   3  18
TORSDOF 4
ENDMDL
MODEL 3
REMARK VINA RESULT:      -8.1      3.396      6.166
REMARK  4 active torsions:
REMARK  status: ('A' for Active; 'I' for Inactive)
REMARK    1  A    between atoms: C_4  and  N_5 
REMARK       I    between atoms: N_5  and  C_6 
REMARK       I    between atoms: C_6  and  N_7 
REMARK    2  A    between atoms: N_7  and  C_8 
REMARK    3  A    between atoms: C_8  and  C_9 
REMARK    4  A    between atoms: C_10  and  O_11 
ROOT
HETATM    1  N   UNL     1      39.904 -14.192   4.788  1.00  0.00    -0.307 N 
HETATM    2  C   UNL     1      40.157 -13.112   5.573  1.00  0.00     0.321 C 
HETATM    3  N   UNL     1      41.280 -12.392   5.295  1.00  0.00    -0.338 N 
HETATM    4  O   UNL     1      39.407 -12.848   6.510  1.00  0.00    -0.247 OA
HETATM    5  H   UNL     1      39.209 -14.819   5.191  1.00  0.00     0.170 HD
HETATM    6  H   UNL     1      42.030 -12.960   4.931  1.00  0.00     0.164 HD
ENDROOT
BRANCH   1   7
HETATM    7  C   UNL     1      40.395 -14.630   3.535  1.00  0.00     0.066 A 
HETATM    8  C   UNL     1      39.891 -14.184   2.307  1.00  0.00     0.038 A 
HETATM    9  C   UNL     1      40.418 -14.662   1.102  1.00  0.00    -0.059 A 
HETATM   10  C   UNL     1      39.908 -14.157  -0.214  1.00  0.00     0.048 C 
HETATM   11  C   UNL     1      41.457 -15.596   1.141  1.00  0.00     0.020 A 
HETATM   12  C   UNL     1      41.942 -16.079   2.368  1.00  0.00    -0.005 A 
HETATM   13  C   UNL     1      41.406 -15.606   3.584  1.00  0.00     0.093 A 
HETATM   14  C   UNL     1      42.962 -17.038   2.419  1.00  0.00     0.015 A 
HETATM   15  N   UNL     1      41.852 -16.064   4.779  1.00  0.00    -0.258 NA
HETATM   16  C   UNL     1      42.835 -16.990   4.787  1.00  0.00     0.117 A 
HETATM   17  C   UNL     1      43.418 -17.504   3.646  1.00  0.00     0.020 A 
ENDBRANCH   1   7
BRANCH   3  18
HETATM   18  C   UNL     1      41.695 -11.290   6.145  1.00  0.00     0.167 C 
BRANCH  18  19
HETATM   19  C   UNL     1      43.177 -11.206   6.396  1.00  0.00     0.012 A 
HETATM   20  C   UNL     1      44.062 -11.145   5.315  1.00  0.00     0.171 A 
HETATM   21  N   UNL     1      45.409 -11.099   5.435  1.00  0.00    -0.237 NA
HETATM   22  C   UNL     1      45.911 -11.138   6.685  1.00  0.00     0.119 A 
HETATM   23  C   UNL     1      45.131 -11.214   7.824  1.00  0.00     0.020 A 
HETATM   24  C   UNL     1      43.748 -11.252   7.674  1.00  0.00     0.014 A 
BRANCH  20  25
HETATM   25  O   UNL     1      43.504 -11.123   4.049  1.00  0.00    -0.339 OA
HETATM   26  C   UNL     1      43.855 -12.255   3.259  1.00  0.00     0.211 C 
ENDBRANCH  20  25
ENDBRANCH  18  19
ENDBRANCH   3  18
TORSDOF 4
ENDMDL
MODEL 4
REMARK VINA RESULT:      -8.1      3.926      6.608
REMARK  4 active torsions:
REMARK  status: ('A' for Active; 'I' for Inactive)
REMARK    1  A    between atoms: C_4  and  N_5 
REMARK       I    between atoms: N_5  and  C_6 
REMARK       I    between atoms: C_6  and  N_7 
REMARK    2  A    between atoms: N_7  and  C_8 
REMARK    3  A    between atoms: C_8  and  C_9 
REMARK    4  A    between atoms: C_10  and  O_11 
ROOT
HETATM    1  N   UNL     1      40.128 -14.383   5.039  1.00  0.00    -0.307 N 
HETATM    2  C   UNL     1      40.304 -13.194   5.671  1.00  0.00     0.321 C 
HETATM    3  N   UNL     1      41.340 -12.415   5.251  1.00  0.00    -0.338 N 
HETATM    4  O   UNL     1      39.568 -12.883   6.606  1.00  0.00    -0.247 OA
HETATM    5  H   UNL     1      39.514 -15.016   5.550  1.00  0.00     0.170 HD
HETATM    6  H   UNL     1      42.128 -12.954   4.923  1.00  0.00     0.164 HD
ENDROOT
BRANCH   1   7
HETATM    7  C   UNL     1      40.610 -14.931   3.827  1.00  0.00     0.066 A 
HETATM    8  C   UNL     1      40.095 -14.598   2.568  1.00  0.00     0.038 A 
HETATM    9  C   UNL     1      40.615 -15.181   1.406  1.00  0.00    -0.059 A 
HETATM   10  C   UNL     1      40.093 -14.797   0.054  1.00  0.00     0.048 C 
HETATM   11  C   UNL     1      41.658 -16.104   1.521  1.00  0.00     0.020 A 
HETATM   12  C   UNL     1      42.154 -16.474   2.781  1.00  0.00    -0.005 A 
HETATM   13  C   UNL     1      41.626 -15.896   3.955  1.00  0.00     0.093 A 
HETATM   14  C   UNL     1      43.178 -17.421   2.910  1.00  0.00     0.015 A 
HETATM   15  N   UNL     1      42.083 -16.243   5.182  1.00  0.00    -0.258 NA
HETATM   16  C   UNL     1      43.069 -17.162   5.265  1.00  0.00     0.117 A 
HETATM   17  C   UNL     1      43.645 -17.774   4.170  1.00  0.00     0.020 A 
ENDBRANCH   1   7
BRANCH   3  18
HETATM   18  C   UNL     1      41.678 -11.180   5.937  1.00  0.00     0.167 C 
BRANCH  18  19
HETATM   19  C   UNL     1      43.088 -11.111   6.460  1.00  0.00     0.012 A 
HETATM   20  C   UNL     1      43.369 -10.358   7.604  1.00  0.00     0.171 A 
HETATM   21  N   UNL     1      44.606 -10.208   8.133  1.00  0.00    -0.237 NA
HETATM   22  C   UNL     1      45.622 -10.815   7.487  1.00  0.00     0.119 A 
HETATM   23  C   UNL     1      45.462 -11.570   6.340  1.00  0.00     0.020 A 
HETATM   24  C   UNL     1      44.178 -11.715   5.820  1.00  0.00     0.014 A 
BRANCH  20  25
HETATM   25  O   UNL     1      42.299  -9.741   8.226  1.00  0.00    -0.339 OA
HETATM   26  C   UNL     1      42.574  -9.357   9.570  1.00  0.00     0.211 C 
ENDBRANCH  20  25
ENDBRANCH  18  19
ENDBRANCH   3  18
TORSDOF 4
ENDMDL
MODEL 5
REMARK VINA RESULT:      -8.0      2.261      7.148
REMARK  4 active torsions:
REMARK  status: ('A' for Active; 'I' for Inactive)
REMARK    1  A    between atoms: C_4  and  N_5 
REMARK       I    between atoms: N_5  and  C_6 
REMARK       I    between atoms: C_6  and  N_7 
REMARK    2  A    between atoms: N_7  and  C_8 
REMARK    3  A    between atoms: C_8  and  C_9 
REMARK    4  A    between atoms: C_10  and  O_11 
ROOT
HETATM    1  N   UNL     1      43.257 -14.755   2.632  1.00  0.00    -0.307 N 
HETATM    2  C   UNL     1      42.227 -13.951   2.260  1.00  0.00     0.321 C 
HETATM    3  N   UNL     1      41.030 -14.552   2.011  1.00  0.00    -0.338 N 
HETATM    4  O   UNL     1      42.412 -12.744   2.123  1.00  0.00    -0.247 OA
HETATM    5  H   UNL     1      44.164 -14.296   2.561  1.00  0.00     0.170 HD
HETATM    6  H   UNL     1      41.129 -15.483   1.634  1.00  0.00     0.164 HD
ENDROOT
BRANCH   1   7
HETATM    7  C   UNL     1      43.342 -16.089   3.100  1.00  0.00     0.066 A 
HETATM    8  C   UNL     1      43.305 -17.208   2.258  1.00  0.00     0.038 A 
HETATM    9  C   UNL     1      43.389 -18.501   2.786  1.00  0.00    -0.059 A 
HETATM   10  C   UNL     1      43.389 -19.700   1.884  1.00  0.00     0.048 C 
HETATM   11  C   UNL     1      43.509 -18.662   4.168  1.00  0.00     0.020 A 
HETATM   12  C   UNL     1      43.507 -17.547   5.024  1.00  0.00    -0.005 A 
HETATM   13  C   UNL     1      43.413 -16.242   4.496  1.00  0.00     0.093 A 
HETATM   14  C   UNL     1      43.596 -17.698   6.413  1.00  0.00     0.015 A 
HETATM   15  N   UNL     1      43.401 -15.153   5.301  1.00  0.00    -0.258 NA
HETATM   16  C   UNL     1      43.486 -15.338   6.636  1.00  0.00     0.117 A 
HETATM   17  C   UNL     1      43.585 -16.578   7.236  1.00  0.00     0.020 A 
ENDBRANCH   1   7
BRANCH   3  18
HETATM   18  C   UNL     1      39.901 -13.794   1.499  1.00  0.00     0.167 C 
BRANCH  18  19
HETATM   19  C   UNL     1      39.858 -13.655   0.001  1.00  0.00     0.012 A 
HETATM   20  C   UNL     1      39.991 -12.392  -0.585  1.00  0.00     0.171 A 
HETATM   21  N   UNL     1      39.934 -12.161  -1.917  1.00  0.00    -0.237 NA
HETATM   22  C   UNL     1      39.713 -13.226  -2.712  1.00  0.00     0.119 A 
HETATM   23  C   UNL     1      39.552 -14.516  -2.241  1.00  0.00     0.020 A 
HETATM   24  C   UNL     1      39.622 -14.729  -0.867  1.00  0.00     0.014 A 
BRANCH  20  25
HETATM   25  O   UNL     1      40.201 -11.325   0.269  1.00  0.00    -0.339 OA
HETATM   26  C   UNL     1      41.199 -10.420  -0.195  1.00  0.00     0.211 C 
ENDBRANCH  20  25
ENDBRANCH  18  19
ENDBRANCH   3  18
TORSDOF 4
ENDMDL
MODEL 6
REMARK VINA RESULT:      -8.0      2.810      6.690
REMARK  4 active torsions:
REMARK  status: ('A' for Active; 'I' for Inactive)
REMARK    1  A    between atoms: C_4  and  N_5 
REMARK       I    between atoms: N_5  and  C_6 
REMARK       I    between atoms: C_6  and  N_7 
REMARK    2  A    between atoms: N_7  and  C_8 
REMARK    3  A    between atoms: C_8  and  C_9 
REMARK    4  A    between atoms: C_10  and  O_11 
ROOT
HETATM    1  N   UNL     1      43.126 -15.173   2.165  1.00  0.00    -0.307 N 
HETATM    2  C   UNL     1      42.140 -14.241   2.233  1.00  0.00     0.321 C 
HETATM    3  N   UNL     1      40.950 -14.633   2.768  1.00  0.00    -0.338 N 
HETATM    4  O   UNL     1      42.333 -13.114   1.782  1.00  0.00    -0.247 OA
HETATM    5  H   UNL     1      43.885 -14.902   1.542  1.00  0.00     0.170 HD
HETATM    6  H   UNL     1      40.740 -15.603   2.589  1.00  0.00     0.164 HD
ENDROOT
BRANCH   1   7
HETATM    7  C   UNL     1      43.326 -16.435   2.774  1.00  0.00     0.066 A 
HETATM    8  C   UNL     1      43.296 -17.646   2.072  1.00  0.00     0.038 A 
HETATM    9  C   UNL     1      43.498 -18.862   2.737  1.00  0.00    -0.059 A 
HETATM   10  C   UNL     1      43.506 -20.158   1.982  1.00  0.00     0.048 C 
HETATM   11  C   UNL     1      43.729 -18.850   4.114  1.00  0.00     0.020 A 
HETATM   12  C   UNL     1      43.721 -17.643   4.833  1.00  0.00    -0.005 A 
HETATM   13  C   UNL     1      43.509 -16.417   4.168  1.00  0.00     0.093 A 
HETATM   14  C   UNL     1      43.921 -17.622   6.220  1.00  0.00     0.015 A 
HETATM   15  N   UNL     1      43.489 -15.242   4.841  1.00  0.00    -0.258 NA
HETATM   16  C   UNL     1      43.683 -15.262   6.178  1.00  0.00     0.117 A 
HETATM   17  C   UNL     1      43.902 -16.414   6.906  1.00  0.00     0.020 A 
ENDBRANCH   1   7
BRANCH   3  18
HETATM   18  C   UNL     1      39.802 -13.743   2.780  1.00  0.00     0.167 C 
BRANCH  18  19
HETATM   19  C   UNL     1      39.692 -12.870   4.002  1.00  0.00     0.012 A 
HETATM   20  C   UNL     1      39.881 -13.424   5.272  1.00  0.00     0.171 A 
HETATM   21  N   UNL     1      39.772 -12.731   6.429  1.00  0.00    -0.237 NA
HETATM   22  C   UNL     1      39.438 -11.429   6.331  1.00  0.00     0.119 A 
HETATM   23  C   UNL     1      39.212 -10.783   5.130  1.00  0.00     0.020 A 
HETATM   24  C   UNL     1      39.337 -11.515   3.953  1.00  0.00     0.014 A 
BRANCH  20  25
HETATM   25  O   UNL     1      40.208 -14.766   5.327  1.00  0.00    -0.339 OA
HETATM   26  C   UNL     1      40.132 -15.312   6.641  1.00  0.00     0.211 C 
ENDBRANCH  20  25
ENDBRANCH  18  19
ENDBRANCH   3  18
TORSDOF 4
ENDMDL
MODEL 7
REMARK VINA RESULT:      -7.9      3.272      7.032
REMARK  4 active torsions:
REMARK  status: ('A' for Active; 'I' for Inactive)
REMARK    1  A    between atoms: C_4  and  N_5 
REMARK       I    between atoms: N_5  and  C_6 
REMARK       I    between atoms: C_6  and  N_7 
REMARK    2  A    between atoms: N_7  and  C_8 
REMARK    3  A    between atoms: C_8  and  C_9 
REMARK    4  A    between atoms: C_10  and  O_11 
ROOT
HETATM    1  N   UNL     1      41.678 -14.979   3.094  1.00  0.00    -0.307 N 
HETATM    2  C   UNL     1      42.055 -13.676   3.025  1.00  0.00     0.321 C 
HETATM    3  N   UNL     1      43.211 -13.330   3.657  1.00  0.00    -0.338 N 
HETATM    4  O   UNL     1      41.339 -12.863   2.445  1.00  0.00    -0.247 OA
HETATM    5  H   UNL     1      40.705 -15.125   2.828  1.00  0.00     0.170 HD
HETATM    6  H   UNL     1      43.387 -13.881   4.483  1.00  0.00     0.164 HD
ENDROOT
BRANCH   1   7
HETATM    7  C   UNL     1      42.344 -16.176   3.453  1.00  0.00     0.066 A 
HETATM    8  C   UNL     1      42.645 -17.197   2.543  1.00  0.00     0.038 A 
HETATM    9  C   UNL     1      43.302 -18.358   2.965  1.00  0.00    -0.059 A 
HETATM   10  C   UNL     1      43.660 -19.437   1.986  1.00  0.00     0.048 C 
HETATM   11  C   UNL     1      43.653 -18.486   4.310  1.00  0.00     0.020 A 
HETATM   12  C   UNL     1      43.320 -17.485   5.238  1.00  0.00    -0.005 A 
HETATM   13  C   UNL     1      42.649 -16.317   4.818  1.00  0.00     0.093 A 
HETATM   14  C   UNL     1      43.640 -17.617   6.596  1.00  0.00     0.015 A 
HETATM   15  N   UNL     1      42.311 -15.342   5.695  1.00  0.00    -0.258 NA
HETATM   16  C   UNL     1      42.634 -15.506   6.997  1.00  0.00     0.117 A 
HETATM   17  C   UNL     1      43.293 -16.614   7.492  1.00  0.00     0.020 A 
ENDBRANCH   1   7
BRANCH   3  18
HETATM   18  C   UNL     1      43.639 -11.944   3.735  1.00  0.00     0.167 C 
BRANCH  18  19
HETATM   19  C   UNL     1      43.892 -11.437   5.130  1.00  0.00     0.012 A 
HETATM   20  C   UNL     1      42.834 -10.923   5.886  1.00  0.00     0.171 A 
HETATM   21  N   UNL     1      42.965 -10.416   7.133  1.00  0.00    -0.237 NA
HETATM   22  C   UNL     1      44.208 -10.395   7.655  1.00  0.00     0.119 A 
HETATM   23  C   UNL     1      45.327 -10.861   6.992  1.00  0.00     0.020 A 
HETATM   24  C   UNL     1      45.165 -11.385   5.712  1.00  0.00     0.014 A 
BRANCH  20  25
HETATM   25  O   UNL     1      41.579 -10.951   5.306  1.00  0.00    -0.339 OA
HETATM   26  C   UNL     1      40.668 -11.817   5.975  1.00  0.00     0.211 C 
ENDBRANCH  20  25
ENDBRANCH  18  19
ENDBRANCH   3  18
TORSDOF 4
ENDMDL
MODEL 8
REMARK VINA RESULT:      -7.7      4.275      7.125
REMARK  4 active torsions:
REMARK  status: ('A' for Active; 'I' for Inactive)
REMARK    1  A    between atoms: C_4  and  N_5 
REMARK       I    between atoms: N_5  and  C_6 
REMARK       I    between atoms: C_6  and  N_7 
REMARK    2  A    between atoms: N_7  and  C_8 
REMARK    3  A    between atoms: C_8  and  C_9 
REMARK    4  A    between atoms: C_10  and  O_11 
ROOT
HETATM    1  N   UNL     1      40.162 -14.332   5.746  1.00  0.00    -0.307 N 
HETATM    2  C   UNL     1      40.300 -13.035   6.124  1.00  0.00     0.321 C 
HETATM    3  N   UNL     1      41.556 -12.507   6.086  1.00  0.00    -0.338 N 
HETATM    4  O   UNL     1      39.321 -12.406   6.519  1.00  0.00    -0.247 OA
HETATM    5  H   UNL     1      39.270 -14.735   6.030  1.00  0.00     0.170 HD
HETATM    6  H   UNL     1      42.274 -13.188   6.283  1.00  0.00     0.164 HD
ENDROOT
BRANCH   1   7
HETATM    7  C   UNL     1      40.987 -15.242   5.043  1.00  0.00     0.066 A 
HETATM    8  C   UNL     1      41.867 -16.134   5.670  1.00  0.00     0.038 A 
HETATM    9  C   UNL     1      42.659 -17.006   4.915  1.00  0.00    -0.059 A 
HETATM   10  C   UNL     1      43.573 -17.988   5.585  1.00  0.00     0.048 C 
HETATM   11  C   UNL     1      42.562 -16.973   3.522  1.00  0.00     0.020 A 
HETATM   12  C   UNL     1      41.712 -16.056   2.882  1.00  0.00    -0.005 A 
HETATM   13  C   UNL     1      40.919 -15.169   3.640  1.00  0.00     0.093 A 
HETATM   14  C   UNL     1      41.629 -15.994   1.485  1.00  0.00     0.015 A 
HETATM   15  N   UNL     1      40.098 -14.270   3.046  1.00  0.00    -0.258 NA
HETATM   16  C   UNL     1      40.048 -14.238   1.696  1.00  0.00     0.117 A 
HETATM   17  C   UNL     1      40.785 -15.071   0.879  1.00  0.00     0.020 A 
ENDBRANCH   1   7
BRANCH   3  18
HETATM   18  C   UNL     1      41.822 -11.166   6.576  1.00  0.00     0.167 C 
BRANCH  18  19
HETATM   19  C   UNL     1      43.249 -10.913   6.986  1.00  0.00     0.012 A 
HETATM   20  C   UNL     1      43.537  -9.914   7.920  1.00  0.00     0.171 A 
HETATM   21  N   UNL     1      44.785  -9.590   8.329  1.00  0.00    -0.237 NA
HETATM   22  C   UNL     1      45.805 -10.273   7.772  1.00  0.00     0.119 A 
HETATM   23  C   UNL     1      45.638 -11.269   6.829  1.00  0.00     0.020 A 
HETATM   24  C   UNL     1      44.343 -11.589   6.430  1.00  0.00     0.014 A 
BRANCH  20  25
HETATM   25  O   UNL     1      42.461  -9.228   8.455  1.00  0.00    -0.339 OA
HETATM   26  C   UNL     1      42.392  -9.307   9.876  1.00  0.00     0.211 C 
ENDBRANCH  20  25
ENDBRANCH  18  19
ENDBRANCH   3  18
TORSDOF 4
ENDMDL
MODEL 9
REMARK VINA RESULT:      -7.7      1.942      2.648
REMARK  4 active torsions:
REMARK  status: ('A' for Active; 'I' for Inactive)
REMARK    1  A    between atoms: C_4  and  N_5 
REMARK       I    between atoms: N_5  and  C_6 
REMARK       I    between atoms: C_6  and  N_7 
REMARK    2  A    between atoms: N_7  and  C_8 
REMARK    3  A    between atoms: C_8  and  C_9 
REMARK    4  A    between atoms: C_10  and  O_11 
ROOT
HETATM    1  N   UNL     1      39.748 -13.576   1.001  1.00  0.00    -0.307 N 
HETATM    2  C   UNL     1      40.786 -13.727   1.864  1.00  0.00     0.321 C 
HETATM    3  N   UNL     1      42.013 -13.969   1.323  1.00  0.00    -0.338 N 
HETATM    4  O   UNL     1      40.585 -13.684   3.075  1.00  0.00    -0.247 OA
HETATM    5  H   UNL     1      38.840 -13.649   1.457  1.00  0.00     0.170 HD
HETATM    6  H   UNL     1      41.967 -14.497   0.464  1.00  0.00     0.164 HD
ENDROOT
BRANCH   1   7
HETATM    7  C   UNL     1      39.656 -13.337  -0.391  1.00  0.00     0.066 A 
HETATM    8  C   UNL     1      39.062 -14.229  -1.292  1.00  0.00     0.038 A 
HETATM    9  C   UNL     1      39.008 -13.934  -2.659  1.00  0.00    -0.059 A 
HETATM   10  C   UNL     1      38.338 -14.870  -3.621  1.00  0.00     0.048 C 
HETATM   11  C   UNL     1      39.559 -12.734  -3.114  1.00  0.00     0.020 A 
HETATM   12  C   UNL     1      40.192 -11.850  -2.224  1.00  0.00    -0.005 A 
HETATM   13  C   UNL     1      40.256 -12.149  -0.847  1.00  0.00     0.093 A 
HETATM   14  C   UNL     1      40.774 -10.658  -2.674  1.00  0.00     0.015 A 
HETATM   15  N   UNL     1      40.868 -11.317   0.029  1.00  0.00    -0.258 NA
HETATM   16  C   UNL     1      41.421 -10.178  -0.443  1.00  0.00     0.117 A 
HETATM   17  C   UNL     1      41.399  -9.806  -1.772  1.00  0.00     0.020 A 
ENDBRANCH   1   7
BRANCH   3  18
HETATM   18  C   UNL     1      43.162 -14.256   2.165  1.00  0.00     0.167 C 
BRANCH  18  19
HETATM   19  C   UNL     1      43.216 -15.660   2.704  1.00  0.00     0.012 A 
HETATM   20  C   UNL     1      43.275 -15.873   4.085  1.00  0.00     0.171 A 
HETATM   21  N   UNL     1      43.358 -17.093   4.665  1.00  0.00    -0.237 NA
HETATM   22  C   UNL     1      43.408 -18.158   3.840  1.00  0.00     0.119 A 
HETATM   23  C   UNL     1      43.374 -18.064   2.461  1.00  0.00     0.020 A 
HETATM   24  C   UNL     1      43.281 -16.798   1.889  1.00  0.00     0.014 A 
BRANCH  20  25
HETATM   25  O   UNL     1      43.235 -14.752   4.893  1.00  0.00    -0.339 OA
HETATM   26  C   UNL     1      42.273 -14.845   5.939  1.00  0.00     0.211 C 
ENDBRANCH  20  25
ENDBRANCH  18  19
ENDBRANCH   3  18
TORSDOF 4
ENDMDL
MODEL 10
REMARK VINA RESULT:      -7.5      6.277      9.397
REMARK  4 active torsions:
REMARK  status: ('A' for Active; 'I' for Inactive)
REMARK    1  A    between atoms: C_4  and  N_5 
REMARK       I    between atoms: N_5  and  C_6 
REMARK       I    between atoms: C_6  and  N_7 
REMARK    2  A    between atoms: N_7  and  C_8 
REMARK    3  A    between atoms: C_8  and  C_9 
REMARK    4  A    between atoms: C_10  and  O_11 
ROOT
HETATM    1  N   UNL     1      44.110 -12.032   5.958  1.00  0.00    -0.307 N 
HETATM    2  C   UNL     1      44.919 -11.383   6.835  1.00  0.00     0.321 C 
HETATM    3  N   UNL     1      44.337 -10.875   7.957  1.00  0.00    -0.338 N 
HETATM    4  O   UNL     1      46.112 -11.240   6.576  1.00  0.00    -0.247 OA
HETATM    5  H   UNL     1      44.541 -12.164   5.044  1.00  0.00     0.170 HD
HETATM    6  H   UNL     1      43.385 -10.577   7.805  1.00  0.00     0.164 HD
ENDROOT
BRANCH   1   7
HETATM    7  C   UNL     1      42.802 -12.567   6.040  1.00  0.00     0.066 A 
HETATM    8  C   UNL     1      41.641 -11.798   5.892  1.00  0.00     0.038 A 
HETATM    9  C   UNL     1      40.376 -12.389   5.990  1.00  0.00    -0.059 A 
HETATM   10  C   UNL     1      39.131 -11.575   5.793  1.00  0.00     0.048 C 
HETATM   11  C   UNL     1      40.287 -13.760   6.239  1.00  0.00     0.020 A 
HETATM   12  C   UNL     1      41.445 -14.533   6.428  1.00  0.00    -0.005 A 
HETATM   13  C   UNL     1      42.721 -13.938   6.340  1.00  0.00     0.093 A 
HETATM   14  C   UNL     1      41.367 -15.903   6.709  1.00  0.00     0.015 A 
HETATM   15  N   UNL     1      43.852 -14.661   6.526  1.00  0.00    -0.258 NA
HETATM   16  C   UNL     1      43.736 -15.979   6.798  1.00  0.00     0.117 A 
HETATM   17  C   UNL     1      42.529 -16.641   6.898  1.00  0.00     0.020 A 
ENDBRANCH   1   7
BRANCH   3  18
HETATM   18  C   UNL     1      45.095 -10.069   8.898  1.00  0.00     0.167 C 
BRANCH  18  19
HETATM   19  C   UNL     1      44.261  -9.272   9.865  1.00  0.00     0.012 A 
HETATM   20  C   UNL     1      43.589  -8.127   9.424  1.00  0.00     0.171 A 
HETATM   21  N   UNL     1      42.842  -7.328  10.220  1.00  0.00    -0.237 NA
HETATM   22  C   UNL     1      42.771  -7.662  11.524  1.00  0.00     0.119 A 
HETATM   23  C   UNL     1      43.407  -8.761  12.071  1.00  0.00     0.020 A 
HETATM   24  C   UNL     1      44.164  -9.572  11.230  1.00  0.00     0.014 A 
BRANCH  20  25
HETATM   25  O   UNL     1      43.701  -7.814   8.082  1.00  0.00    -0.339 OA
HETATM   26  C   UNL     1      42.453  -7.824   7.394  1.00  0.00     0.211 C 
ENDBRANCH  20  25
ENDBRANCH  18  19
ENDBRANCH   3  18
TORSDOF 4
ENDMDL
