MODEL 1
REMARK VINA RESULT:      -8.7      0.000      0.000
REMARK  1 active torsions:
REMARK  status: ('A' for Active; 'I' for Inactive)
REMARK    1  A    between atoms: C_8  and  C_9 
ROOT
HETATM    1  C   UNL     1      40.194 -15.820   5.690  1.00  0.00     0.073 C 
HETATM    2  C   UNL     1      40.443 -14.381   5.983  1.00  0.00     0.062 A 
HETATM    3  N   UNL     1      39.408 -13.594   6.283  1.00  0.00    -0.178 NA
HETATM    4  N   UNL     1      39.971 -12.415   6.546  1.00  0.00    -0.262 N 
HETATM    5  H   UNL     1      39.365 -11.655   6.831  1.00  0.00     0.191 HD
HETATM    6  C   UNL     1      41.333 -12.384   6.381  1.00  0.00     0.134 A 
HETATM    7  C   UNL     1      41.696 -13.665   5.996  1.00  0.00     0.032 A 
HETATM    8  C   UNL     1      43.035 -14.306   5.774  1.00  0.00     0.120 C 
HETATM    9  S   UNL     1      44.500 -13.367   6.266  1.00  0.00    -0.141 SA
HETATM   10  C   UNL     1      44.223 -11.710   5.583  1.00  0.00     0.136 C 
HETATM   11  C   UNL     1      43.871 -11.588   4.111  1.00  0.00     0.031 C 
HETATM   12  C   UNL     1      43.297 -10.880   6.451  1.00  0.00     0.236 C 
HETATM   13  O   UNL     1      43.679  -9.797   6.912  1.00  0.00    -0.272 OA
HETATM   14  N   UNL     1      41.993 -11.209   6.657  1.00  0.00    -0.311 N 
HETATM   15  H   UNL     1      41.492 -10.466   7.134  1.00  0.00     0.170 HD
ENDROOT
BRANCH   8  16
HETATM   16  C   UNL     1      43.131 -14.951   4.383  1.00  0.00    -0.029 A 
HETATM   17  C   UNL     1      43.446 -16.350   4.247  1.00  0.00    -0.018 A 
HETATM   18  C   UNL     1      43.508 -16.919   2.946  1.00  0.00    -0.025 A 
HETATM   19  C   UNL     1      43.699 -17.230   5.331  1.00  0.00     0.013 A 
HETATM   20  C   UNL     1      43.800 -18.284   2.774  1.00  0.00     0.012 A 
HETATM   21  C   UNL     1      43.274 -16.129   1.817  1.00  0.00     0.012 A 
HETATM   22  C   UNL     1      44.037 -19.114   3.866  1.00  0.00     0.001 A 
HETATM   23  C   UNL     1      43.988 -18.586   5.145  1.00  0.00     0.001 A 
HETATM   24  C   UNL     1      42.971 -14.781   1.944  1.00  0.00     0.002 A 
HETATM   25  C   UNL     1      42.899 -14.203   3.208  1.00  0.00     0.009 A 
ENDBRANCH   8  16
TORSDOF 1
ENDMDL
MODEL 2
REMARK VINA RESULT:      -8.0      3.619      6.060
REMARK  1 active torsions:
REMARK  status: ('A' for Active; 'I' for Inactive)
REMARK    1  A    between atoms: C_8  and  C_9 
ROOT
HETATM    1  C   UNL     1      43.332 -14.192   7.224  1.00  0.00     0.073 C 
HETATM    2  C   UNL     1      43.680 -15.344   6.347  1.00  0.00     0.062 A 
HETATM    3  N   UNL     1      44.707 -16.127   6.686  1.00  0.00    -0.178 NA
HETATM    4  N   UNL     1      44.708 -17.073   5.748  1.00  0.00    -0.262 N 
HETATM    5  H   UNL     1      45.399 -17.809   5.821  1.00  0.00     0.191 HD
HETATM    6  C   UNL     1      43.752 -16.915   4.777  1.00  0.00     0.134 A 
HETATM    7  C   UNL     1      43.047 -15.771   5.122  1.00  0.00     0.032 A 
HETATM    8  C   UNL     1      41.822 -15.132   4.540  1.00  0.00     0.120 C 
HETATM    9  S   UNL     1      40.918 -16.060   3.277  1.00  0.00    -0.141 SA
HETATM   10  C   UNL     1      42.204 -16.637   2.136  1.00  0.00     0.136 C 
HETATM   11  C   UNL     1      43.182 -15.618   1.579  1.00  0.00     0.031 C 
HETATM   12  C   UNL     1      42.916 -17.872   2.653  1.00  0.00     0.236 C 
HETATM   13  O   UNL     1      42.923 -18.913   1.984  1.00  0.00    -0.272 OA
HETATM   14  N   UNL     1      43.670 -17.865   3.785  1.00  0.00    -0.311 N 
HETATM   15  H   UNL     1      44.189 -18.731   3.893  1.00  0.00     0.170 HD
ENDROOT
BRANCH   8  16
HETATM   16  C   UNL     1      42.064 -13.655   4.192  1.00  0.00    -0.029 A 
HETATM   17  C   UNL     1      41.146 -12.640   4.640  1.00  0.00    -0.018 A 
HETATM   18  C   UNL     1      41.410 -11.281   4.318  1.00  0.00    -0.025 A 
HETATM   19  C   UNL     1      39.975 -12.889   5.403  1.00  0.00     0.013 A 
HETATM   20  C   UNL     1      40.544 -10.260   4.749  1.00  0.00     0.012 A 
HETATM   21  C   UNL     1      42.540 -10.939   3.569  1.00  0.00     0.012 A 
HETATM   22  C   UNL     1      39.408 -10.548   5.499  1.00  0.00     0.001 A 
HETATM   23  C   UNL     1      39.122 -11.863   5.825  1.00  0.00     0.001 A 
HETATM   24  C   UNL     1      43.426 -11.915   3.135  1.00  0.00     0.002 A 
HETATM   25  C   UNL     1      43.192 -13.251   3.444  1.00  0.00     0.009 A 
ENDBRANCH   8  16
TORSDOF 1
ENDMDL
MODEL 3
REMARK VINA RESULT:      -7.9      3.056      4.583
REMARK  1 active torsions:
REMARK  status: ('A' for Active; 'I' for Inactive)
REMARK    1  A    between atoms: C_8  and  C_9 
ROOT
HETATM    1  C   UNL     1      43.969 -12.072   5.328  1.00  0.00     0.073 C 
HETATM    2  C   UNL     1      43.165 -11.750   4.116  1.00  0.00     0.062 A 
HETATM    3  N   UNL     1      42.889 -10.473   3.845  1.00  0.00    -0.178 NA
HETATM    4  N   UNL     1      42.227 -10.529   2.690  1.00  0.00    -0.262 N 
HETATM    5  H   UNL     1      41.936  -9.655   2.269  1.00  0.00     0.191 HD
HETATM    6  C   UNL     1      42.014 -11.799   2.216  1.00  0.00     0.134 A 
HETATM    7  C   UNL     1      42.609 -12.650   3.135  1.00  0.00     0.032 A 
HETATM    8  C   UNL     1      42.824 -14.135   3.136  1.00  0.00     0.120 C 
HETATM    9  S   UNL     1      42.445 -15.034   1.613  1.00  0.00    -0.141 SA
HETATM   10  C   UNL     1      40.818 -14.407   1.114  1.00  0.00     0.136 C 
HETATM   11  C   UNL     1      39.697 -14.418   2.139  1.00  0.00     0.031 C 
HETATM   12  C   UNL     1      40.912 -13.071   0.402  1.00  0.00     0.236 C 
HETATM   13  O   UNL     1      40.469 -12.944  -0.747  1.00  0.00    -0.272 OA
HETATM   14  N   UNL     1      41.359 -11.942   1.015  1.00  0.00    -0.311 N 
HETATM   15  H   UNL     1      41.212 -11.121   0.437  1.00  0.00     0.170 HD
ENDROOT
BRANCH   8  16
HETATM   16  C   UNL     1      42.270 -14.787   4.413  1.00  0.00    -0.029 A 
HETATM   17  C   UNL     1      42.798 -16.044   4.878  1.00  0.00    -0.018 A 
HETATM   18  C   UNL     1      42.277 -16.609   6.074  1.00  0.00    -0.025 A 
HETATM   19  C   UNL     1      43.825 -16.778   4.231  1.00  0.00     0.013 A 
HETATM   20  C   UNL     1      42.775 -17.828   6.567  1.00  0.00     0.012 A 
HETATM   21  C   UNL     1      41.262 -15.958   6.780  1.00  0.00     0.012 A 
HETATM   22  C   UNL     1      43.788 -18.514   5.902  1.00  0.00     0.001 A 
HETATM   23  C   UNL     1      44.312 -17.990   4.733  1.00  0.00     0.001 A 
HETATM   24  C   UNL     1      40.751 -14.747   6.334  1.00  0.00     0.002 A 
HETATM   25  C   UNL     1      41.249 -14.171   5.170  1.00  0.00     0.009 A 
ENDBRANCH   8  16
TORSDOF 1
ENDMDL
MODEL 4
REMARK VINA RESULT:      -7.7     16.095     17.411
REMARK  1 active torsions:
REMARK  status: ('A' for Active; 'I' for Inactive)
REMARK    1  A    between atoms: C_8  and  C_9 
ROOT
HETATM    1  C   UNL     1      47.174 -30.579   0.733  1.00  0.00     0.073 C 
HETATM    2  C   UNL     1      46.211 -30.836   1.840  1.00  0.00     0.062 A 
HETATM    3  N   UNL     1      46.651 -31.422   2.956  1.00  0.00    -0.178 NA
HETATM    4  N   UNL     1      45.578 -31.446   3.747  1.00  0.00    -0.262 N 
HETATM    5  H   UNL     1      45.686 -31.829   4.677  1.00  0.00     0.191 HD
HETATM    6  C   UNL     1      44.437 -30.943   3.175  1.00  0.00     0.134 A 
HETATM    7  C   UNL     1      44.801 -30.533   1.901  1.00  0.00     0.032 A 
HETATM    8  C   UNL     1      44.050 -29.804   0.827  1.00  0.00     0.120 C 
HETATM    9  S   UNL     1      42.430 -29.123   1.259  1.00  0.00    -0.141 SA
HETATM   10  C   UNL     1      41.588 -30.477   2.122  1.00  0.00     0.136 C 
HETATM   11  C   UNL     1      41.531 -31.836   1.446  1.00  0.00     0.031 C 
HETATM   12  C   UNL     1      42.020 -30.591   3.571  1.00  0.00     0.236 C 
HETATM   13  O   UNL     1      41.184 -30.506   4.479  1.00  0.00    -0.272 OA
HETATM   14  N   UNL     1      43.291 -30.909   3.935  1.00  0.00    -0.311 N 
HETATM   15  H   UNL     1      43.360 -31.087   4.932  1.00  0.00     0.170 HD
ENDROOT
BRANCH   8  16
HETATM   16  C   UNL     1      44.082 -30.567  -0.506  1.00  0.00    -0.029 A 
HETATM   17  C   UNL     1      44.421 -29.885  -1.729  1.00  0.00    -0.018 A 
HETATM   18  C   UNL     1      44.462 -30.625  -2.942  1.00  0.00    -0.025 A 
HETATM   19  C   UNL     1      44.733 -28.504  -1.824  1.00  0.00     0.013 A 
HETATM   20  C   UNL     1      44.801 -29.997  -4.154  1.00  0.00     0.012 A 
HETATM   21  C   UNL     1      44.169 -31.992  -2.946  1.00  0.00     0.012 A 
HETATM   22  C   UNL     1      45.105 -28.640  -4.202  1.00  0.00     0.001 A 
HETATM   23  C   UNL     1      45.069 -27.892  -3.037  1.00  0.00     0.001 A 
HETATM   24  C   UNL     1      43.841 -32.651  -1.770  1.00  0.00     0.002 A 
HETATM   25  C   UNL     1      43.801 -31.950  -0.569  1.00  0.00     0.009 A 
ENDBRANCH   8  16
TORSDOF 1
ENDMDL
MODEL 5
REMARK VINA RESULT:      -7.6      2.372      3.826
REMARK  1 active torsions:
REMARK  status: ('A' for Active; 'I' for Inactive)
REMARK    1  A    between atoms: C_8  and  C_9 
ROOT
HETATM    1  C   UNL     1      44.596 -13.049   6.553  1.00  0.00     0.073 C 
HETATM    2  C   UNL     1      43.648 -11.941   6.859  1.00  0.00     0.062 A 
HETATM    3  N   UNL     1      43.822 -11.233   7.977  1.00  0.00    -0.178 NA
HETATM    4  N   UNL     1      42.868 -10.305   7.916  1.00  0.00    -0.262 N 
HETATM    5  H   UNL     1      42.826  -9.622   8.663  1.00  0.00     0.191 HD
HETATM    6  C   UNL     1      42.042 -10.407   6.826  1.00  0.00     0.134 A 
HETATM    7  C   UNL     1      42.511 -11.488   6.096  1.00  0.00     0.032 A 
HETATM    8  C   UNL     1      42.119 -12.042   4.758  1.00  0.00     0.120 C 
HETATM    9  S   UNL     1      40.967 -11.070   3.758  1.00  0.00    -0.141 SA
HETATM   10  C   UNL     1      39.646 -10.611   4.912  1.00  0.00     0.136 C 
HETATM   11  C   UNL     1      38.988 -11.710   5.727  1.00  0.00     0.031 C 
HETATM   12  C   UNL     1      40.028  -9.425   5.777  1.00  0.00     0.236 C 
HETATM   13  O   UNL     1      39.336  -8.398   5.767  1.00  0.00    -0.272 OA
HETATM   14  N   UNL     1      41.046  -9.470   6.678  1.00  0.00    -0.311 N 
HETATM   15  H   UNL     1      41.058  -8.644   7.267  1.00  0.00     0.170 HD
ENDROOT
BRANCH   8  16
HETATM   16  C   UNL     1      41.781 -13.539   4.842  1.00  0.00    -0.029 A 
HETATM   17  C   UNL     1      42.255 -14.452   3.834  1.00  0.00    -0.018 A 
HETATM   18  C   UNL     1      41.942 -15.833   3.953  1.00  0.00    -0.025 A 
HETATM   19  C   UNL     1      43.036 -14.079   2.710  1.00  0.00     0.013 A 
HETATM   20  C   UNL     1      42.398 -16.757   2.996  1.00  0.00     0.012 A 
HETATM   21  C   UNL     1      41.176 -16.294   5.027  1.00  0.00     0.012 A 
HETATM   22  C   UNL     1      43.166 -16.349   1.909  1.00  0.00     0.001 A 
HETATM   23  C   UNL     1      43.484 -15.009   1.765  1.00  0.00     0.001 A 
HETATM   24  C   UNL     1      40.716 -15.417   6.000  1.00  0.00     0.002 A 
HETATM   25  C   UNL     1      41.016 -14.062   5.909  1.00  0.00     0.009 A 
ENDBRANCH   8  16
TORSDOF 1
ENDMDL
MODEL 6
REMARK VINA RESULT:      -7.4     15.952     17.354
REMARK  1 active torsions:
REMARK  status: ('A' for Active; 'I' for Inactive)
REMARK    1  A    between atoms: C_8  and  C_9 
ROOT
HETATM    1  C   UNL     1      42.852 -29.646   0.506  1.00  0.00     0.073 C 
HETATM    2  C   UNL     1      44.097 -29.674   1.323  1.00  0.00     0.062 A 
HETATM    3  N   UNL     1      44.067 -29.183   2.564  1.00  0.00    -0.178 NA
HETATM    4  N   UNL     1      45.294 -29.415   3.028  1.00  0.00    -0.262 N 
HETATM    5  H   UNL     1      45.497 -29.145   3.982  1.00  0.00     0.191 HD
HETATM    6  C   UNL     1      46.145 -29.995   2.122  1.00  0.00     0.134 A 
HETATM    7  C   UNL     1      45.401 -30.179   0.967  1.00  0.00     0.032 A 
HETATM    8  C   UNL     1      45.713 -30.860  -0.333  1.00  0.00     0.120 C 
HETATM    9  S   UNL     1      47.248 -31.814  -0.425  1.00  0.00    -0.141 SA
HETATM   10  C   UNL     1      48.504 -30.717   0.288  1.00  0.00     0.136 C 
HETATM   11  C   UNL     1      48.616 -29.303  -0.255  1.00  0.00     0.031 C 
HETATM   12  C   UNL     1      48.485 -30.734   1.804  1.00  0.00     0.236 C 
HETATM   13  O   UNL     1      49.500 -31.055   2.436  1.00  0.00    -0.272 OA
HETATM   14  N   UNL     1      47.425 -30.290   2.531  1.00  0.00    -0.311 N 
HETATM   15  H   UNL     1      47.648 -30.236   3.520  1.00  0.00     0.170 HD
ENDROOT
BRANCH   8  16
HETATM   16  C   UNL     1      45.470 -29.932  -1.533  1.00  0.00    -0.029 A 
HETATM   17  C   UNL     1      44.985 -30.465  -2.780  1.00  0.00    -0.018 A 
HETATM   18  C   UNL     1      44.750 -29.576  -3.864  1.00  0.00    -0.025 A 
HETATM   19  C   UNL     1      44.707 -31.836  -3.020  1.00  0.00     0.013 A 
HETATM   20  C   UNL     1      44.264 -30.057  -5.094  1.00  0.00     0.012 A 
HETATM   21  C   UNL     1      44.996 -28.208  -3.722  1.00  0.00     0.012 A 
HETATM   22  C   UNL     1      44.001 -31.410  -5.285  1.00  0.00     0.001 A 
HETATM   23  C   UNL     1      44.224 -32.301  -4.248  1.00  0.00     0.001 A 
HETATM   24  C   UNL     1      45.464 -27.691  -2.522  1.00  0.00     0.002 A 
HETATM   25  C   UNL     1      45.694 -28.541  -1.445  1.00  0.00     0.009 A 
ENDBRANCH   8  16
TORSDOF 1
ENDMDL
MODEL 7
REMARK VINA RESULT:      -7.4      2.129      2.231
REMARK  1 active torsions:
REMARK  status: ('A' for Active; 'I' for Inactive)
REMARK    1  A    between atoms: C_8  and  C_9 
ROOT
HETATM    1  C   UNL     1      39.266 -15.275   2.643  1.00  0.00     0.073 C 
HETATM    2  C   UNL     1      39.600 -13.834   2.819  1.00  0.00     0.062 A 
HETATM    3  N   UNL     1      38.868 -12.918   2.181  1.00  0.00    -0.178 NA
HETATM    4  N   UNL     1      39.378 -11.759   2.596  1.00  0.00    -0.262 N 
HETATM    5  H   UNL     1      38.950 -10.906   2.255  1.00  0.00     0.191 HD
HETATM    6  C   UNL     1      40.450 -11.878   3.443  1.00  0.00     0.134 A 
HETATM    7  C   UNL     1      40.647 -13.239   3.615  1.00  0.00     0.032 A 
HETATM    8  C   UNL     1      41.574 -14.016   4.502  1.00  0.00     0.120 C 
HETATM    9  S   UNL     1      42.504 -13.092   5.749  1.00  0.00    -0.141 SA
HETATM   10  C   UNL     1      43.176 -11.670   4.846  1.00  0.00     0.136 C 
HETATM   11  C   UNL     1      43.945 -11.930   3.563  1.00  0.00     0.031 C 
HETATM   12  C   UNL     1      42.151 -10.566   4.671  1.00  0.00     0.236 C 
HETATM   13  O   UNL     1      42.378  -9.430   5.108  1.00  0.00    -0.272 OA
HETATM   14  N   UNL     1      41.018 -10.726   3.936  1.00  0.00    -0.311 N 
HETATM   15  H   UNL     1      40.531  -9.845   3.805  1.00  0.00     0.170 HD
ENDROOT
BRANCH   8  16
HETATM   16  C   UNL     1      42.414 -15.023   3.701  1.00  0.00    -0.029 A 
HETATM   17  C   UNL     1      42.878 -16.240   4.316  1.00  0.00    -0.018 A 
HETATM   18  C   UNL     1      43.635 -17.159   3.541  1.00  0.00    -0.025 A 
HETATM   19  C   UNL     1      42.629 -16.610   5.663  1.00  0.00     0.013 A 
HETATM   20  C   UNL     1      44.095 -18.364   4.103  1.00  0.00     0.012 A 
HETATM   21  C   UNL     1      43.932 -16.880   2.204  1.00  0.00     0.012 A 
HETATM   22  C   UNL     1      43.823 -18.690   5.428  1.00  0.00     0.001 A 
HETATM   23  C   UNL     1      43.091 -17.812   6.210  1.00  0.00     0.001 A 
HETATM   24  C   UNL     1      43.487 -15.708   1.608  1.00  0.00     0.002 A 
HETATM   25  C   UNL     1      42.738 -14.796   2.345  1.00  0.00     0.009 A 
ENDBRANCH   8  16
TORSDOF 1
ENDMDL
MODEL 8
REMARK VINA RESULT:      -7.2      3.096      6.324
REMARK  1 active torsions:
REMARK  status: ('A' for Active; 'I' for Inactive)
REMARK    1  A    between atoms: C_8  and  C_9 
ROOT
HETATM    1  C   UNL     1      43.064 -12.184   2.873  1.00  0.00     0.073 C 
HETATM    2  C   UNL     1      43.076 -13.653   3.122  1.00  0.00     0.062 A 
HETATM    3  N   UNL     1      43.215 -14.482   2.085  1.00  0.00    -0.178 NA
HETATM    4  N   UNL     1      43.249 -15.690   2.647  1.00  0.00    -0.262 N 
HETATM    5  H   UNL     1      43.380 -16.489   2.040  1.00  0.00     0.191 HD
HETATM    6  C   UNL     1      43.088 -15.689   4.009  1.00  0.00     0.134 A 
HETATM    7  C   UNL     1      42.957 -14.358   4.375  1.00  0.00     0.032 A 
HETATM    8  C   UNL     1      42.869 -13.688   5.714  1.00  0.00     0.120 C 
HETATM    9  S   UNL     1      43.178 -14.706   7.177  1.00  0.00    -0.141 SA
HETATM   10  C   UNL     1      42.188 -16.200   6.903  1.00  0.00     0.136 C 
HETATM   11  C   UNL     1      40.718 -16.036   6.558  1.00  0.00     0.031 C 
HETATM   12  C   UNL     1      42.875 -17.180   5.973  1.00  0.00     0.236 C 
HETATM   13  O   UNL     1      43.121 -18.332   6.353  1.00  0.00    -0.272 OA
HETATM   14  N   UNL     1      43.135 -16.896   4.668  1.00  0.00    -0.311 N 
HETATM   15  H   UNL     1      43.458 -17.716   4.165  1.00  0.00     0.170 HD
ENDROOT
BRANCH   8  16
HETATM   16  C   UNL     1      41.628 -12.788   5.817  1.00  0.00    -0.029 A 
HETATM   17  C   UNL     1      41.733 -11.461   6.366  1.00  0.00    -0.018 A 
HETATM   18  C   UNL     1      40.569 -10.646   6.429  1.00  0.00    -0.025 A 
HETATM   19  C   UNL     1      42.932 -10.881   6.856  1.00  0.00     0.013 A 
HETATM   20  C   UNL     1      40.634  -9.341   6.947  1.00  0.00     0.012 A 
HETATM   21  C   UNL     1      39.341 -11.133   5.971  1.00  0.00     0.012 A 
HETATM   22  C   UNL     1      41.833  -8.809   7.412  1.00  0.00     0.001 A 
HETATM   23  C   UNL     1      42.983  -9.580   7.368  1.00  0.00     0.001 A 
HETATM   24  C   UNL     1      39.237 -12.411   5.441  1.00  0.00     0.002 A 
HETATM   25  C   UNL     1      40.363 -13.224   5.364  1.00  0.00     0.009 A 
ENDBRANCH   8  16
TORSDOF 1
ENDMDL
MODEL 9
REMARK VINA RESULT:      -7.2      3.496      5.572
REMARK  1 active torsions:
REMARK  status: ('A' for Active; 'I' for Inactive)
REMARK    1  A    between atoms: C_8  and  C_9 
ROOT
HETATM    1  C   UNL     1      43.459 -16.848   1.526  1.00  0.00     0.073 C 
HETATM    2  C   UNL     1      43.584 -17.337   2.927  1.00  0.00     0.062 A 
HETATM    3  N   UNL     1      43.889 -18.619   3.139  1.00  0.00    -0.178 NA
HETATM    4  N   UNL     1      43.984 -18.709   4.465  1.00  0.00    -0.262 N 
HETATM    5  H   UNL     1      44.240 -19.605   4.860  1.00  0.00     0.191 HD
HETATM    6  C   UNL     1      43.704 -17.546   5.136  1.00  0.00     0.134 A 
HETATM    7  C   UNL     1      43.420 -16.604   4.159  1.00  0.00     0.032 A 
HETATM    8  C   UNL     1      43.155 -15.129   4.232  1.00  0.00     0.120 C 
HETATM    9  S   UNL     1      43.426 -14.311   5.823  1.00  0.00    -0.141 SA
HETATM   10  C   UNL     1      42.604 -15.388   7.028  1.00  0.00     0.136 C 
HETATM   11  C   UNL     1      41.162 -15.787   6.772  1.00  0.00     0.031 C 
HETATM   12  C   UNL     1      43.458 -16.585   7.403  1.00  0.00     0.236 C 
HETATM   13  O   UNL     1      43.774 -16.779   8.584  1.00  0.00    -0.272 OA
HETATM   14  N   UNL     1      43.804 -17.548   6.508  1.00  0.00    -0.311 N 
HETATM   15  H   UNL     1      44.244 -18.341   6.965  1.00  0.00     0.170 HD
ENDROOT
BRANCH   8  16
HETATM   16  C   UNL     1      41.832 -14.757   3.544  1.00  0.00    -0.029 A 
HETATM   17  C   UNL     1      41.644 -13.441   2.989  1.00  0.00    -0.018 A 
HETATM   18  C   UNL     1      40.416 -13.136   2.341  1.00  0.00    -0.025 A 
HETATM   19  C   UNL     1      42.608 -12.402   3.029  1.00  0.00     0.013 A 
HETATM   20  C   UNL     1      40.199 -11.867   1.776  1.00  0.00     0.012 A 
HETATM   21  C   UNL     1      39.405 -14.097   2.254  1.00  0.00     0.012 A 
HETATM   22  C   UNL     1      41.175 -10.876   1.833  1.00  0.00     0.001 A 
HETATM   23  C   UNL     1      42.380 -11.143   2.462  1.00  0.00     0.001 A 
HETATM   24  C   UNL     1      39.583 -15.366   2.788  1.00  0.00     0.002 A 
HETATM   25  C   UNL     1      40.779 -15.690   3.421  1.00  0.00     0.009 A 
ENDBRANCH   8  16
TORSDOF 1
ENDMDL
MODEL 10
REMARK VINA RESULT:      -7.1     15.331     17.830
REMARK  1 active torsions:
REMARK  status: ('A' for Active; 'I' for Inactive)
REMARK    1  A    between atoms: C_8  and  C_9 
ROOT
HETATM    1  C   UNL     1      43.471 -32.906  -1.095  1.00  0.00     0.073 C 
HETATM    2  C   UNL     1      43.851 -31.872  -0.093  1.00  0.00     0.062 A 
HETATM    3  N   UNL     1      43.115 -31.743   1.013  1.00  0.00    -0.178 NA
HETATM    4  N   UNL     1      43.748 -30.798   1.708  1.00  0.00    -0.262 N 
HETATM    5  H   UNL     1      43.375 -30.551   2.616  1.00  0.00     0.191 HD
HETATM    6  C   UNL     1      44.845 -30.267   1.079  1.00  0.00     0.134 A 
HETATM    7  C   UNL     1      44.951 -30.939  -0.129  1.00  0.00     0.032 A 
HETATM    8  C   UNL     1      45.992 -30.905  -1.209  1.00  0.00     0.120 C 
HETATM    9  S   UNL     1      47.518 -29.996  -0.868  1.00  0.00    -0.141 SA
HETATM   10  C   UNL     1      46.957 -28.418  -0.174  1.00  0.00     0.136 C 
HETATM   11  C   UNL     1      45.917 -27.622  -0.944  1.00  0.00     0.031 C 
HETATM   12  C   UNL     1      46.598 -28.534   1.295  1.00  0.00     0.236 C 
HETATM   13  O   UNL     1      47.173 -27.828   2.134  1.00  0.00    -0.272 OA
HETATM   14  N   UNL     1      45.569 -29.303   1.742  1.00  0.00    -0.311 N 
HETATM   15  H   UNL     1      45.383 -29.141   2.726  1.00  0.00     0.170 HD
ENDROOT
BRANCH   8  16
HETATM   16  C   UNL     1      45.372 -30.612  -2.584  1.00  0.00    -0.029 A 
HETATM   17  C   UNL     1      45.901 -31.234  -3.771  1.00  0.00    -0.018 A 
HETATM   18  C   UNL     1      45.291 -30.957  -5.025  1.00  0.00    -0.025 A 
HETATM   19  C   UNL     1      47.002 -32.128  -3.792  1.00  0.00     0.013 A 
HETATM   20  C   UNL     1      45.771 -31.555  -6.204  1.00  0.00     0.012 A 
HETATM   21  C   UNL     1      44.200 -30.086  -5.103  1.00  0.00     0.012 A 
HETATM   22  C   UNL     1      46.852 -32.431  -6.178  1.00  0.00     0.001 A 
HETATM   23  C   UNL     1      47.470 -32.717  -4.972  1.00  0.00     0.001 A 
HETATM   24  C   UNL     1      43.688 -29.485  -3.962  1.00  0.00     0.002 A 
HETATM   25  C   UNL     1      44.264 -29.746  -2.723  1.00  0.00     0.009 A 
ENDBRANCH   8  16
TORSDOF 1
ENDMDL
