MODEL 1
REMARK VINA RESULT:      -8.4      0.000      0.000
REMARK  5 active torsions:
REMARK  status: ('A' for Active; 'I' for Inactive)
REMARK    1  A    between atoms: C_9  and  C_10 
REMARK       I    between atoms: C_10  and  N_11 
REMARK    2  A    between atoms: N_11  and  C_12 
REMARK    3  A    between atoms: C_12  and  C_13 
REMARK    4  A    between atoms: C_15  and  O_16 
REMARK    5  A    between atoms: O_16  and  C_17 
ROOT
HETATM    1  C   UNL     1      43.204 -14.794   6.566  1.00  0.00     0.273 C 
HETATM    2  N   UNL     1      43.223 -13.591   5.899  1.00  0.00    -0.351 N 
HETATM    3  O   UNL     1      42.922 -14.905   7.754  1.00  0.00    -0.266 OA
HETATM    4  H   UNL     1      43.492 -13.632   4.919  1.00  0.00     0.163 HD
ENDROOT
BRANCH   2   5
HETATM    5  C   UNL     1      42.863 -12.340   6.512  1.00  0.00     0.161 C 
BRANCH   5   6
HETATM    6  C   UNL     1      44.061 -11.620   7.071  1.00  0.00    -0.035 A 
HETATM    7  C   UNL     1      44.063 -11.100   8.370  1.00  0.00     0.066 A 
HETATM    8  C   UNL     1      45.201 -10.462   8.833  1.00  0.00     0.164 A 
HETATM    9  N   UNL     1      46.337 -10.329   8.119  1.00  0.00    -0.237 NA
HETATM   10  C   UNL     1      46.329 -10.864   6.880  1.00  0.00     0.120 A 
HETATM   11  C   UNL     1      45.236 -11.508   6.320  1.00  0.00     0.028 A 
BRANCH   8  12
HETATM   12  O   UNL     1      45.136  -9.932  10.109  1.00  0.00    -0.329 OA
BRANCH  12  13
HETATM   13  C   UNL     1      43.816  -9.816  10.681  1.00  0.00     0.130 C 
HETATM   14  C   UNL     1      43.491 -10.734  11.891  1.00  0.00     0.032 C 
HETATM   15  C   UNL     1      42.754  -9.539  12.521  1.00  0.00     0.005 C 
HETATM   16  C   UNL     1      43.640  -8.624  11.658  1.00  0.00     0.032 C 
ENDBRANCH  12  13
ENDBRANCH   8  12
ENDBRANCH   5   6
ENDBRANCH   2   5
BRANCH   1  17
HETATM   17  C   UNL     1      43.539 -15.938   5.701  1.00  0.00     0.157 A 
HETATM   18  C   UNL     1      42.905 -16.312   4.479  1.00  0.00     0.029 A 
HETATM   19  C   UNL     1      41.837 -15.824   3.699  1.00  0.00     0.023 A 
HETATM   20  C   UNL     1      43.596 -17.435   4.042  1.00  0.00     0.063 A 
HETATM   21  C   UNL     1      41.498 -16.480   2.504  1.00  0.00    -0.061 A 
HETATM   22  C   UNL     1      40.368 -15.973   1.655  1.00  0.00     0.048 C 
HETATM   23  C   UNL     1      42.222 -17.609   2.099  1.00  0.00     0.009 A 
HETATM   24  C   UNL     1      43.285 -18.110   2.859  1.00  0.00     0.032 A 
HETATM   25  N   UNL     1      44.557 -17.657   4.988  1.00  0.00    -0.277 N 
HETATM   26  H   UNL     1      45.251 -18.397   4.994  1.00  0.00     0.189 HD
HETATM   27  N   UNL     1      44.556 -16.776   6.005  1.00  0.00    -0.168 NA
ENDBRANCH   1  17
TORSDOF 5
ENDMDL
MODEL 2
REMARK VINA RESULT:      -8.4      1.587      2.363
REMARK  5 active torsions:
REMARK  status: ('A' for Active; 'I' for Inactive)
REMARK    1  A    between atoms: C_9  and  C_10 
REMARK       I    between atoms: C_10  and  N_11 
REMARK    2  A    between atoms: N_11  and  C_12 
REMARK    3  A    between atoms: C_12  and  C_13 
REMARK    4  A    between atoms: C_15  and  O_16 
REMARK    5  A    between atoms: O_16  and  C_17 
ROOT
HETATM    1  C   UNL     1      42.809 -15.055   5.297  1.00  0.00     0.273 C 
HETATM    2  N   UNL     1      42.642 -13.717   5.026  1.00  0.00    -0.351 N 
HETATM    3  O   UNL     1      42.804 -15.522   6.431  1.00  0.00    -0.266 OA
HETATM    4  H   UNL     1      42.686 -13.454   4.044  1.00  0.00     0.163 HD
ENDROOT
BRANCH   2   5
HETATM    5  C   UNL     1      42.388 -12.730   6.041  1.00  0.00     0.161 C 
BRANCH   5   6
HETATM    6  C   UNL     1      43.651 -12.045   6.492  1.00  0.00    -0.035 A 
HETATM    7  C   UNL     1      43.867 -11.716   7.835  1.00  0.00     0.066 A 
HETATM    8  C   UNL     1      45.056 -11.102   8.189  1.00  0.00     0.164 A 
HETATM    9  N   UNL     1      46.050 -10.820   7.323  1.00  0.00    -0.237 NA
HETATM   10  C   UNL     1      45.838 -11.173   6.038  1.00  0.00     0.120 A 
HETATM   11  C   UNL     1      44.677 -11.778   5.580  1.00  0.00     0.028 A 
BRANCH   8  12
HETATM   12  O   UNL     1      45.202 -10.763   9.522  1.00  0.00    -0.329 OA
BRANCH  12  13
HETATM   13  C   UNL     1      44.018 -10.272  10.185  1.00  0.00     0.130 C 
HETATM   14  C   UNL     1      43.689 -10.878  11.577  1.00  0.00     0.032 C 
HETATM   15  C   UNL     1      43.286  -9.464  12.029  1.00  0.00     0.005 C 
HETATM   16  C   UNL     1      44.206  -8.920  10.922  1.00  0.00     0.032 C 
ENDBRANCH  12  13
ENDBRANCH   8  12
ENDBRANCH   5   6
ENDBRANCH   2   5
BRANCH   1  17
HETATM   17  C   UNL     1      42.980 -15.872   4.083  1.00  0.00     0.157 A 
HETATM   18  C   UNL     1      43.332 -17.252   4.013  1.00  0.00     0.029 A 
HETATM   19  C   UNL     1      43.632 -18.271   4.939  1.00  0.00     0.023 A 
HETATM   20  C   UNL     1      43.342 -17.554   2.658  1.00  0.00     0.063 A 
HETATM   21  C   UNL     1      43.933 -19.562   4.474  1.00  0.00    -0.061 A 
HETATM   22  C   UNL     1      44.251 -20.663   5.444  1.00  0.00     0.048 C 
HETATM   23  C   UNL     1      43.932 -19.824   3.098  1.00  0.00     0.009 A 
HETATM   24  C   UNL     1      43.636 -18.827   2.162  1.00  0.00     0.032 A 
HETATM   25  N   UNL     1      43.014 -16.387   2.025  1.00  0.00    -0.277 N 
HETATM   26  H   UNL     1      42.923 -16.236   1.027  1.00  0.00     0.189 HD
HETATM   27  N   UNL     1      42.788 -15.349   2.850  1.00  0.00    -0.168 NA
ENDBRANCH   1  17
TORSDOF 5
ENDMDL
MODEL 3
REMARK VINA RESULT:      -8.3      2.060      8.839
REMARK  5 active torsions:
REMARK  status: ('A' for Active; 'I' for Inactive)
REMARK    1  A    between atoms: C_9  and  C_10 
REMARK       I    between atoms: C_10  and  N_11 
REMARK    2  A    between atoms: N_11  and  C_12 
REMARK    3  A    between atoms: C_12  and  C_13 
REMARK    4  A    between atoms: C_15  and  O_16 
REMARK    5  A    between atoms: O_16  and  C_17 
ROOT
HETATM    1  C   UNL     1      43.587 -12.886   6.561  1.00  0.00     0.273 C 
HETATM    2  N   UNL     1      42.721 -12.494   5.566  1.00  0.00    -0.351 N 
HETATM    3  O   UNL     1      43.550 -13.991   7.094  1.00  0.00    -0.266 OA
HETATM    4  H   UNL     1      42.844 -11.545   5.221  1.00  0.00     0.163 HD
ENDROOT
BRANCH   2   5
HETATM    5  C   UNL     1      41.715 -13.357   5.008  1.00  0.00     0.161 C 
BRANCH   5   6
HETATM    6  C   UNL     1      42.267 -14.236   3.917  1.00  0.00    -0.035 A 
HETATM    7  C   UNL     1      41.973 -15.603   3.859  1.00  0.00     0.066 A 
HETATM    8  C   UNL     1      42.498 -16.356   2.822  1.00  0.00     0.164 A 
HETATM    9  N   UNL     1      43.262 -15.852   1.832  1.00  0.00    -0.237 NA
HETATM   10  C   UNL     1      43.510 -14.527   1.887  1.00  0.00     0.120 A 
HETATM   11  C   UNL     1      43.043 -13.690   2.890  1.00  0.00     0.028 A 
BRANCH   8  12
HETATM   12  O   UNL     1      42.208 -17.708   2.833  1.00  0.00    -0.329 OA
BRANCH  12  13
HETATM   13  C   UNL     1      43.286 -18.591   2.459  1.00  0.00     0.130 C 
HETATM   14  C   UNL     1      43.972 -19.387   3.601  1.00  0.00     0.032 C 
HETATM   15  C   UNL     1      44.017 -20.596   2.650  1.00  0.00     0.005 C 
HETATM   16  C   UNL     1      42.830 -19.965   1.902  1.00  0.00     0.032 C 
ENDBRANCH  12  13
ENDBRANCH   8  12
ENDBRANCH   5   6
ENDBRANCH   2   5
BRANCH   1  17
HETATM   17  C   UNL     1      44.573 -11.850   6.909  1.00  0.00     0.157 A 
HETATM   18  C   UNL     1      44.594 -11.036   8.080  1.00  0.00     0.029 A 
HETATM   19  C   UNL     1      43.793 -10.892   9.230  1.00  0.00     0.023 A 
HETATM   20  C   UNL     1      45.725 -10.241   7.947  1.00  0.00     0.063 A 
HETATM   21  C   UNL     1      44.154  -9.953  10.211  1.00  0.00    -0.061 A 
HETATM   22  C   UNL     1      43.317  -9.788  11.447  1.00  0.00     0.048 C 
HETATM   23  C   UNL     1      45.303  -9.172  10.038  1.00  0.00     0.009 A 
HETATM   24  C   UNL     1      46.112  -9.299   8.904  1.00  0.00     0.032 A 
HETATM   25  N   UNL     1      46.286 -10.607   6.755  1.00  0.00    -0.277 N 
HETATM   26  H   UNL     1      47.130 -10.234   6.335  1.00  0.00     0.189 HD
HETATM   27  N   UNL     1      45.620 -11.575   6.098  1.00  0.00    -0.168 NA
ENDBRANCH   1  17
TORSDOF 5
ENDMDL
MODEL 4
REMARK VINA RESULT:      -8.3      1.815      2.384
REMARK  5 active torsions:
REMARK  status: ('A' for Active; 'I' for Inactive)
REMARK    1  A    between atoms: C_9  and  C_10 
REMARK       I    between atoms: C_10  and  N_11 
REMARK    2  A    between atoms: N_11  and  C_12 
REMARK    3  A    between atoms: C_12  and  C_13 
REMARK    4  A    between atoms: C_15  and  O_16 
REMARK    5  A    between atoms: O_16  and  C_17 
ROOT
HETATM    1  C   UNL     1      42.981 -14.976   5.081  1.00  0.00     0.273 C 
HETATM    2  N   UNL     1      43.434 -13.923   5.842  1.00  0.00    -0.351 N 
HETATM    3  O   UNL     1      42.491 -14.843   3.964  1.00  0.00    -0.266 OA
HETATM    4  H   UNL     1      43.800 -14.164   6.759  1.00  0.00     0.163 HD
ENDROOT
BRANCH   2   5
HETATM    5  C   UNL     1      43.430 -12.558   5.385  1.00  0.00     0.161 C 
BRANCH   5   6
HETATM    6  C   UNL     1      44.089 -11.631   6.372  1.00  0.00    -0.035 A 
HETATM    7  C   UNL     1      43.337 -10.842   7.250  1.00  0.00     0.066 A 
HETATM    8  C   UNL     1      44.001 -10.021   8.146  1.00  0.00     0.164 A 
HETATM    9  N   UNL     1      45.343  -9.949   8.254  1.00  0.00    -0.237 NA
HETATM   10  C   UNL     1      46.052 -10.740   7.422  1.00  0.00     0.120 A 
HETATM   11  C   UNL     1      45.482 -11.584   6.480  1.00  0.00     0.028 A 
BRANCH   8  12
HETATM   12  O   UNL     1      43.211  -9.234   8.963  1.00  0.00    -0.329 OA
BRANCH  12  13
HETATM   13  C   UNL     1      43.799  -8.833  10.219  1.00  0.00     0.130 C 
HETATM   14  C   UNL     1      43.059  -7.730  11.022  1.00  0.00     0.032 C 
HETATM   15  C   UNL     1      43.381  -8.527  12.298  1.00  0.00     0.005 C 
HETATM   16  C   UNL     1      43.486  -9.778  11.408  1.00  0.00     0.032 C 
ENDBRANCH  12  13
ENDBRANCH   8  12
ENDBRANCH   5   6
ENDBRANCH   2   5
BRANCH   1  17
HETATM   17  C   UNL     1      43.160 -16.281   5.739  1.00  0.00     0.157 A 
HETATM   18  C   UNL     1      43.403 -17.539   5.112  1.00  0.00     0.029 A 
HETATM   19  C   UNL     1      43.544 -18.002   3.788  1.00  0.00     0.023 A 
HETATM   20  C   UNL     1      43.519 -18.447   6.155  1.00  0.00     0.063 A 
HETATM   21  C   UNL     1      43.798 -19.364   3.555  1.00  0.00    -0.061 A 
HETATM   22  C   UNL     1      43.957 -19.877   2.153  1.00  0.00     0.048 C 
HETATM   23  C   UNL     1      43.908 -20.247   4.637  1.00  0.00     0.009 A 
HETATM   24  C   UNL     1      43.771 -19.808   5.959  1.00  0.00     0.032 A 
HETATM   25  N   UNL     1      43.342 -17.712   7.295  1.00  0.00    -0.277 N 
HETATM   26  H   UNL     1      43.363 -18.049   8.250  1.00  0.00     0.189 HD
HETATM   27  N   UNL     1      43.123 -16.401   7.086  1.00  0.00    -0.168 NA
ENDBRANCH   1  17
TORSDOF 5
ENDMDL
MODEL 5
REMARK VINA RESULT:      -8.2      5.375      8.099
REMARK  5 active torsions:
REMARK  status: ('A' for Active; 'I' for Inactive)
REMARK    1  A    between atoms: C_9  and  C_10 
REMARK       I    between atoms: C_10  and  N_11 
REMARK    2  A    between atoms: N_11  and  C_12 
REMARK    3  A    between atoms: C_12  and  C_13 
REMARK    4  A    between atoms: C_15  and  O_16 
REMARK    5  A    between atoms: O_16  and  C_17 
ROOT
HETATM    1  C   UNL     1      43.217 -15.019   3.127  1.00  0.00     0.273 C 
HETATM    2  N   UNL     1      42.964 -13.793   3.697  1.00  0.00    -0.351 N 
HETATM    3  O   UNL     1      43.279 -15.202   1.915  1.00  0.00    -0.266 OA
HETATM    4  H   UNL     1      42.919 -13.777   4.713  1.00  0.00     0.163 HD
ENDROOT
BRANCH   2   5
HETATM    5  C   UNL     1      42.798 -12.584   2.934  1.00  0.00     0.161 C 
BRANCH   5   6
HETATM    6  C   UNL     1      41.397 -12.441   2.402  1.00  0.00    -0.035 A 
HETATM    7  C   UNL     1      41.139 -12.372   1.028  1.00  0.00     0.066 A 
HETATM    8  C   UNL     1      39.828 -12.256   0.599  1.00  0.00     0.164 A 
HETATM    9  N   UNL     1      38.761 -12.234   1.424  1.00  0.00    -0.237 NA
HETATM   10  C   UNL     1      39.026 -12.333   2.743  1.00  0.00     0.120 A 
HETATM   11  C   UNL     1      40.303 -12.437   3.273  1.00  0.00     0.028 A 
BRANCH   8  12
HETATM   12  O   UNL     1      39.631 -12.153  -0.766  1.00  0.00    -0.329 OA
BRANCH  12  13
HETATM   13  C   UNL     1      38.813 -13.177  -1.369  1.00  0.00     0.130 C 
HETATM   14  C   UNL     1      38.910 -13.339  -2.910  1.00  0.00     0.032 C 
HETATM   15  C   UNL     1      38.858 -14.861  -2.693  1.00  0.00     0.005 C 
HETATM   16  C   UNL     1      39.401 -14.610  -1.275  1.00  0.00     0.032 C 
ENDBRANCH  12  13
ENDBRANCH   8  12
ENDBRANCH   5   6
ENDBRANCH   2   5
BRANCH   1  17
HETATM   17  C   UNL     1      43.423 -16.085   4.121  1.00  0.00     0.157 A 
HETATM   18  C   UNL     1      43.562 -17.483   3.872  1.00  0.00     0.029 A 
HETATM   19  C   UNL     1      43.554 -18.317   2.736  1.00  0.00     0.023 A 
HETATM   20  C   UNL     1      43.756 -18.055   5.123  1.00  0.00     0.063 A 
HETATM   21  C   UNL     1      43.741 -19.701   2.893  1.00  0.00    -0.061 A 
HETATM   22  C   UNL     1      43.740 -20.607   1.696  1.00  0.00     0.048 C 
HETATM   23  C   UNL     1      43.934 -20.237   4.173  1.00  0.00     0.009 A 
HETATM   24  C   UNL     1      43.945 -19.426   5.314  1.00  0.00     0.032 A 
HETATM   25  N   UNL     1      43.719 -17.012   6.006  1.00  0.00    -0.277 N 
HETATM   26  H   UNL     1      43.827 -17.059   7.013  1.00  0.00     0.189 HD
HETATM   27  N   UNL     1      43.519 -15.808   5.441  1.00  0.00    -0.168 NA
ENDBRANCH   1  17
TORSDOF 5
ENDMDL
MODEL 6
REMARK VINA RESULT:      -8.2      1.758      8.535
REMARK  5 active torsions:
REMARK  status: ('A' for Active; 'I' for Inactive)
REMARK    1  A    between atoms: C_9  and  C_10 
REMARK       I    between atoms: C_10  and  N_11 
REMARK    2  A    between atoms: N_11  and  C_12 
REMARK    3  A    between atoms: C_12  and  C_13 
REMARK    4  A    between atoms: C_15  and  O_16 
REMARK    5  A    between atoms: O_16  and  C_17 
ROOT
HETATM    1  C   UNL     1      43.342 -12.750   6.551  1.00  0.00     0.273 C 
HETATM    2  N   UNL     1      43.446 -13.922   7.266  1.00  0.00    -0.351 N 
HETATM    3  O   UNL     1      42.464 -12.540   5.721  1.00  0.00    -0.266 OA
HETATM    4  H   UNL     1      44.230 -13.979   7.911  1.00  0.00     0.163 HD
ENDROOT
BRANCH   2   5
HETATM    5  C   UNL     1      42.504 -15.004   7.152  1.00  0.00     0.161 C 
BRANCH   5   6
HETATM    6  C   UNL     1      42.870 -15.957   6.045  1.00  0.00    -0.035 A 
HETATM    7  C   UNL     1      42.127 -16.025   4.862  1.00  0.00     0.066 A 
HETATM    8  C   UNL     1      42.523 -16.910   3.874  1.00  0.00     0.164 A 
HETATM    9  N   UNL     1      43.609 -17.705   3.961  1.00  0.00    -0.237 NA
HETATM   10  C   UNL     1      44.332 -17.603   5.096  1.00  0.00     0.120 A 
HETATM   11  C   UNL     1      44.010 -16.760   6.148  1.00  0.00     0.028 A 
BRANCH   8  12
HETATM   12  O   UNL     1      41.731 -16.965   2.741  1.00  0.00    -0.329 OA
BRANCH  12  13
HETATM   13  C   UNL     1      41.068 -15.738   2.370  1.00  0.00     0.130 C 
HETATM   14  C   UNL     1      41.739 -14.883   1.262  1.00  0.00     0.032 C 
HETATM   15  C   UNL     1      40.331 -14.614   0.702  1.00  0.00     0.005 C 
HETATM   16  C   UNL     1      39.884 -15.918   1.384  1.00  0.00     0.032 C 
ENDBRANCH  12  13
ENDBRANCH   8  12
ENDBRANCH   5   6
ENDBRANCH   2   5
BRANCH   1  17
HETATM   17  C   UNL     1      44.382 -11.769   6.900  1.00  0.00     0.157 A 
HETATM   18  C   UNL     1      44.479 -11.001   8.098  1.00  0.00     0.029 A 
HETATM   19  C   UNL     1      43.725 -10.868   9.281  1.00  0.00     0.023 A 
HETATM   20  C   UNL     1      45.637 -10.249   7.954  1.00  0.00     0.063 A 
HETATM   21  C   UNL     1      44.159  -9.982  10.282  1.00  0.00    -0.061 A 
HETATM   22  C   UNL     1      43.373  -9.829  11.552  1.00  0.00     0.048 C 
HETATM   23  C   UNL     1      45.334  -9.242  10.096  1.00  0.00     0.009 A 
HETATM   24  C   UNL     1      46.097  -9.360   8.929  1.00  0.00     0.032 A 
HETATM   25  N   UNL     1      46.140 -10.593   6.730  1.00  0.00    -0.277 N 
HETATM   26  H   UNL     1      46.984 -10.240   6.293  1.00  0.00     0.189 HD
HETATM   27  N   UNL     1      45.412 -11.507   6.063  1.00  0.00    -0.168 NA
ENDBRANCH   1  17
TORSDOF 5
ENDMDL
MODEL 7
REMARK VINA RESULT:      -8.1      3.315      5.639
REMARK  5 active torsions:
REMARK  status: ('A' for Active; 'I' for Inactive)
REMARK    1  A    between atoms: C_9  and  C_10 
REMARK       I    between atoms: C_10  and  N_11 
REMARK    2  A    between atoms: N_11  and  C_12 
REMARK    3  A    between atoms: C_12  and  C_13 
REMARK    4  A    between atoms: C_15  and  O_16 
REMARK    5  A    between atoms: O_16  and  C_17 
ROOT
HETATM    1  C   UNL     1      43.264 -15.709   7.100  1.00  0.00     0.273 C 
HETATM    2  N   UNL     1      43.640 -14.614   6.357  1.00  0.00    -0.351 N 
HETATM    3  O   UNL     1      42.833 -15.634   8.246  1.00  0.00    -0.266 OA
HETATM    4  H   UNL     1      43.999 -14.812   5.426  1.00  0.00     0.163 HD
ENDROOT
BRANCH   2   5
HETATM    5  C   UNL     1      43.517 -13.259   6.826  1.00  0.00     0.161 C 
BRANCH   5   6
HETATM    6  C   UNL     1      42.486 -12.484   6.049  1.00  0.00    -0.035 A 
HETATM    7  C   UNL     1      41.584 -13.122   5.190  1.00  0.00     0.066 A 
HETATM    8  C   UNL     1      40.648 -12.356   4.515  1.00  0.00     0.164 A 
HETATM    9  N   UNL     1      40.524 -11.020   4.651  1.00  0.00    -0.237 NA
HETATM   10  C   UNL     1      41.381 -10.426   5.508  1.00  0.00     0.120 A 
HETATM   11  C   UNL     1      42.362 -11.101   6.218  1.00  0.00     0.028 A 
BRANCH   8  12
HETATM   12  O   UNL     1      39.807 -13.031   3.650  1.00  0.00    -0.329 OA
BRANCH  12  13
HETATM   13  C   UNL     1      40.439 -13.963   2.748  1.00  0.00     0.130 C 
HETATM   14  C   UNL     1      39.839 -15.393   2.679  1.00  0.00     0.032 C 
HETATM   15  C   UNL     1      40.061 -15.348   1.158  1.00  0.00     0.005 C 
HETATM   16  C   UNL     1      40.013 -13.814   1.264  1.00  0.00     0.032 C 
ENDBRANCH  12  13
ENDBRANCH   8  12
ENDBRANCH   5   6
ENDBRANCH   2   5
BRANCH   1  17
HETATM   17  C   UNL     1      43.416 -16.979   6.371  1.00  0.00     0.157 A 
HETATM   18  C   UNL     1      43.447 -17.166   4.957  1.00  0.00     0.029 A 
HETATM   19  C   UNL     1      43.351 -16.336   3.822  1.00  0.00     0.023 A 
HETATM   20  C   UNL     1      43.630 -18.531   4.776  1.00  0.00     0.063 A 
HETATM   21  C   UNL     1      43.441 -16.905   2.540  1.00  0.00    -0.061 A 
HETATM   22  C   UNL     1      43.345 -16.038   1.318  1.00  0.00     0.048 C 
HETATM   23  C   UNL     1      43.625 -18.286   2.402  1.00  0.00     0.009 A 
HETATM   24  C   UNL     1      43.723 -19.128   3.516  1.00  0.00     0.032 A 
HETATM   25  N   UNL     1      43.690 -19.057   6.037  1.00  0.00    -0.277 N 
HETATM   26  H   UNL     1      43.819 -20.030   6.288  1.00  0.00     0.189 HD
HETATM   27  N   UNL     1      43.564 -18.153   7.026  1.00  0.00    -0.168 NA
ENDBRANCH   1  17
TORSDOF 5
ENDMDL
MODEL 8
REMARK VINA RESULT:      -8.1      2.179      3.294
REMARK  5 active torsions:
REMARK  status: ('A' for Active; 'I' for Inactive)
REMARK    1  A    between atoms: C_9  and  C_10 
REMARK       I    between atoms: C_10  and  N_11 
REMARK    2  A    between atoms: N_11  and  C_12 
REMARK    3  A    between atoms: C_12  and  C_13 
REMARK    4  A    between atoms: C_15  and  O_16 
REMARK    5  A    between atoms: O_16  and  C_17 
ROOT
HETATM    1  C   UNL     1      42.888 -15.364   3.931  1.00  0.00     0.273 C 
HETATM    2  N   UNL     1      41.846 -14.688   4.523  1.00  0.00    -0.351 N 
HETATM    3  O   UNL     1      43.434 -14.994   2.897  1.00  0.00    -0.266 OA
HETATM    4  H   UNL     1      41.467 -15.109   5.368  1.00  0.00     0.163 HD
ENDROOT
BRANCH   2   5
HETATM    5  C   UNL     1      41.322 -13.446   4.021  1.00  0.00     0.161 C 
BRANCH   5   6
HETATM    6  C   UNL     1      41.766 -12.269   4.849  1.00  0.00    -0.035 A 
HETATM    7  C   UNL     1      42.571 -12.434   5.981  1.00  0.00     0.066 A 
HETATM    8  C   UNL     1      42.961 -11.312   6.693  1.00  0.00     0.164 A 
HETATM    9  N   UNL     1      42.636 -10.048   6.351  1.00  0.00    -0.237 NA
HETATM   10  C   UNL     1      41.885  -9.906   5.239  1.00  0.00     0.120 A 
HETATM   11  C   UNL     1      41.433 -10.966   4.467  1.00  0.00     0.028 A 
BRANCH   8  12
HETATM   12  O   UNL     1      43.724 -11.533   7.825  1.00  0.00    -0.329 OA
BRANCH  12  13
HETATM   13  C   UNL     1      44.058 -10.364   8.603  1.00  0.00     0.130 C 
HETATM   14  C   UNL     1      43.990 -10.504  10.148  1.00  0.00     0.032 C 
HETATM   15  C   UNL     1      45.275  -9.661  10.220  1.00  0.00     0.005 C 
HETATM   16  C   UNL     1      45.580 -10.125   8.785  1.00  0.00     0.032 C 
ENDBRANCH  12  13
ENDBRANCH   8  12
ENDBRANCH   5   6
ENDBRANCH   2   5
BRANCH   1  17
HETATM   17  C   UNL     1      43.291 -16.568   4.677  1.00  0.00     0.157 A 
HETATM   18  C   UNL     1      43.456 -17.888   4.162  1.00  0.00     0.029 A 
HETATM   19  C   UNL     1      43.316 -18.512   2.906  1.00  0.00     0.023 A 
HETATM   20  C   UNL     1      43.862 -18.652   5.248  1.00  0.00     0.063 A 
HETATM   21  C   UNL     1      43.589 -19.884   2.782  1.00  0.00    -0.061 A 
HETATM   22  C   UNL     1      43.451 -20.568   1.451  1.00  0.00     0.048 C 
HETATM   23  C   UNL     1      43.997 -20.618   3.903  1.00  0.00     0.009 A 
HETATM   24  C   UNL     1      44.142 -20.018   5.159  1.00  0.00     0.032 A 
HETATM   25  N   UNL     1      43.909 -17.783   6.303  1.00  0.00    -0.277 N 
HETATM   26  H   UNL     1      44.170 -17.994   7.259  1.00  0.00     0.189 HD
HETATM   27  N   UNL     1      43.571 -16.517   5.999  1.00  0.00    -0.168 NA
ENDBRANCH   1  17
TORSDOF 5
ENDMDL
MODEL 9
REMARK VINA RESULT:      -8.0      2.298      3.042
REMARK  5 active torsions:
REMARK  status: ('A' for Active; 'I' for Inactive)
REMARK    1  A    between atoms: C_9  and  C_10 
REMARK       I    between atoms: C_10  and  N_11 
REMARK    2  A    between atoms: N_11  and  C_12 
REMARK    3  A    between atoms: C_12  and  C_13 
REMARK    4  A    between atoms: C_15  and  O_16 
REMARK    5  A    between atoms: O_16  and  C_17 
ROOT
HETATM    1  C   UNL     1      40.318 -12.439   5.417  1.00  0.00     0.273 C 
HETATM    2  N   UNL     1      41.356 -11.551   5.255  1.00  0.00    -0.351 N 
HETATM    3  O   UNL     1      39.578 -12.444   6.395  1.00  0.00    -0.266 OA
HETATM    4  H   UNL     1      41.908 -11.663   4.408  1.00  0.00     0.163 HD
ENDROOT
BRANCH   2   5
HETATM    5  C   UNL     1      41.652 -10.500   6.192  1.00  0.00     0.161 C 
BRANCH   5   6
HETATM    6  C   UNL     1      42.978 -10.708   6.875  1.00  0.00    -0.035 A 
HETATM    7  C   UNL     1      43.228 -10.206   8.157  1.00  0.00     0.066 A 
HETATM    8  C   UNL     1      44.462 -10.444   8.739  1.00  0.00     0.164 A 
HETATM    9  N   UNL     1      45.445 -11.162   8.159  1.00  0.00    -0.237 NA
HETATM   10  C   UNL     1      45.175 -11.666   6.937  1.00  0.00     0.120 A 
HETATM   11  C   UNL     1      43.978 -11.471   6.264  1.00  0.00     0.028 A 
BRANCH   8  12
HETATM   12  O   UNL     1      44.671  -9.893   9.990  1.00  0.00    -0.329 OA
BRANCH  12  13
HETATM   13  C   UNL     1      43.489  -9.649  10.781  1.00  0.00     0.130 C 
HETATM   14  C   UNL     1      43.227 -10.613  11.970  1.00  0.00     0.032 C 
HETATM   15  C   UNL     1      42.782  -9.387  12.787  1.00  0.00     0.005 C 
HETATM   16  C   UNL     1      43.646  -8.530  11.844  1.00  0.00     0.032 C 
ENDBRANCH  12  13
ENDBRANCH   8  12
ENDBRANCH   5   6
ENDBRANCH   2   5
BRANCH   1  17
HETATM   17  C   UNL     1      40.175 -13.370   4.286  1.00  0.00     0.157 A 
HETATM   18  C   UNL     1      40.975 -14.518   4.006  1.00  0.00     0.029 A 
HETATM   19  C   UNL     1      42.084 -15.151   4.601  1.00  0.00     0.023 A 
HETATM   20  C   UNL     1      40.429 -15.067   2.853  1.00  0.00     0.063 A 
HETATM   21  C   UNL     1      42.610 -16.316   4.018  1.00  0.00    -0.061 A 
HETATM   22  C   UNL     1      43.789 -17.009   4.639  1.00  0.00     0.048 C 
HETATM   23  C   UNL     1      42.029 -16.837   2.855  1.00  0.00     0.009 A 
HETATM   24  C   UNL     1      40.927 -16.224   2.249  1.00  0.00     0.032 A 
HETATM   25  N   UNL     1      39.384 -14.249   2.524  1.00  0.00    -0.277 N 
HETATM   26  H   UNL     1      38.754 -14.347   1.736  1.00  0.00     0.189 HD
HETATM   27  N   UNL     1      39.199 -13.213   3.363  1.00  0.00    -0.168 NA
ENDBRANCH   1  17
TORSDOF 5
ENDMDL
MODEL 10
REMARK VINA RESULT:      -7.9      4.861      8.090
REMARK  5 active torsions:
REMARK  status: ('A' for Active; 'I' for Inactive)
REMARK    1  A    between atoms: C_9  and  C_10 
REMARK       I    between atoms: C_10  and  N_11 
REMARK    2  A    between atoms: N_11  and  C_12 
REMARK    3  A    between atoms: C_12  and  C_13 
REMARK    4  A    between atoms: C_15  and  O_16 
REMARK    5  A    between atoms: O_16  and  C_17 
ROOT
HETATM    1  C   UNL     1      40.757 -14.479   5.945  1.00  0.00     0.273 C 
HETATM    2  N   UNL     1      41.117 -13.808   4.799  1.00  0.00    -0.351 N 
HETATM    3  O   UNL     1      39.764 -14.199   6.609  1.00  0.00    -0.266 OA
HETATM    4  H   UNL     1      41.974 -14.125   4.351  1.00  0.00     0.163 HD
ENDROOT
BRANCH   2   5
HETATM    5  C   UNL     1      40.338 -12.741   4.228  1.00  0.00     0.161 C 
BRANCH   5   6
HETATM    6  C   UNL     1      40.516 -12.649   2.736  1.00  0.00    -0.035 A 
HETATM    7  C   UNL     1      39.940 -13.585   1.871  1.00  0.00     0.066 A 
HETATM    8  C   UNL     1      40.126 -13.437   0.507  1.00  0.00     0.164 A 
HETATM    9  N   UNL     1      40.810 -12.421  -0.058  1.00  0.00    -0.237 NA
HETATM   10  C   UNL     1      41.331 -11.510   0.790  1.00  0.00     0.120 A 
HETATM   11  C   UNL     1      41.214 -11.577   2.170  1.00  0.00     0.028 A 
BRANCH   8  12
HETATM   12  O   UNL     1      39.569 -14.411  -0.302  1.00  0.00    -0.329 OA
BRANCH  12  13
HETATM   13  C   UNL     1      39.384 -14.056  -1.688  1.00  0.00     0.130 C 
HETATM   14  C   UNL     1      38.918 -15.185  -2.647  1.00  0.00     0.032 C 
HETATM   15  C   UNL     1      38.001 -14.150  -3.321  1.00  0.00     0.005 C 
HETATM   16  C   UNL     1      38.033 -13.361  -2.001  1.00  0.00     0.032 C 
ENDBRANCH  12  13
ENDBRANCH   8  12
ENDBRANCH   5   6
ENDBRANCH   2   5
BRANCH   1  17
HETATM   17  C   UNL     1      41.677 -15.578   6.282  1.00  0.00     0.157 A 
HETATM   18  C   UNL     1      42.317 -16.477   5.378  1.00  0.00     0.029 A 
HETATM   19  C   UNL     1      42.333 -16.672   3.983  1.00  0.00     0.023 A 
HETATM   20  C   UNL     1      43.091 -17.306   6.180  1.00  0.00     0.063 A 
HETATM   21  C   UNL     1      43.126 -17.695   3.437  1.00  0.00    -0.061 A 
HETATM   22  C   UNL     1      43.161 -17.917   1.952  1.00  0.00     0.048 C 
HETATM   23  C   UNL     1      43.893 -18.508   4.281  1.00  0.00     0.009 A 
HETATM   24  C   UNL     1      43.891 -18.331   5.669  1.00  0.00     0.032 A 
HETATM   25  N   UNL     1      42.874 -16.875   7.459  1.00  0.00    -0.277 N 
HETATM   26  H   UNL     1      43.281 -17.250   8.309  1.00  0.00     0.189 HD
HETATM   27  N   UNL     1      42.026 -15.835   7.563  1.00  0.00    -0.168 NA
ENDBRANCH   1  17
TORSDOF 5
ENDMDL
