MODEL 1
REMARK VINA RESULT:      -9.9      0.000      0.000
REMARK  4 active torsions:
REMARK  status: ('A' for Active; 'I' for Inactive)
REMARK    1  A    between atoms: C_2  and  N_3 
REMARK    2  A    between atoms: C_10  and  C_11 
REMARK    3  A    between atoms: C_11  and  C_12 
REMARK       I    between atoms: C_12  and  N_13 
REMARK    4  A    between atoms: N_13  and  C_14 
ROOT
HETATM    1  C   UNL     1      43.489 -13.114   6.503  1.00  0.00     0.035 A 
HETATM    2  C   UNL     1      43.969 -12.025   7.231  1.00  0.00     0.049 A 
HETATM    3  C   UNL     1      43.230 -10.826   7.334  1.00  0.00     0.061 A 
HETATM    4  C   UNL     1      41.988 -10.719   6.695  1.00  0.00     0.050 A 
HETATM    5  N   UNL     1      41.093  -9.640   6.798  1.00  0.00    -0.324 N 
HETATM    6  C   UNL     1      40.893  -8.803   7.863  1.00  0.00     0.245 C 
HETATM    7  O   UNL     1      39.915  -8.052   7.833  1.00  0.00    -0.271 OA
HETATM    8  C   UNL     1      41.759  -8.985   9.109  1.00  0.00     0.180 C 
HETATM    9  N   UNL     1      43.166  -8.829   8.776  1.00  0.00    -0.334 N 
HETATM   10  C   UNL     1      43.914  -9.706   8.030  1.00  0.00     0.256 C 
HETATM   11  O   UNL     1      45.133  -9.599   7.926  1.00  0.00    -0.267 OA
HETATM   12  C   UNL     1      41.498  -7.913  10.175  1.00  0.00     0.037 C 
HETATM   13  C   UNL     1      42.872  -7.671  10.785  1.00  0.00     0.022 C 
HETATM   14  C   UNL     1      43.795  -7.801   9.586  1.00  0.00     0.127 C 
HETATM   15  C   UNL     1      41.563 -11.777   5.878  1.00  0.00     0.033 A 
HETATM   16  C   UNL     1      42.296 -12.965   5.794  1.00  0.00     0.032 A 
HETATM   17  H   UNL     1      40.337  -9.576   6.124  1.00  0.00     0.169 HD
ENDROOT
BRANCH   1  18
HETATM   18  N   UNL     1      44.096 -14.388   6.487  1.00  0.00    -0.327 N 
HETATM   19  C   UNL     1      43.653 -15.535   7.126  1.00  0.00     0.226 C 
HETATM   20  O   UNL     1      42.788 -15.578   7.998  1.00  0.00    -0.273 OA
HETATM   21  H   UNL     1      44.928 -14.487   5.917  1.00  0.00     0.169 HD
BRANCH  19  22
HETATM   22  C   UNL     1      44.210 -16.825   6.546  1.00  0.00     0.144 C 
BRANCH  22  23
HETATM   23  C   UNL     1      43.746 -17.157   5.165  1.00  0.00    -0.021 A 
HETATM   24  C   UNL     1      43.789 -18.434   4.521  1.00  0.00    -0.001 A 
HETATM   25  C   UNL     1      43.343 -18.262   3.206  1.00  0.00     0.045 A 
HETATM   26  C   UNL     1      44.187 -19.723   4.940  1.00  0.00     0.014 A 
HETATM   27  N   UNL     1      43.066 -16.917   3.046  1.00  0.00    -0.351 N 
HETATM   28  C   UNL     1      43.269 -19.339   2.306  1.00  0.00     0.030 A 
HETATM   29  C   UNL     1      43.258 -16.260   4.237  1.00  0.00     0.100 A 
HETATM   30  C   UNL     1      43.660 -20.605   2.750  1.00  0.00     0.002 A 
HETATM   31  C   UNL     1      44.116 -20.797   4.048  1.00  0.00     0.001 A 
BRANCH  27  32
HETATM   32  C   UNL     1      42.688 -16.259   1.793  1.00  0.00     0.081 C 
HETATM   33  C   UNL     1      43.521 -14.999   1.540  1.00  0.00     0.032 C 
HETATM   34  C   UNL     1      41.191 -15.957   1.745  1.00  0.00     0.032 C 
ENDBRANCH  27  32
ENDBRANCH  22  23
ENDBRANCH  19  22
ENDBRANCH   1  18
TORSDOF 4
ENDMDL
MODEL 2
REMARK VINA RESULT:      -9.8      2.108      9.301
REMARK  4 active torsions:
REMARK  status: ('A' for Active; 'I' for Inactive)
REMARK    1  A    between atoms: C_2  and  N_3 
REMARK    2  A    between atoms: C_10  and  C_11 
REMARK    3  A    between atoms: C_11  and  C_12 
REMARK       I    between atoms: C_12  and  N_13 
REMARK    4  A    between atoms: N_13  and  C_14 
ROOT
HETATM    1  C   UNL     1      43.751 -12.816   6.903  1.00  0.00     0.035 A 
HETATM    2  C   UNL     1      43.990 -14.171   6.669  1.00  0.00     0.049 A 
HETATM    3  C   UNL     1      43.161 -14.926   5.811  1.00  0.00     0.061 A 
HETATM    4  C   UNL     1      42.074 -14.311   5.178  1.00  0.00     0.050 A 
HETATM    5  N   UNL     1      41.234 -14.899   4.216  1.00  0.00    -0.324 N 
HETATM    6  C   UNL     1      41.545 -15.859   3.291  1.00  0.00     0.245 C 
HETATM    7  O   UNL     1      40.725 -16.090   2.398  1.00  0.00    -0.271 OA
HETATM    8  C   UNL     1      42.959 -16.438   3.287  1.00  0.00     0.180 C 
HETATM    9  N   UNL     1      43.260 -17.052   4.570  1.00  0.00    -0.334 N 
HETATM   10  C   UNL     1      43.452 -16.382   5.752  1.00  0.00     0.256 C 
HETATM   11  O   UNL     1      43.865 -16.946   6.763  1.00  0.00    -0.267 OA
HETATM   12  C   UNL     1      43.131 -17.575   2.271  1.00  0.00     0.037 C 
HETATM   13  C   UNL     1      44.087 -18.536   2.965  1.00  0.00     0.022 C 
HETATM   14  C   UNL     1      43.656 -18.441   4.418  1.00  0.00     0.127 C 
HETATM   15  C   UNL     1      41.778 -12.979   5.501  1.00  0.00     0.033 A 
HETATM   16  C   UNL     1      42.613 -12.236   6.342  1.00  0.00     0.032 A 
HETATM   17  H   UNL     1      40.358 -14.437   3.996  1.00  0.00     0.169 HD
ENDROOT
BRANCH   1  18
HETATM   18  N   UNL     1      44.623 -11.969   7.619  1.00  0.00    -0.327 N 
HETATM   19  C   UNL     1      45.441 -10.978   7.101  1.00  0.00     0.226 C 
HETATM   20  O   UNL     1      45.717 -10.829   5.912  1.00  0.00    -0.273 OA
HETATM   21  H   UNL     1      44.626 -12.068   8.629  1.00  0.00     0.169 HD
BRANCH  19  22
HETATM   22  C   UNL     1      45.875  -9.933   8.117  1.00  0.00     0.144 C 
BRANCH  22  23
HETATM   23  C   UNL     1      44.762  -9.220   8.815  1.00  0.00    -0.021 A 
HETATM   24  C   UNL     1      44.109  -9.611  10.025  1.00  0.00    -0.001 A 
HETATM   25  C   UNL     1      43.067  -8.707  10.258  1.00  0.00     0.045 A 
HETATM   26  C   UNL     1      44.302 -10.673  10.937  1.00  0.00     0.014 A 
HETATM   27  N   UNL     1      43.069  -7.810   9.205  1.00  0.00    -0.351 N 
HETATM   28  C   UNL     1      42.227  -8.822  11.379  1.00  0.00     0.030 A 
HETATM   29  C   UNL     1      44.119  -8.086   8.364  1.00  0.00     0.100 A 
HETATM   30  C   UNL     1      42.448  -9.875  12.270  1.00  0.00     0.002 A 
HETATM   31  C   UNL     1      43.470 -10.791  12.053  1.00  0.00     0.001 A 
BRANCH  27  32
HETATM   32  C   UNL     1      42.075  -6.760   8.967  1.00  0.00     0.081 C 
HETATM   33  C   UNL     1      41.927  -6.448   7.475  1.00  0.00     0.032 C 
HETATM   34  C   UNL     1      42.383  -5.500   9.774  1.00  0.00     0.032 C 
ENDBRANCH  27  32
ENDBRANCH  22  23
ENDBRANCH  19  22
ENDBRANCH   1  18
TORSDOF 4
ENDMDL
MODEL 3
REMARK VINA RESULT:      -9.8      1.902      3.289
REMARK  4 active torsions:
REMARK  status: ('A' for Active; 'I' for Inactive)
REMARK    1  A    between atoms: C_2  and  N_3 
REMARK    2  A    between atoms: C_10  and  C_11 
REMARK    3  A    between atoms: C_11  and  C_12 
REMARK       I    between atoms: C_12  and  N_13 
REMARK    4  A    between atoms: N_13  and  C_14 
ROOT
HETATM    1  C   UNL     1      43.426 -13.146   6.661  1.00  0.00     0.035 A 
HETATM    2  C   UNL     1      42.185 -12.863   6.090  1.00  0.00     0.049 A 
HETATM    3  C   UNL     1      41.677 -11.547   6.049  1.00  0.00     0.061 A 
HETATM    4  C   UNL     1      42.427 -10.496   6.592  1.00  0.00     0.050 A 
HETATM    5  N   UNL     1      42.108  -9.128   6.526  1.00  0.00    -0.324 N 
HETATM    6  C   UNL     1      41.431  -8.462   5.539  1.00  0.00     0.245 C 
HETATM    7  O   UNL     1      41.438  -7.228   5.565  1.00  0.00    -0.271 OA
HETATM    8  C   UNL     1      40.888  -9.263   4.357  1.00  0.00     0.180 C 
HETATM    9  N   UNL     1      39.958 -10.281   4.818  1.00  0.00    -0.334 N 
HETATM   10  C   UNL     1      40.292 -11.406   5.529  1.00  0.00     0.256 C 
HETATM   11  O   UNL     1      39.484 -12.307   5.744  1.00  0.00    -0.267 OA
HETATM   12  C   UNL     1      40.065  -8.404   3.388  1.00  0.00     0.037 C 
HETATM   13  C   UNL     1      38.964  -9.346   2.921  1.00  0.00     0.022 C 
HETATM   14  C   UNL     1      38.664 -10.154   4.171  1.00  0.00     0.127 C 
HETATM   15  C   UNL     1      43.622 -10.802   7.259  1.00  0.00     0.033 A 
HETATM   16  C   UNL     1      44.123 -12.108   7.281  1.00  0.00     0.032 A 
HETATM   17  H   UNL     1      42.602  -8.489   7.139  1.00  0.00     0.169 HD
ENDROOT
BRANCH   1  18
HETATM   18  N   UNL     1      44.061 -14.404   6.596  1.00  0.00    -0.327 N 
HETATM   19  C   UNL     1      43.636 -15.587   7.178  1.00  0.00     0.226 C 
HETATM   20  O   UNL     1      42.763 -15.687   8.038  1.00  0.00    -0.273 OA
HETATM   21  H   UNL     1      44.902 -14.461   6.031  1.00  0.00     0.169 HD
BRANCH  19  22
HETATM   22  C   UNL     1      44.227 -16.839   6.549  1.00  0.00     0.144 C 
BRANCH  22  23
HETATM   23  C   UNL     1      43.756 -17.140   5.163  1.00  0.00    -0.021 A 
HETATM   24  C   UNL     1      43.787 -18.404   4.494  1.00  0.00    -0.001 A 
HETATM   25  C   UNL     1      43.338 -18.203   3.184  1.00  0.00     0.045 A 
HETATM   26  C   UNL     1      44.178 -19.704   4.886  1.00  0.00     0.014 A 
HETATM   27  N   UNL     1      43.069 -16.853   3.052  1.00  0.00    -0.351 N 
HETATM   28  C   UNL     1      43.253 -19.262   2.263  1.00  0.00     0.030 A 
HETATM   29  C   UNL     1      43.271 -16.222   4.255  1.00  0.00     0.100 A 
HETATM   30  C   UNL     1      43.637 -20.539   2.681  1.00  0.00     0.002 A 
HETATM   31  C   UNL     1      44.096 -20.759   3.974  1.00  0.00     0.001 A 
BRANCH  27  32
HETATM   32  C   UNL     1      42.691 -16.168   1.814  1.00  0.00     0.081 C 
HETATM   33  C   UNL     1      43.482 -14.872   1.619  1.00  0.00     0.032 C 
HETATM   34  C   UNL     1      41.185 -15.920   1.746  1.00  0.00     0.032 C 
ENDBRANCH  27  32
ENDBRANCH  22  23
ENDBRANCH  19  22
ENDBRANCH   1  18
TORSDOF 4
ENDMDL
MODEL 4
REMARK VINA RESULT:      -9.7      2.502      9.647
REMARK  4 active torsions:
REMARK  status: ('A' for Active; 'I' for Inactive)
REMARK    1  A    between atoms: C_2  and  N_3 
REMARK    2  A    between atoms: C_10  and  C_11 
REMARK    3  A    between atoms: C_11  and  C_12 
REMARK       I    between atoms: C_12  and  N_13 
REMARK    4  A    between atoms: N_13  and  C_14 
ROOT
HETATM    1  C   UNL     1      43.383 -11.862   6.918  1.00  0.00     0.035 A 
HETATM    2  C   UNL     1      43.196 -13.187   6.521  1.00  0.00     0.049 A 
HETATM    3  C   UNL     1      42.628 -13.506   5.269  1.00  0.00     0.061 A 
HETATM    4  C   UNL     1      42.240 -12.478   4.400  1.00  0.00     0.050 A 
HETATM    5  N   UNL     1      41.769 -12.638   3.085  1.00  0.00    -0.324 N 
HETATM    6  C   UNL     1      42.093 -13.614   2.181  1.00  0.00     0.245 C 
HETATM    7  O   UNL     1      41.735 -13.459   1.010  1.00  0.00    -0.271 OA
HETATM    8  C   UNL     1      43.045 -14.726   2.616  1.00  0.00     0.180 C 
HETATM    9  N   UNL     1      42.499 -15.446   3.755  1.00  0.00    -0.334 N 
HETATM   10  C   UNL     1      42.370 -14.950   5.028  1.00  0.00     0.256 C 
HETATM   11  O   UNL     1      42.056 -15.662   5.978  1.00  0.00    -0.267 OA
HETATM   12  C   UNL     1      43.231 -15.802   1.538  1.00  0.00     0.037 C 
HETATM   13  C   UNL     1      43.361 -17.092   2.337  1.00  0.00     0.022 C 
HETATM   14  C   UNL     1      42.394 -16.869   3.486  1.00  0.00     0.127 C 
HETATM   15  C   UNL     1      42.331 -11.153   4.849  1.00  0.00     0.033 A 
HETATM   16  C   UNL     1      42.908 -10.847   6.086  1.00  0.00     0.032 A 
HETATM   17  H   UNL     1      41.314 -11.849   2.638  1.00  0.00     0.169 HD
ENDROOT
BRANCH   1  18
HETATM   18  N   UNL     1      44.083 -11.473   8.080  1.00  0.00    -0.327 N 
HETATM   19  C   UNL     1      45.319 -10.852   8.144  1.00  0.00     0.226 C 
HETATM   20  O   UNL     1      46.115 -10.747   7.212  1.00  0.00    -0.273 OA
HETATM   21  H   UNL     1      43.615 -11.629   8.966  1.00  0.00     0.169 HD
BRANCH  19  22
HETATM   22  C   UNL     1      45.586 -10.128   9.454  1.00  0.00     0.144 C 
BRANCH  22  23
HETATM   23  C   UNL     1      44.369  -9.683  10.197  1.00  0.00    -0.021 A 
HETATM   24  C   UNL     1      43.634  -8.471  10.008  1.00  0.00    -0.001 A 
HETATM   25  C   UNL     1      42.631  -8.424  10.983  1.00  0.00     0.045 A 
HETATM   26  C   UNL     1      43.747  -7.395   9.098  1.00  0.00     0.014 A 
HETATM   27  N   UNL     1      42.771  -9.559  11.760  1.00  0.00    -0.351 N 
HETATM   28  C   UNL     1      41.733  -7.346  11.065  1.00  0.00     0.030 A 
HETATM   29  C   UNL     1      43.782 -10.342  11.258  1.00  0.00     0.100 A 
HETATM   30  C   UNL     1      41.861  -6.301  10.147  1.00  0.00     0.002 A 
HETATM   31  C   UNL     1      42.856  -6.322   9.177  1.00  0.00     0.001 A 
BRANCH  27  32
HETATM   32  C   UNL     1      42.014  -9.869  12.975  1.00  0.00     0.081 C 
HETATM   33  C   UNL     1      40.519 -10.026  12.687  1.00  0.00     0.032 C 
HETATM   34  C   UNL     1      42.267  -8.839  14.075  1.00  0.00     0.032 C 
ENDBRANCH  27  32
ENDBRANCH  22  23
ENDBRANCH  19  22
ENDBRANCH   1  18
TORSDOF 4
ENDMDL
MODEL 5
REMARK VINA RESULT:      -9.4      2.015      9.468
REMARK  4 active torsions:
REMARK  status: ('A' for Active; 'I' for Inactive)
REMARK    1  A    between atoms: C_2  and  N_3 
REMARK    2  A    between atoms: C_10  and  C_11 
REMARK    3  A    between atoms: C_11  and  C_12 
REMARK       I    between atoms: C_12  and  N_13 
REMARK    4  A    between atoms: N_13  and  C_14 
ROOT
HETATM    1  C   UNL     1      43.252 -13.168   6.853  1.00  0.00     0.035 A 
HETATM    2  C   UNL     1      43.594 -14.509   6.677  1.00  0.00     0.049 A 
HETATM    3  C   UNL     1      42.918 -15.324   5.744  1.00  0.00     0.061 A 
HETATM    4  C   UNL     1      41.879 -14.784   4.975  1.00  0.00     0.050 A 
HETATM    5  N   UNL     1      41.193 -15.434   3.934  1.00  0.00    -0.324 N 
HETATM    6  C   UNL     1      41.667 -16.386   3.072  1.00  0.00     0.245 C 
HETATM    7  O   UNL     1      40.972 -16.678   2.095  1.00  0.00    -0.271 OA
HETATM    8  C   UNL     1      43.102 -16.880   3.245  1.00  0.00     0.180 C 
HETATM    9  N   UNL     1      43.285 -17.457   4.567  1.00  0.00    -0.334 N 
HETATM   10  C   UNL     1      43.297 -16.761   5.749  1.00  0.00     0.256 C 
HETATM   11  O   UNL     1      43.620 -17.285   6.812  1.00  0.00    -0.267 OA
HETATM   12  C   UNL     1      43.458 -18.018   2.279  1.00  0.00     0.037 C 
HETATM   13  C   UNL     1      44.380 -18.910   3.100  1.00  0.00     0.022 C 
HETATM   14  C   UNL     1      43.776 -18.822   4.490  1.00  0.00     0.127 C 
HETATM   15  C   UNL     1      41.470 -13.468   5.234  1.00  0.00     0.033 A 
HETATM   16  C   UNL     1      42.156 -12.665   6.151  1.00  0.00     0.032 A 
HETATM   17  H   UNL     1      40.324 -15.029   3.604  1.00  0.00     0.169 HD
ENDROOT
BRANCH   1  18
HETATM   18  N   UNL     1      43.983 -12.260   7.649  1.00  0.00    -0.327 N 
HETATM   19  C   UNL     1      44.867 -11.287   7.211  1.00  0.00     0.226 C 
HETATM   20  O   UNL     1      45.336 -11.205   6.078  1.00  0.00    -0.273 OA
HETATM   21  H   UNL     1      43.818 -12.297   8.649  1.00  0.00     0.169 HD
BRANCH  19  22
HETATM   22  C   UNL     1      45.114 -10.172   8.216  1.00  0.00     0.144 C 
BRANCH  22  23
HETATM   23  C   UNL     1      43.913  -9.731   8.989  1.00  0.00    -0.021 A 
HETATM   24  C   UNL     1      42.688  -9.211   8.463  1.00  0.00    -0.001 A 
HETATM   25  C   UNL     1      41.884  -8.840   9.547  1.00  0.00     0.045 A 
HETATM   26  C   UNL     1      42.200  -9.006   7.153  1.00  0.00     0.014 A 
HETATM   27  N   UNL     1      42.609  -9.099  10.695  1.00  0.00    -0.351 N 
HETATM   28  C   UNL     1      40.606  -8.287   9.360  1.00  0.00     0.030 A 
HETATM   29  C   UNL     1      43.808  -9.682  10.363  1.00  0.00     0.100 A 
HETATM   30  C   UNL     1      40.144  -8.104   8.054  1.00  0.00     0.002 A 
HETATM   31  C   UNL     1      40.930  -8.456   6.963  1.00  0.00     0.001 A 
BRANCH  27  32
HETATM   32  C   UNL     1      42.211  -8.753  12.061  1.00  0.00     0.081 C 
HETATM   33  C   UNL     1      43.348  -8.074  12.829  1.00  0.00     0.032 C 
HETATM   34  C   UNL     1      41.674  -9.968  12.816  1.00  0.00     0.032 C 
ENDBRANCH  27  32
ENDBRANCH  22  23
ENDBRANCH  19  22
ENDBRANCH   1  18
TORSDOF 4
ENDMDL
MODEL 6
REMARK VINA RESULT:      -9.4      2.573      9.370
REMARK  4 active torsions:
REMARK  status: ('A' for Active; 'I' for Inactive)
REMARK    1  A    between atoms: C_2  and  N_3 
REMARK    2  A    between atoms: C_10  and  C_11 
REMARK    3  A    between atoms: C_11  and  C_12 
REMARK       I    between atoms: C_12  and  N_13 
REMARK    4  A    between atoms: N_13  and  C_14 
ROOT
HETATM    1  C   UNL     1      40.057 -11.163   5.483  1.00  0.00     0.035 A 
HETATM    2  C   UNL     1      40.666 -12.373   5.821  1.00  0.00     0.049 A 
HETATM    3  C   UNL     1      40.569 -13.504   4.983  1.00  0.00     0.061 A 
HETATM    4  C   UNL     1      39.848 -13.421   3.785  1.00  0.00     0.050 A 
HETATM    5  N   UNL     1      39.757 -14.421   2.800  1.00  0.00    -0.324 N 
HETATM    6  C   UNL     1      40.692 -15.362   2.459  1.00  0.00     0.245 C 
HETATM    7  O   UNL     1      40.507 -16.013   1.428  1.00  0.00    -0.271 OA
HETATM    8  C   UNL     1      42.000 -15.412   3.247  1.00  0.00     0.180 C 
HETATM    9  N   UNL     1      41.735 -15.650   4.656  1.00  0.00    -0.334 N 
HETATM   10  C   UNL     1      41.155 -14.758   5.523  1.00  0.00     0.256 C 
HETATM   11  O   UNL     1      41.111 -14.959   6.734  1.00  0.00    -0.267 OA
HETATM   12  C   UNL     1      42.901 -16.579   2.825  1.00  0.00     0.037 C 
HETATM   13  C   UNL     1      43.557 -17.016   4.128  1.00  0.00     0.022 C 
HETATM   14  C   UNL     1      42.443 -16.822   5.141  1.00  0.00     0.127 C 
HETATM   15  C   UNL     1      39.150 -12.237   3.505  1.00  0.00     0.033 A 
HETATM   16  C   UNL     1      39.264 -11.118   4.336  1.00  0.00     0.032 A 
HETATM   17  H   UNL     1      39.037 -14.334   2.092  1.00  0.00     0.169 HD
ENDROOT
BRANCH   1  18
HETATM   18  N   UNL     1      40.242  -9.957   6.190  1.00  0.00    -0.327 N 
HETATM   19  C   UNL     1      39.720  -9.624   7.430  1.00  0.00     0.226 C 
HETATM   20  O   UNL     1      38.824 -10.230   8.014  1.00  0.00    -0.273 OA
HETATM   21  H   UNL     1      40.854  -9.269   5.764  1.00  0.00     0.169 HD
BRANCH  19  22
HETATM   22  C   UNL     1      40.465  -8.505   8.140  1.00  0.00     0.144 C 
BRANCH  22  23
HETATM   23  C   UNL     1      41.212  -8.913   9.368  1.00  0.00    -0.021 A 
HETATM   24  C   UNL     1      42.596  -9.260   9.465  1.00  0.00    -0.001 A 
HETATM   25  C   UNL     1      42.841  -9.668  10.780  1.00  0.00     0.045 A 
HETATM   26  C   UNL     1      43.662  -9.280   8.537  1.00  0.00     0.014 A 
HETATM   27  N   UNL     1      41.637  -9.600  11.456  1.00  0.00    -0.351 N 
HETATM   28  C   UNL     1      44.119 -10.079  11.198  1.00  0.00     0.030 A 
HETATM   29  C   UNL     1      40.668  -9.097  10.622  1.00  0.00     0.100 A 
HETATM   30  C   UNL     1      45.157 -10.080  10.263  1.00  0.00     0.002 A 
HETATM   31  C   UNL     1      44.933  -9.688   8.948  1.00  0.00     0.001 A 
BRANCH  27  32
HETATM   32  C   UNL     1      41.393 -10.050  12.828  1.00  0.00     0.081 C 
HETATM   33  C   UNL     1      39.928 -10.439  13.045  1.00  0.00     0.032 C 
HETATM   34  C   UNL     1      41.854  -9.013  13.851  1.00  0.00     0.032 C 
ENDBRANCH  27  32
ENDBRANCH  22  23
ENDBRANCH  19  22
ENDBRANCH   1  18
TORSDOF 4
ENDMDL
MODEL 7
REMARK VINA RESULT:      -9.4      2.135      9.146
REMARK  4 active torsions:
REMARK  status: ('A' for Active; 'I' for Inactive)
REMARK    1  A    between atoms: C_2  and  N_3 
REMARK    2  A    between atoms: C_10  and  C_11 
REMARK    3  A    between atoms: C_11  and  C_12 
REMARK       I    between atoms: C_12  and  N_13 
REMARK    4  A    between atoms: N_13  and  C_14 
ROOT
HETATM    1  C   UNL     1      40.531 -12.257   5.251  1.00  0.00     0.035 A 
HETATM    2  C   UNL     1      41.092 -13.397   5.827  1.00  0.00     0.049 A 
HETATM    3  C   UNL     1      41.152 -14.621   5.127  1.00  0.00     0.061 A 
HETATM    4  C   UNL     1      40.640 -14.703   3.826  1.00  0.00     0.050 A 
HETATM    5  N   UNL     1      40.729 -15.812   2.967  1.00  0.00    -0.324 N 
HETATM    6  C   UNL     1      41.721 -16.755   2.899  1.00  0.00     0.245 C 
HETATM    7  O   UNL     1      41.720 -17.527   1.937  1.00  0.00    -0.271 OA
HETATM    8  C   UNL     1      42.880 -16.668   3.891  1.00  0.00     0.180 C 
HETATM    9  N   UNL     1      42.388 -16.749   5.256  1.00  0.00    -0.334 N 
HETATM   10  C   UNL     1      41.658 -15.783   5.903  1.00  0.00     0.256 C 
HETATM   11  O   UNL     1      41.416 -15.843   7.106  1.00  0.00    -0.267 OA
HETATM   12  C   UNL     1      43.856 -17.845   3.766  1.00  0.00     0.037 C 
HETATM   13  C   UNL     1      44.291 -18.105   5.202  1.00  0.00     0.022 C 
HETATM   14  C   UNL     1      43.021 -17.832   5.988  1.00  0.00     0.127 C 
HETATM   15  C   UNL     1      39.982 -13.584   3.295  1.00  0.00     0.033 A 
HETATM   16  C   UNL     1      39.940 -12.372   3.992  1.00  0.00     0.032 A 
HETATM   17  H   UNL     1      40.136 -15.834   2.145  1.00  0.00     0.169 HD
ENDROOT
BRANCH   1  18
HETATM   18  N   UNL     1      40.578 -10.971   5.829  1.00  0.00    -0.327 N 
HETATM   19  C   UNL     1      39.915 -10.538   6.966  1.00  0.00     0.226 C 
HETATM   20  O   UNL     1      38.997 -11.133   7.526  1.00  0.00    -0.273 OA
HETATM   21  H   UNL     1      41.193 -10.296   5.387  1.00  0.00     0.169 HD
BRANCH  19  22
HETATM   22  C   UNL     1      40.523  -9.302   7.610  1.00  0.00     0.144 C 
BRANCH  22  23
HETATM   23  C   UNL     1      41.831  -9.519   8.298  1.00  0.00    -0.021 A 
HETATM   24  C   UNL     1      42.186  -9.124   9.627  1.00  0.00    -0.001 A 
HETATM   25  C   UNL     1      43.535  -9.441   9.818  1.00  0.00     0.045 A 
HETATM   26  C   UNL     1      41.477  -8.505  10.681  1.00  0.00     0.014 A 
HETATM   27  N   UNL     1      43.995  -9.984   8.633  1.00  0.00    -0.351 N 
HETATM   28  C   UNL     1      44.190  -9.173  11.033  1.00  0.00     0.030 A 
HETATM   29  C   UNL     1      42.959 -10.079   7.735  1.00  0.00     0.100 A 
HETATM   30  C   UNL     1      43.462  -8.569  12.062  1.00  0.00     0.002 A 
HETATM   31  C   UNL     1      42.124  -8.237  11.889  1.00  0.00     0.001 A 
BRANCH  27  32
HETATM   32  C   UNL     1      45.381 -10.349   8.333  1.00  0.00     0.081 C 
HETATM   33  C   UNL     1      46.244  -9.116   8.049  1.00  0.00     0.032 C 
HETATM   34  C   UNL     1      45.463 -11.363   7.194  1.00  0.00     0.032 C 
ENDBRANCH  27  32
ENDBRANCH  22  23
ENDBRANCH  19  22
ENDBRANCH   1  18
TORSDOF 4
ENDMDL
MODEL 8
REMARK VINA RESULT:      -9.4      5.935      8.173
REMARK  4 active torsions:
REMARK  status: ('A' for Active; 'I' for Inactive)
REMARK    1  A    between atoms: C_2  and  N_3 
REMARK    2  A    between atoms: C_10  and  C_11 
REMARK    3  A    between atoms: C_11  and  C_12 
REMARK       I    between atoms: C_12  and  N_13 
REMARK    4  A    between atoms: N_13  and  C_14 
ROOT
HETATM    1  C   UNL     1      40.368 -13.598  -0.898  1.00  0.00     0.035 A 
HETATM    2  C   UNL     1      40.774 -12.263  -0.864  1.00  0.00     0.049 A 
HETATM    3  C   UNL     1      40.264 -11.317  -1.779  1.00  0.00     0.061 A 
HETATM    4  C   UNL     1      39.332 -11.716  -2.745  1.00  0.00     0.050 A 
HETATM    5  N   UNL     1      38.655 -10.873  -3.643  1.00  0.00    -0.324 N 
HETATM    6  C   UNL     1      38.276  -9.570  -3.461  1.00  0.00     0.245 C 
HETATM    7  O   UNL     1      37.507  -9.071  -4.287  1.00  0.00    -0.271 OA
HETATM    8  C   UNL     1      38.651  -8.876  -2.153  1.00  0.00     0.180 C 
HETATM    9  N   UNL     1      40.094  -8.867  -1.979  1.00  0.00    -0.334 N 
HETATM   10  C   UNL     1      40.875  -9.964  -1.713  1.00  0.00     0.256 C 
HETATM   11  O   UNL     1      42.063  -9.863  -1.414  1.00  0.00    -0.267 OA
HETATM   12  C   UNL     1      38.255  -7.393  -2.134  1.00  0.00     0.037 C 
HETATM   13  C   UNL     1      39.381  -6.731  -1.352  1.00  0.00     0.022 C 
HETATM   14  C   UNL     1      40.601  -7.518  -1.796  1.00  0.00     0.127 C 
HETATM   15  C   UNL     1      39.011 -13.078  -2.842  1.00  0.00     0.033 A 
HETATM   16  C   UNL     1      39.512 -14.006  -1.922  1.00  0.00     0.032 A 
HETATM   17  H   UNL     1      38.180 -11.295  -4.434  1.00  0.00     0.169 HD
ENDROOT
BRANCH   1  18
HETATM   18  N   UNL     1      40.715 -14.558   0.077  1.00  0.00    -0.327 N 
HETATM   19  C   UNL     1      40.256 -14.629   1.382  1.00  0.00     0.226 C 
HETATM   20  O   UNL     1      39.653 -13.737   1.976  1.00  0.00    -0.273 OA
HETATM   21  H   UNL     1      41.339 -15.300  -0.218  1.00  0.00     0.169 HD
BRANCH  19  22
HETATM   22  C   UNL     1      40.404 -16.000   2.021  1.00  0.00     0.144 C 
BRANCH  22  23
HETATM   23  C   UNL     1      41.492 -16.115   3.040  1.00  0.00    -0.021 A 
HETATM   24  C   UNL     1      42.472 -17.152   3.146  1.00  0.00    -0.001 A 
HETATM   25  C   UNL     1      43.226 -16.908   4.299  1.00  0.00     0.045 A 
HETATM   26  C   UNL     1      42.773 -18.291   2.367  1.00  0.00     0.014 A 
HETATM   27  N   UNL     1      42.701 -15.774   4.892  1.00  0.00    -0.351 N 
HETATM   28  C   UNL     1      44.277 -17.757   4.686  1.00  0.00     0.030 A 
HETATM   29  C   UNL     1      41.692 -15.268   4.109  1.00  0.00     0.100 A 
HETATM   30  C   UNL     1      44.559 -18.872   3.892  1.00  0.00     0.002 A 
HETATM   31  C   UNL     1      43.816 -19.139   2.748  1.00  0.00     0.001 A 
BRANCH  27  32
HETATM   32  C   UNL     1      43.098 -15.218   6.188  1.00  0.00     0.081 C 
HETATM   33  C   UNL     1      42.356 -15.892   7.345  1.00  0.00     0.032 C 
HETATM   34  C   UNL     1      42.931 -13.700   6.224  1.00  0.00     0.032 C 
ENDBRANCH  27  32
ENDBRANCH  22  23
ENDBRANCH  19  22
ENDBRANCH   1  18
TORSDOF 4
ENDMDL
MODEL 9
REMARK VINA RESULT:      -9.3      2.194      3.767
REMARK  4 active torsions:
REMARK  status: ('A' for Active; 'I' for Inactive)
REMARK    1  A    between atoms: C_2  and  N_3 
REMARK    2  A    between atoms: C_10  and  C_11 
REMARK    3  A    between atoms: C_11  and  C_12 
REMARK       I    between atoms: C_12  and  N_13 
REMARK    4  A    between atoms: N_13  and  C_14 
ROOT
HETATM    1  C   UNL     1      42.200 -10.101   5.523  1.00  0.00     0.035 A 
HETATM    2  C   UNL     1      42.830 -10.513   6.698  1.00  0.00     0.049 A 
HETATM    3  C   UNL     1      42.882  -9.680   7.837  1.00  0.00     0.061 A 
HETATM    4  C   UNL     1      42.292  -8.410   7.795  1.00  0.00     0.050 A 
HETATM    5  N   UNL     1      42.165  -7.519   8.875  1.00  0.00    -0.324 N 
HETATM    6  C   UNL     1      42.019  -7.813  10.204  1.00  0.00     0.245 C 
HETATM    7  O   UNL     1      41.711  -6.895  10.969  1.00  0.00    -0.271 OA
HETATM    8  C   UNL     1      42.039  -9.279  10.635  1.00  0.00     0.180 C 
HETATM    9  N   UNL     1      43.296  -9.903  10.255  1.00  0.00    -0.334 N 
HETATM   10  C   UNL     1      43.691 -10.192   8.973  1.00  0.00     0.256 C 
HETATM   11  O   UNL     1      44.689 -10.867   8.734  1.00  0.00    -0.267 OA
HETATM   12  C   UNL     1      41.972  -9.450  12.158  1.00  0.00     0.037 C 
HETATM   13  C   UNL     1      42.857 -10.661  12.422  1.00  0.00     0.022 C 
HETATM   14  C   UNL     1      43.968 -10.489  11.402  1.00  0.00     0.127 C 
HETATM   15  C   UNL     1      41.757  -7.961   6.579  1.00  0.00     0.033 A 
HETATM   16  C   UNL     1      41.699  -8.800   5.461  1.00  0.00     0.032 A 
HETATM   17  H   UNL     1      41.925  -6.554   8.676  1.00  0.00     0.169 HD
ENDROOT
BRANCH   1  18
HETATM   18  N   UNL     1      41.975 -10.936   4.408  1.00  0.00    -0.327 N 
HETATM   19  C   UNL     1      42.930 -11.493   3.573  1.00  0.00     0.226 C 
HETATM   20  O   UNL     1      44.114 -11.166   3.524  1.00  0.00    -0.273 OA
HETATM   21  H   UNL     1      41.012 -11.188   4.217  1.00  0.00     0.169 HD
BRANCH  19  22
HETATM   22  C   UNL     1      42.445 -12.704   2.792  1.00  0.00     0.144 C 
BRANCH  22  23
HETATM   23  C   UNL     1      42.477 -13.999   3.537  1.00  0.00    -0.021 A 
HETATM   24  C   UNL     1      42.815 -15.288   3.017  1.00  0.00    -0.001 A 
HETATM   25  C   UNL     1      42.618 -16.223   4.039  1.00  0.00     0.045 A 
HETATM   26  C   UNL     1      43.255 -15.744   1.755  1.00  0.00     0.014 A 
HETATM   27  N   UNL     1      42.147 -15.529   5.138  1.00  0.00    -0.351 N 
HETATM   28  C   UNL     1      42.863 -17.594   3.841  1.00  0.00     0.030 A 
HETATM   29  C   UNL     1      42.111 -14.185   4.854  1.00  0.00     0.100 A 
HETATM   30  C   UNL     1      43.307 -18.015   2.586  1.00  0.00     0.002 A 
HETATM   31  C   UNL     1      43.499 -17.105   1.554  1.00  0.00     0.001 A 
BRANCH  27  32
HETATM   32  C   UNL     1      41.689 -16.118   6.398  1.00  0.00     0.081 C 
HETATM   33  C   UNL     1      40.230 -15.760   6.694  1.00  0.00     0.032 C 
HETATM   34  C   UNL     1      42.604 -15.742   7.561  1.00  0.00     0.032 C 
ENDBRANCH  27  32
ENDBRANCH  22  23
ENDBRANCH  19  22
ENDBRANCH   1  18
TORSDOF 4
ENDMDL
MODEL 10
REMARK VINA RESULT:      -9.0      3.648      9.567
REMARK  4 active torsions:
REMARK  status: ('A' for Active; 'I' for Inactive)
REMARK    1  A    between atoms: C_2  and  N_3 
REMARK    2  A    between atoms: C_10  and  C_11 
REMARK    3  A    between atoms: C_11  and  C_12 
REMARK       I    between atoms: C_12  and  N_13 
REMARK    4  A    between atoms: N_13  and  C_14 
ROOT
HETATM    1  C   UNL     1      42.088 -10.137   4.979  1.00  0.00     0.035 A 
HETATM    2  C   UNL     1      41.582 -10.340   3.694  1.00  0.00     0.049 A 
HETATM    3  C   UNL     1      42.041 -11.398   2.881  1.00  0.00     0.061 A 
HETATM    4  C   UNL     1      43.027 -12.268   3.364  1.00  0.00     0.050 A 
HETATM    5  N   UNL     1      43.500 -13.425   2.721  1.00  0.00    -0.324 N 
HETATM    6  C   UNL     1      42.820 -14.268   1.883  1.00  0.00     0.245 C 
HETATM    7  O   UNL     1      43.349 -15.343   1.590  1.00  0.00    -0.271 OA
HETATM    8  C   UNL     1      41.373 -13.932   1.526  1.00  0.00     0.180 C 
HETATM    9  N   UNL     1      41.297 -12.631   0.881  1.00  0.00    -0.334 N 
HETATM   10  C   UNL     1      41.511 -11.421   1.493  1.00  0.00     0.256 C 
HETATM   11  O   UNL     1      41.270 -10.355   0.933  1.00  0.00    -0.267 OA
HETATM   12  C   UNL     1      40.775 -14.903   0.500  1.00  0.00     0.037 C 
HETATM   13  C   UNL     1      39.873 -14.017  -0.349  1.00  0.00     0.022 C 
HETATM   14  C   UNL     1      40.654 -12.717  -0.418  1.00  0.00     0.127 C 
HETATM   15  C   UNL     1      43.607 -11.994   4.611  1.00  0.00     0.033 A 
HETATM   16  C   UNL     1      43.135 -10.951   5.415  1.00  0.00     0.032 A 
HETATM   17  H   UNL     1      44.360 -13.845   3.058  1.00  0.00     0.169 HD
ENDROOT
BRANCH   1  18
HETATM   18  N   UNL     1      41.567  -9.203   5.899  1.00  0.00    -0.327 N 
HETATM   19  C   UNL     1      40.657  -9.447   6.914  1.00  0.00     0.226 C 
HETATM   20  O   UNL     1      39.978 -10.464   7.036  1.00  0.00    -0.273 OA
HETATM   21  H   UNL     1      41.925  -8.256   5.836  1.00  0.00     0.169 HD
BRANCH  19  22
HETATM   22  C   UNL     1      40.661  -8.401   8.018  1.00  0.00     0.144 C 
BRANCH  22  23
HETATM   23  C   UNL     1      41.359  -8.803   9.277  1.00  0.00    -0.021 A 
HETATM   24  C   UNL     1      42.750  -9.092   9.440  1.00  0.00    -0.001 A 
HETATM   25  C   UNL     1      42.944  -9.518  10.759  1.00  0.00     0.045 A 
HETATM   26  C   UNL     1      43.863  -9.047   8.571  1.00  0.00     0.014 A 
HETATM   27  N   UNL     1      41.704  -9.516  11.371  1.00  0.00    -0.351 N 
HETATM   28  C   UNL     1      44.215  -9.882  11.237  1.00  0.00     0.030 A 
HETATM   29  C   UNL     1      40.758  -9.037  10.496  1.00  0.00     0.100 A 
HETATM   30  C   UNL     1      45.299  -9.818  10.358  1.00  0.00     0.002 A 
HETATM   31  C   UNL     1      45.128  -9.408   9.041  1.00  0.00     0.001 A 
BRANCH  27  32
HETATM   32  C   UNL     1      41.408 -10.005  12.719  1.00  0.00     0.081 C 
HETATM   33  C   UNL     1      39.934 -10.391  12.871  1.00  0.00     0.032 C 
HETATM   34  C   UNL     1      41.837  -9.002  13.789  1.00  0.00     0.032 C 
ENDBRANCH  27  32
ENDBRANCH  22  23
ENDBRANCH  19  22
ENDBRANCH   1  18
TORSDOF 4
ENDMDL
