MODEL 1
REMARK VINA RESULT:      -8.5      0.000      0.000
REMARK  7 active torsions:
REMARK  status: ('A' for Active; 'I' for Inactive)
REMARK       I    between atoms: C_2  and  N_3 
REMARK    1  A    between atoms: N_3  and  C_4 
REMARK    2  A    between atoms: C_6  and  O_7 
REMARK    3  A    between atoms: O_7  and  C_8 
REMARK    4  A    between atoms: C_8  and  C_9 
REMARK    5  A    between atoms: C_9  and  N_10 
REMARK       I    between atoms: N_10  and  C_11 
REMARK    6  A    between atoms: C_11  and  C_12 
REMARK    7  A    between atoms: C_14  and  C_15 
ROOT
HETATM    1  N   UNL     1      41.361 -13.496   4.699  1.00  0.00    -0.355 N 
HETATM    2  C   UNL     1      42.329 -14.439   4.974  1.00  0.00     0.251 C 
HETATM    3  O   UNL     1      42.831 -14.593   6.080  1.00  0.00    -0.268 OA
HETATM    4  H   UNL     1      40.855 -13.539   3.826  1.00  0.00     0.162 HD
ENDROOT
BRANCH   1   5
HETATM    5  C   UNL     1      40.887 -12.581   5.721  1.00  0.00     0.149 C 
BRANCH   5   6
HETATM    6  C   UNL     1      41.104 -11.105   5.378  1.00  0.00     0.195 C 
BRANCH   6   7
HETATM    7  O   UNL     1      42.477 -10.939   5.012  1.00  0.00    -0.349 OA
BRANCH   7   8
HETATM    8  C   UNL     1      43.382 -10.805   6.031  1.00  0.00     0.070 A 
HETATM    9  C   UNL     1      43.176 -10.103   7.223  1.00  0.00     0.066 A 
HETATM   10  C   UNL     1      44.180 -10.047   8.197  1.00  0.00     0.037 A 
HETATM   11  C   UNL     1      45.395 -10.703   7.961  1.00  0.00     0.029 A 
HETATM   12  C   UNL     1      45.610 -11.394   6.769  1.00  0.00     0.005 A 
HETATM   13  C   UNL     1      44.604 -11.441   5.808  1.00  0.00     0.037 A 
BRANCH  10  14
HETATM   14  N   UNL     1      44.046  -9.374   9.430  1.00  0.00    -0.327 N 
HETATM   15  C   UNL     1      43.883  -9.934  10.684  1.00  0.00     0.218 C 
HETATM   16  C   UNL     1      43.825  -8.893  11.775  1.00  0.00     0.117 C 
HETATM   17  O   UNL     1      43.756 -11.123  10.951  1.00  0.00    -0.274 OA
HETATM   18  H   UNL     1      44.051  -8.363   9.382  1.00  0.00     0.169 HD
ENDBRANCH  10  14
ENDBRANCH   7   8
ENDBRANCH   6   7
ENDBRANCH   5   6
ENDBRANCH   1   5
BRANCH   2  19
HETATM   19  C   UNL     1      42.733 -15.313   3.841  1.00  0.00     0.032 A 
HETATM   20  C   UNL     1      42.974 -16.672   4.098  1.00  0.00     0.029 A 
HETATM   21  C   UNL     1      43.382 -17.534   3.070  1.00  0.00    -0.023 A 
HETATM   22  C   UNL     1      43.550 -17.003   1.782  1.00  0.00     0.012 A 
HETATM   23  C   UNL     1      43.323 -15.648   1.524  1.00  0.00     0.002 A 
HETATM   24  C   UNL     1      42.918 -14.800   2.553  1.00  0.00     0.017 A 
BRANCH  21  25
HETATM   25  C   UNL     1      43.631 -18.950   3.313  1.00  0.00    -0.002 A 
HETATM   26  C   UNL     1      43.490 -19.951   2.371  1.00  0.00     0.153 A 
HETATM   27  O   UNL     1      43.786 -21.167   2.902  1.00  0.00    -0.334 OA
HETATM   28  C   UNL     1      44.119 -20.958   4.198  1.00  0.00     0.142 A 
HETATM   29  C   UNL     1      44.040 -19.620   4.504  1.00  0.00     0.038 A 
ENDBRANCH  21  25
ENDBRANCH   2  19
TORSDOF 7
ENDMDL
MODEL 2
REMARK VINA RESULT:      -8.4      1.300      2.000
REMARK  7 active torsions:
REMARK  status: ('A' for Active; 'I' for Inactive)
REMARK       I    between atoms: C_2  and  N_3 
REMARK    1  A    between atoms: N_3  and  C_4 
REMARK    2  A    between atoms: C_6  and  O_7 
REMARK    3  A    between atoms: O_7  and  C_8 
REMARK    4  A    between atoms: C_8  and  C_9 
REMARK    5  A    between atoms: C_9  and  N_10 
REMARK       I    between atoms: N_10  and  C_11 
REMARK    6  A    between atoms: C_11  and  C_12 
REMARK    7  A    between atoms: C_14  and  C_15 
ROOT
HETATM    1  N   UNL     1      43.145 -13.711   3.578  1.00  0.00    -0.355 N 
HETATM    2  C   UNL     1      42.338 -14.480   4.389  1.00  0.00     0.251 C 
HETATM    3  O   UNL     1      41.189 -14.177   4.686  1.00  0.00    -0.268 OA
HETATM    4  H   UNL     1      44.007 -14.098   3.219  1.00  0.00     0.162 HD
ENDROOT
BRANCH   1   5
HETATM    5  C   UNL     1      42.685 -12.446   3.036  1.00  0.00     0.149 C 
BRANCH   5   6
HETATM    6  C   UNL     1      43.286 -11.221   3.730  1.00  0.00     0.195 C 
BRANCH   6   7
HETATM    7  O   UNL     1      42.674 -11.105   5.019  1.00  0.00    -0.349 OA
BRANCH   7   8
HETATM    8  C   UNL     1      43.506 -10.904   6.087  1.00  0.00     0.070 A 
HETATM    9  C   UNL     1      43.166 -10.263   7.282  1.00  0.00     0.066 A 
HETATM   10  C   UNL     1      44.108 -10.127   8.309  1.00  0.00     0.037 A 
HETATM   11  C   UNL     1      45.397 -10.643   8.124  1.00  0.00     0.029 A 
HETATM   12  C   UNL     1      45.745 -11.274   6.929  1.00  0.00     0.005 A 
HETATM   13  C   UNL     1      44.800 -11.400   5.915  1.00  0.00     0.037 A 
BRANCH  10  14
HETATM   14  N   UNL     1      43.839  -9.507   9.548  1.00  0.00    -0.327 N 
HETATM   15  C   UNL     1      43.774 -10.104  10.793  1.00  0.00     0.218 C 
HETATM   16  C   UNL     1      43.513  -9.107  11.895  1.00  0.00     0.117 C 
HETATM   17  O   UNL     1      43.870 -11.299  11.046  1.00  0.00    -0.274 OA
HETATM   18  H   UNL     1      43.655  -8.512   9.511  1.00  0.00     0.169 HD
ENDBRANCH  10  14
ENDBRANCH   7   8
ENDBRANCH   6   7
ENDBRANCH   5   6
ENDBRANCH   1   5
BRANCH   2  19
HETATM   19  C   UNL     1      42.928 -15.751   4.885  1.00  0.00     0.032 A 
HETATM   20  C   UNL     1      43.007 -16.840   4.002  1.00  0.00     0.029 A 
HETATM   21  C   UNL     1      43.532 -18.069   4.427  1.00  0.00    -0.023 A 
HETATM   22  C   UNL     1      43.968 -18.186   5.755  1.00  0.00     0.012 A 
HETATM   23  C   UNL     1      43.879 -17.107   6.640  1.00  0.00     0.002 A 
HETATM   24  C   UNL     1      43.356 -15.890   6.208  1.00  0.00     0.017 A 
BRANCH  21  25
HETATM   25  C   UNL     1      43.629 -19.211   3.524  1.00  0.00    -0.002 A 
HETATM   26  C   UNL     1      44.010 -20.486   3.900  1.00  0.00     0.153 A 
HETATM   27  O   UNL     1      44.014 -21.329   2.835  1.00  0.00    -0.334 OA
HETATM   28  C   UNL     1      43.636 -20.600   1.757  1.00  0.00     0.142 A 
HETATM   29  C   UNL     1      43.391 -19.298   2.122  1.00  0.00     0.038 A 
ENDBRANCH  21  25
ENDBRANCH   2  19
TORSDOF 7
ENDMDL
MODEL 3
REMARK VINA RESULT:      -8.3      1.696      2.575
REMARK  7 active torsions:
REMARK  status: ('A' for Active; 'I' for Inactive)
REMARK       I    between atoms: C_2  and  N_3 
REMARK    1  A    between atoms: N_3  and  C_4 
REMARK    2  A    between atoms: C_6  and  O_7 
REMARK    3  A    between atoms: O_7  and  C_8 
REMARK    4  A    between atoms: C_8  and  C_9 
REMARK    5  A    between atoms: C_9  and  N_10 
REMARK       I    between atoms: N_10  and  C_11 
REMARK    6  A    between atoms: C_11  and  C_12 
REMARK    7  A    between atoms: C_14  and  C_15 
ROOT
HETATM    1  N   UNL     1      43.693 -13.941   5.999  1.00  0.00    -0.355 N 
HETATM    2  C   UNL     1      42.700 -13.946   5.042  1.00  0.00     0.251 C 
HETATM    3  O   UNL     1      41.699 -13.244   5.100  1.00  0.00    -0.268 OA
HETATM    4  H   UNL     1      44.574 -14.396   5.808  1.00  0.00     0.162 HD
ENDROOT
BRANCH   1   5
HETATM    5  C   UNL     1      43.596 -13.106   7.182  1.00  0.00     0.149 C 
BRANCH   5   6
HETATM    6  C   UNL     1      44.372 -11.791   7.075  1.00  0.00     0.195 C 
BRANCH   6   7
HETATM    7  O   UNL     1      44.938 -11.512   8.359  1.00  0.00    -0.349 OA
BRANCH   7   8
HETATM    8  C   UNL     1      44.499 -10.387   9.002  1.00  0.00     0.070 A 
HETATM    9  C   UNL     1      44.125 -10.304  10.347  1.00  0.00     0.066 A 
HETATM   10  C   UNL     1      43.699  -9.087  10.893  1.00  0.00     0.037 A 
HETATM   11  C   UNL     1      43.654  -7.952  10.074  1.00  0.00     0.029 A 
HETATM   12  C   UNL     1      44.017  -8.031   8.729  1.00  0.00     0.005 A 
HETATM   13  C   UNL     1      44.435  -9.248   8.198  1.00  0.00     0.037 A 
BRANCH  10  14
HETATM   14  N   UNL     1      43.319  -8.918  12.241  1.00  0.00    -0.327 N 
HETATM   15  C   UNL     1      42.099  -9.219  12.818  1.00  0.00     0.218 C 
HETATM   16  C   UNL     1      42.082  -8.947  14.302  1.00  0.00     0.117 C 
HETATM   17  O   UNL     1      41.093  -9.627  12.248  1.00  0.00    -0.274 OA
HETATM   18  H   UNL     1      44.019  -8.511  12.848  1.00  0.00     0.169 HD
ENDBRANCH  10  14
ENDBRANCH   7   8
ENDBRANCH   6   7
ENDBRANCH   5   6
ENDBRANCH   1   5
BRANCH   2  19
HETATM   19  C   UNL     1      42.914 -14.849   3.881  1.00  0.00     0.032 A 
HETATM   20  C   UNL     1      43.146 -16.212   4.128  1.00  0.00     0.029 A 
HETATM   21  C   UNL     1      43.379 -17.102   3.069  1.00  0.00    -0.023 A 
HETATM   22  C   UNL     1      43.381 -16.597   1.761  1.00  0.00     0.012 A 
HETATM   23  C   UNL     1      43.162 -15.238   1.511  1.00  0.00     0.002 A 
HETATM   24  C   UNL     1      42.932 -14.362   2.570  1.00  0.00     0.017 A 
BRANCH  21  25
HETATM   25  C   UNL     1      43.616 -18.522   3.303  1.00  0.00    -0.002 A 
HETATM   26  C   UNL     1      44.064 -19.063   4.494  1.00  0.00     0.153 A 
HETATM   27  O   UNL     1      44.196 -20.412   4.398  1.00  0.00    -0.334 OA
HETATM   28  C   UNL     1      43.836 -20.753   3.137  1.00  0.00     0.142 A 
HETATM   29  C   UNL     1      43.474 -19.635   2.424  1.00  0.00     0.038 A 
ENDBRANCH  21  25
ENDBRANCH   2  19
TORSDOF 7
ENDMDL
MODEL 4
REMARK VINA RESULT:      -8.3      3.643      6.808
REMARK  7 active torsions:
REMARK  status: ('A' for Active; 'I' for Inactive)
REMARK       I    between atoms: C_2  and  N_3 
REMARK    1  A    between atoms: N_3  and  C_4 
REMARK    2  A    between atoms: C_6  and  O_7 
REMARK    3  A    between atoms: O_7  and  C_8 
REMARK    4  A    between atoms: C_8  and  C_9 
REMARK    5  A    between atoms: C_9  and  N_10 
REMARK       I    between atoms: N_10  and  C_11 
REMARK    6  A    between atoms: C_11  and  C_12 
REMARK    7  A    between atoms: C_14  and  C_15 
ROOT
HETATM    1  N   UNL     1      41.554 -13.255   5.533  1.00  0.00    -0.355 N 
HETATM    2  C   UNL     1      41.353 -14.577   5.868  1.00  0.00     0.251 C 
HETATM    3  O   UNL     1      40.271 -15.031   6.216  1.00  0.00    -0.268 OA
HETATM    4  H   UNL     1      42.414 -12.980   5.079  1.00  0.00     0.162 HD
ENDROOT
BRANCH   1   5
HETATM    5  C   UNL     1      40.476 -12.286   5.601  1.00  0.00     0.149 C 
BRANCH   5   6
HETATM    6  C   UNL     1      39.972 -11.825   4.232  1.00  0.00     0.195 C 
BRANCH   6   7
HETATM    7  O   UNL     1      39.170 -12.875   3.685  1.00  0.00    -0.349 OA
BRANCH   7   8
HETATM    8  C   UNL     1      39.644 -13.502   2.565  1.00  0.00     0.070 A 
HETATM    9  C   UNL     1      40.069 -12.873   1.390  1.00  0.00     0.066 A 
HETATM   10  C   UNL     1      40.545 -13.629   0.312  1.00  0.00     0.037 A 
HETATM   11  C   UNL     1      40.590 -15.024   0.424  1.00  0.00     0.029 A 
HETATM   12  C   UNL     1      40.157 -15.657   1.589  1.00  0.00     0.005 A 
HETATM   13  C   UNL     1      39.684 -14.895   2.654  1.00  0.00     0.037 A 
BRANCH  10  14
HETATM   14  N   UNL     1      41.004 -13.070  -0.900  1.00  0.00    -0.327 N 
HETATM   15  C   UNL     1      40.249 -12.690  -1.995  1.00  0.00     0.218 C 
HETATM   16  C   UNL     1      41.089 -12.083  -3.091  1.00  0.00     0.117 C 
HETATM   17  O   UNL     1      39.040 -12.832  -2.143  1.00  0.00    -0.274 OA
HETATM   18  H   UNL     1      42.006 -12.953  -0.979  1.00  0.00     0.169 HD
ENDBRANCH  10  14
ENDBRANCH   7   8
ENDBRANCH   6   7
ENDBRANCH   5   6
ENDBRANCH   1   5
BRANCH   2  19
HETATM   19  C   UNL     1      42.539 -15.468   5.762  1.00  0.00     0.032 A 
HETATM   20  C   UNL     1      42.498 -16.527   4.842  1.00  0.00     0.029 A 
HETATM   21  C   UNL     1      43.580 -17.412   4.720  1.00  0.00    -0.023 A 
HETATM   22  C   UNL     1      44.698 -17.216   5.544  1.00  0.00     0.012 A 
HETATM   23  C   UNL     1      44.737 -16.169   6.470  1.00  0.00     0.002 A 
HETATM   24  C   UNL     1      43.657 -15.296   6.583  1.00  0.00     0.017 A 
BRANCH  21  25
HETATM   25  C   UNL     1      43.561 -18.515   3.766  1.00  0.00    -0.002 A 
HETATM   26  C   UNL     1      44.017 -19.794   4.027  1.00  0.00     0.153 A 
HETATM   27  O   UNL     1      43.875 -20.595   2.939  1.00  0.00    -0.334 OA
HETATM   28  C   UNL     1      43.326 -19.834   1.961  1.00  0.00     0.142 A 
HETATM   29  C   UNL     1      43.115 -18.553   2.413  1.00  0.00     0.038 A 
ENDBRANCH  21  25
ENDBRANCH   2  19
TORSDOF 7
ENDMDL
MODEL 5
REMARK VINA RESULT:      -7.7      2.814      4.835
REMARK  7 active torsions:
REMARK  status: ('A' for Active; 'I' for Inactive)
REMARK       I    between atoms: C_2  and  N_3 
REMARK    1  A    between atoms: N_3  and  C_4 
REMARK    2  A    between atoms: C_6  and  O_7 
REMARK    3  A    between atoms: O_7  and  C_8 
REMARK    4  A    between atoms: C_8  and  C_9 
REMARK    5  A    between atoms: C_9  and  N_10 
REMARK       I    between atoms: N_10  and  C_11 
REMARK    6  A    between atoms: C_11  and  C_12 
REMARK    7  A    between atoms: C_14  and  C_15 
ROOT
HETATM    1  N   UNL     1      41.278 -14.888   0.585  1.00  0.00    -0.355 N 
HETATM    2  C   UNL     1      40.777 -15.761   1.528  1.00  0.00     0.251 C 
HETATM    3  O   UNL     1      39.582 -15.977   1.686  1.00  0.00    -0.268 OA
HETATM    4  H   UNL     1      42.266 -14.892   0.376  1.00  0.00     0.162 HD
ENDROOT
BRANCH   1   5
HETATM    5  C   UNL     1      40.397 -14.126  -0.281  1.00  0.00     0.149 C 
BRANCH   5   6
HETATM    6  C   UNL     1      39.778 -12.899   0.393  1.00  0.00     0.195 C 
BRANCH   6   7
HETATM    7  O   UNL     1      40.823 -12.206   1.083  1.00  0.00    -0.349 OA
BRANCH   7   8
HETATM    8  C   UNL     1      40.905 -12.390   2.436  1.00  0.00     0.070 A 
HETATM    9  C   UNL     1      42.083 -12.419   3.190  1.00  0.00     0.066 A 
HETATM   10  C   UNL     1      42.035 -12.607   4.576  1.00  0.00     0.037 A 
HETATM   11  C   UNL     1      40.791 -12.766   5.200  1.00  0.00     0.029 A 
HETATM   12  C   UNL     1      39.614 -12.750   4.451  1.00  0.00     0.005 A 
HETATM   13  C   UNL     1      39.675 -12.564   3.073  1.00  0.00     0.037 A 
BRANCH  10  14
HETATM   14  N   UNL     1      43.175 -12.634   5.408  1.00  0.00    -0.327 N 
HETATM   15  C   UNL     1      43.662 -11.614   6.205  1.00  0.00     0.218 C 
HETATM   16  C   UNL     1      44.879 -12.032   6.993  1.00  0.00     0.117 C 
HETATM   17  O   UNL     1      43.231 -10.470   6.286  1.00  0.00    -0.274 OA
HETATM   18  H   UNL     1      43.704 -13.497   5.401  1.00  0.00     0.169 HD
ENDBRANCH  10  14
ENDBRANCH   7   8
ENDBRANCH   6   7
ENDBRANCH   5   6
ENDBRANCH   1   5
BRANCH   2  19
HETATM   19  C   UNL     1      41.782 -16.478   2.357  1.00  0.00     0.032 A 
HETATM   20  C   UNL     1      41.885 -16.145   3.717  1.00  0.00     0.029 A 
HETATM   21  C   UNL     1      42.834 -16.773   4.538  1.00  0.00    -0.023 A 
HETATM   22  C   UNL     1      43.680 -17.735   3.965  1.00  0.00     0.012 A 
HETATM   23  C   UNL     1      43.587 -18.060   2.608  1.00  0.00     0.002 A 
HETATM   24  C   UNL     1      42.642 -17.430   1.802  1.00  0.00     0.017 A 
BRANCH  21  25
HETATM   25  C   UNL     1      42.954 -16.447   5.954  1.00  0.00    -0.002 A 
HETATM   26  C   UNL     1      41.933 -15.946   6.740  1.00  0.00     0.153 A 
HETATM   27  O   UNL     1      42.355 -15.735   8.014  1.00  0.00    -0.334 OA
HETATM   28  C   UNL     1      43.660 -16.096   8.060  1.00  0.00     0.142 A 
HETATM   29  C   UNL     1      44.078 -16.538   6.826  1.00  0.00     0.038 A 
ENDBRANCH  21  25
ENDBRANCH   2  19
TORSDOF 7
ENDMDL
MODEL 6
REMARK VINA RESULT:      -7.7      4.398      7.802
REMARK  7 active torsions:
REMARK  status: ('A' for Active; 'I' for Inactive)
REMARK       I    between atoms: C_2  and  N_3 
REMARK    1  A    between atoms: N_3  and  C_4 
REMARK    2  A    between atoms: C_6  and  O_7 
REMARK    3  A    between atoms: O_7  and  C_8 
REMARK    4  A    between atoms: C_8  and  C_9 
REMARK    5  A    between atoms: C_9  and  N_10 
REMARK       I    between atoms: N_10  and  C_11 
REMARK    6  A    between atoms: C_11  and  C_12 
REMARK    7  A    between atoms: C_14  and  C_15 
ROOT
HETATM    1  N   UNL     1      42.369 -14.221   2.770  1.00  0.00    -0.355 N 
HETATM    2  C   UNL     1      42.832 -14.175   4.068  1.00  0.00     0.251 C 
HETATM    3  O   UNL     1      42.889 -13.148   4.732  1.00  0.00    -0.268 OA
HETATM    4  H   UNL     1      42.172 -15.114   2.342  1.00  0.00     0.162 HD
ENDROOT
BRANCH   1   5
HETATM    5  C   UNL     1      41.938 -13.019   2.080  1.00  0.00     0.149 C 
BRANCH   5   6
HETATM    6  C   UNL     1      40.422 -12.926   1.892  1.00  0.00     0.195 C 
BRANCH   6   7
HETATM    7  O   UNL     1      40.019 -14.008   1.047  1.00  0.00    -0.349 OA
BRANCH   7   8
HETATM    8  C   UNL     1      39.970 -13.764  -0.298  1.00  0.00     0.070 A 
HETATM    9  C   UNL     1      40.428 -12.608  -0.939  1.00  0.00     0.066 A 
HETATM   10  C   UNL     1      40.329 -12.481  -2.330  1.00  0.00     0.037 A 
HETATM   11  C   UNL     1      39.766 -13.527  -3.072  1.00  0.00     0.029 A 
HETATM   12  C   UNL     1      39.298 -14.677  -2.437  1.00  0.00     0.005 A 
HETATM   13  C   UNL     1      39.399 -14.790  -1.053  1.00  0.00     0.037 A 
BRANCH  10  14
HETATM   14  N   UNL     1      40.780 -11.356  -3.052  1.00  0.00    -0.327 N 
HETATM   15  C   UNL     1      40.167 -10.121  -3.160  1.00  0.00     0.218 C 
HETATM   16  C   UNL     1      40.977  -9.147  -3.980  1.00  0.00     0.117 C 
HETATM   17  O   UNL     1      39.078  -9.794  -2.701  1.00  0.00    -0.274 OA
HETATM   18  H   UNL     1      41.645 -11.479  -3.564  1.00  0.00     0.169 HD
ENDBRANCH  10  14
ENDBRANCH   7   8
ENDBRANCH   6   7
ENDBRANCH   5   6
ENDBRANCH   1   5
BRANCH   2  19
HETATM   19  C   UNL     1      43.250 -15.473   4.662  1.00  0.00     0.032 A 
HETATM   20  C   UNL     1      43.260 -16.611   3.839  1.00  0.00     0.029 A 
HETATM   21  C   UNL     1      43.622 -17.864   4.355  1.00  0.00    -0.023 A 
HETATM   22  C   UNL     1      43.965 -17.953   5.712  1.00  0.00     0.012 A 
HETATM   23  C   UNL     1      43.944 -16.824   6.537  1.00  0.00     0.002 A 
HETATM   24  C   UNL     1      43.584 -15.584   6.015  1.00  0.00     0.017 A 
BRANCH  21  25
HETATM   25  C   UNL     1      43.646 -19.058   3.517  1.00  0.00    -0.002 A 
HETATM   26  C   UNL     1      44.019 -20.318   3.945  1.00  0.00     0.153 A 
HETATM   27  O   UNL     1      43.946 -21.220   2.932  1.00  0.00    -0.334 OA
HETATM   28  C   UNL     1      43.526 -20.545   1.835  1.00  0.00     0.142 A 
HETATM   29  C   UNL     1      43.329 -19.218   2.136  1.00  0.00     0.038 A 
ENDBRANCH  21  25
ENDBRANCH   2  19
TORSDOF 7
ENDMDL
MODEL 7
REMARK VINA RESULT:      -7.5      2.662      5.325
REMARK  7 active torsions:
REMARK  status: ('A' for Active; 'I' for Inactive)
REMARK       I    between atoms: C_2  and  N_3 
REMARK    1  A    between atoms: N_3  and  C_4 
REMARK    2  A    between atoms: C_6  and  O_7 
REMARK    3  A    between atoms: O_7  and  C_8 
REMARK    4  A    between atoms: C_8  and  C_9 
REMARK    5  A    between atoms: C_9  and  N_10 
REMARK       I    between atoms: N_10  and  C_11 
REMARK    6  A    between atoms: C_11  and  C_12 
REMARK    7  A    between atoms: C_14  and  C_15 
ROOT
HETATM    1  N   UNL     1      43.162 -13.080   5.116  1.00  0.00    -0.355 N 
HETATM    2  C   UNL     1      42.722 -14.383   5.212  1.00  0.00     0.251 C 
HETATM    3  O   UNL     1      42.166 -14.841   6.202  1.00  0.00    -0.268 OA
HETATM    4  H   UNL     1      43.441 -12.711   4.218  1.00  0.00     0.162 HD
ENDROOT
BRANCH   1   5
HETATM    5  C   UNL     1      43.017 -12.152   6.223  1.00  0.00     0.149 C 
BRANCH   5   6
HETATM    6  C   UNL     1      42.132 -10.944   5.905  1.00  0.00     0.195 C 
BRANCH   6   7
HETATM    7  O   UNL     1      40.837 -11.435   5.546  1.00  0.00    -0.349 OA
BRANCH   7   8
HETATM    8  C   UNL     1      40.612 -11.691   4.221  1.00  0.00     0.070 A 
HETATM    9  C   UNL     1      41.239 -11.054   3.145  1.00  0.00     0.066 A 
HETATM   10  C   UNL     1      40.928 -11.414   1.828  1.00  0.00     0.037 A 
HETATM   11  C   UNL     1      39.982 -12.420   1.601  1.00  0.00     0.029 A 
HETATM   12  C   UNL     1      39.346 -13.051   2.671  1.00  0.00     0.005 A 
HETATM   13  C   UNL     1      39.661 -12.683   3.976  1.00  0.00     0.037 A 
BRANCH  10  14
HETATM   14  N   UNL     1      41.526 -10.830   0.690  1.00  0.00    -0.327 N 
HETATM   15  C   UNL     1      41.165  -9.656   0.056  1.00  0.00     0.218 C 
HETATM   16  C   UNL     1      42.072  -9.326  -1.103  1.00  0.00     0.117 C 
HETATM   17  O   UNL     1      40.211  -8.934   0.324  1.00  0.00    -0.274 OA
HETATM   18  H   UNL     1      42.297 -11.346   0.284  1.00  0.00     0.169 HD
ENDBRANCH  10  14
ENDBRANCH   7   8
ENDBRANCH   6   7
ENDBRANCH   5   6
ENDBRANCH   1   5
BRANCH   2  19
HETATM   19  C   UNL     1      42.933 -15.236   4.012  1.00  0.00     0.032 A 
HETATM   20  C   UNL     1      43.149 -16.610   4.199  1.00  0.00     0.029 A 
HETATM   21  C   UNL     1      43.378 -17.455   3.103  1.00  0.00    -0.023 A 
HETATM   22  C   UNL     1      43.394 -16.891   1.818  1.00  0.00     0.012 A 
HETATM   23  C   UNL     1      43.192 -15.520   1.629  1.00  0.00     0.002 A 
HETATM   24  C   UNL     1      42.965 -14.691   2.725  1.00  0.00     0.017 A 
BRANCH  21  25
HETATM   25  C   UNL     1      43.598 -18.886   3.274  1.00  0.00    -0.002 A 
HETATM   26  C   UNL     1      43.483 -19.830   2.270  1.00  0.00     0.153 A 
HETATM   27  O   UNL     1      43.740 -21.078   2.740  1.00  0.00    -0.334 OA
HETATM   28  C   UNL     1      44.021 -20.950   4.060  1.00  0.00     0.142 A 
HETATM   29  C   UNL     1      43.947 -19.630   4.439  1.00  0.00     0.038 A 
ENDBRANCH  21  25
ENDBRANCH   2  19
TORSDOF 7
ENDMDL
MODEL 8
REMARK VINA RESULT:      -7.4      2.236      3.839
REMARK  7 active torsions:
REMARK  status: ('A' for Active; 'I' for Inactive)
REMARK       I    between atoms: C_2  and  N_3 
REMARK    1  A    between atoms: N_3  and  C_4 
REMARK    2  A    between atoms: C_6  and  O_7 
REMARK    3  A    between atoms: O_7  and  C_8 
REMARK    4  A    between atoms: C_8  and  C_9 
REMARK    5  A    between atoms: C_9  and  N_10 
REMARK       I    between atoms: N_10  and  C_11 
REMARK    6  A    between atoms: C_11  and  C_12 
REMARK    7  A    between atoms: C_14  and  C_15 
ROOT
HETATM    1  N   UNL     1      40.787 -14.683   1.952  1.00  0.00    -0.355 N 
HETATM    2  C   UNL     1      42.117 -14.469   2.245  1.00  0.00     0.251 C 
HETATM    3  O   UNL     1      42.784 -13.569   1.750  1.00  0.00    -0.268 OA
HETATM    4  H   UNL     1      40.246 -15.316   2.524  1.00  0.00     0.162 HD
ENDROOT
BRANCH   1   5
HETATM    5  C   UNL     1      40.082 -13.855   0.991  1.00  0.00     0.149 C 
BRANCH   5   6
HETATM    6  C   UNL     1      39.331 -12.680   1.622  1.00  0.00     0.195 C 
BRANCH   6   7
HETATM    7  O   UNL     1      39.132 -12.981   3.006  1.00  0.00    -0.349 OA
BRANCH   7   8
HETATM    8  C   UNL     1      39.615 -12.079   3.915  1.00  0.00     0.070 A 
HETATM    9  C   UNL     1      40.696 -12.283   4.779  1.00  0.00     0.066 A 
HETATM   10  C   UNL     1      41.101 -11.274   5.661  1.00  0.00     0.037 A 
HETATM   11  C   UNL     1      40.409 -10.057   5.668  1.00  0.00     0.029 A 
HETATM   12  C   UNL     1      39.324  -9.852   4.817  1.00  0.00     0.005 A 
HETATM   13  C   UNL     1      38.929 -10.864   3.946  1.00  0.00     0.037 A 
BRANCH  10  14
HETATM   14  N   UNL     1      42.189 -11.396   6.552  1.00  0.00    -0.327 N 
HETATM   15  C   UNL     1      43.536 -11.287   6.259  1.00  0.00     0.218 C 
HETATM   16  C   UNL     1      44.404 -11.429   7.485  1.00  0.00     0.117 C 
HETATM   17  O   UNL     1      44.041 -11.131   5.153  1.00  0.00    -0.274 OA
HETATM   18  H   UNL     1      41.949 -11.607   7.513  1.00  0.00     0.169 HD
ENDBRANCH  10  14
ENDBRANCH   7   8
ENDBRANCH   6   7
ENDBRANCH   5   6
ENDBRANCH   1   5
BRANCH   2  19
HETATM   19  C   UNL     1      42.726 -15.389   3.241  1.00  0.00     0.032 A 
HETATM   20  C   UNL     1      42.905 -16.735   2.885  1.00  0.00     0.029 A 
HETATM   21  C   UNL     1      43.452 -17.650   3.796  1.00  0.00    -0.023 A 
HETATM   22  C   UNL     1      43.808 -17.189   5.073  1.00  0.00     0.012 A 
HETATM   23  C   UNL     1      43.620 -15.852   5.435  1.00  0.00     0.002 A 
HETATM   24  C   UNL     1      43.076 -14.951   4.522  1.00  0.00     0.017 A 
BRANCH  21  25
HETATM   25  C   UNL     1      43.652 -19.052   3.445  1.00  0.00    -0.002 A 
HETATM   26  C   UNL     1      43.455 -19.588   2.186  1.00  0.00     0.153 A 
HETATM   27  O   UNL     1      43.715 -20.921   2.177  1.00  0.00    -0.334 OA
HETATM   28  C   UNL     1      44.079 -21.259   3.437  1.00  0.00     0.142 A 
HETATM   29  C   UNL     1      44.057 -20.153   4.255  1.00  0.00     0.038 A 
ENDBRANCH  21  25
ENDBRANCH   2  19
TORSDOF 7
ENDMDL
MODEL 9
REMARK VINA RESULT:      -7.3      2.718      4.412
REMARK  7 active torsions:
REMARK  status: ('A' for Active; 'I' for Inactive)
REMARK       I    between atoms: C_2  and  N_3 
REMARK    1  A    between atoms: N_3  and  C_4 
REMARK    2  A    between atoms: C_6  and  O_7 
REMARK    3  A    between atoms: O_7  and  C_8 
REMARK    4  A    between atoms: C_8  and  C_9 
REMARK    5  A    between atoms: C_9  and  N_10 
REMARK       I    between atoms: N_10  and  C_11 
REMARK    6  A    between atoms: C_11  and  C_12 
REMARK    7  A    between atoms: C_14  and  C_15 
ROOT
HETATM    1  N   UNL     1      41.328 -14.123   0.384  1.00  0.00    -0.355 N 
HETATM    2  C   UNL     1      40.872 -15.120   1.221  1.00  0.00     0.251 C 
HETATM    3  O   UNL     1      39.762 -15.628   1.128  1.00  0.00    -0.268 OA
HETATM    4  H   UNL     1      42.308 -13.876   0.388  1.00  0.00     0.162 HD
ENDROOT
BRANCH   1   5
HETATM    5  C   UNL     1      40.489 -13.578  -0.667  1.00  0.00     0.149 C 
BRANCH   5   6
HETATM    6  C   UNL     1      39.794 -12.268  -0.285  1.00  0.00     0.195 C 
BRANCH   6   7
HETATM    7  O   UNL     1      40.795 -11.365   0.193  1.00  0.00    -0.349 OA
BRANCH   7   8
HETATM    8  C   UNL     1      40.935 -11.253   1.550  1.00  0.00     0.070 A 
HETATM    9  C   UNL     1      42.146 -11.193   2.247  1.00  0.00     0.066 A 
HETATM   10  C   UNL     1      42.158 -11.068   3.641  1.00  0.00     0.037 A 
HETATM   11  C   UNL     1      40.940 -11.004   4.330  1.00  0.00     0.029 A 
HETATM   12  C   UNL     1      39.730 -11.075   3.641  1.00  0.00     0.005 A 
HETATM   13  C   UNL     1      39.731 -11.202   2.254  1.00  0.00     0.037 A 
BRANCH  10  14
HETATM   14  N   UNL     1      43.335 -10.986   4.416  1.00  0.00    -0.327 N 
HETATM   15  C   UNL     1      43.633 -11.678   5.575  1.00  0.00     0.218 C 
HETATM   16  C   UNL     1      45.014 -11.364   6.094  1.00  0.00     0.117 C 
HETATM   17  O   UNL     1      42.898 -12.445   6.187  1.00  0.00    -0.274 OA
HETATM   18  H   UNL     1      44.031 -10.328   4.089  1.00  0.00     0.169 HD
ENDBRANCH  10  14
ENDBRANCH   7   8
ENDBRANCH   6   7
ENDBRANCH   5   6
ENDBRANCH   1   5
BRANCH   2  19
HETATM   19  C   UNL     1      41.826 -15.589   2.261  1.00  0.00     0.032 A 
HETATM   20  C   UNL     1      42.197 -16.943   2.263  1.00  0.00     0.029 A 
HETATM   21  C   UNL     1      43.074 -17.443   3.238  1.00  0.00    -0.023 A 
HETATM   22  C   UNL     1      43.563 -16.559   4.212  1.00  0.00     0.012 A 
HETATM   23  C   UNL     1      43.185 -15.213   4.219  1.00  0.00     0.002 A 
HETATM   24  C   UNL     1      42.314 -14.727   3.246  1.00  0.00     0.017 A 
BRANCH  21  25
HETATM   25  C   UNL     1      43.477 -18.844   3.256  1.00  0.00    -0.002 A 
HETATM   26  C   UNL     1      44.035 -19.493   4.342  1.00  0.00     0.153 A 
HETATM   27  O   UNL     1      44.312 -20.790   4.048  1.00  0.00    -0.334 OA
HETATM   28  C   UNL     1      43.937 -20.988   2.761  1.00  0.00     0.142 A 
HETATM   29  C   UNL     1      43.422 -19.830   2.228  1.00  0.00     0.038 A 
ENDBRANCH  21  25
ENDBRANCH   2  19
TORSDOF 7
ENDMDL
MODEL 10
REMARK VINA RESULT:      -7.2      3.548      6.680
REMARK  7 active torsions:
REMARK  status: ('A' for Active; 'I' for Inactive)
REMARK       I    between atoms: C_2  and  N_3 
REMARK    1  A    between atoms: N_3  and  C_4 
REMARK    2  A    between atoms: C_6  and  O_7 
REMARK    3  A    between atoms: O_7  and  C_8 
REMARK    4  A    between atoms: C_8  and  C_9 
REMARK    5  A    between atoms: C_9  and  N_10 
REMARK       I    between atoms: N_10  and  C_11 
REMARK    6  A    between atoms: C_11  and  C_12 
REMARK    7  A    between atoms: C_14  and  C_15 
ROOT
HETATM    1  N   UNL     1      42.026 -12.466   4.489  1.00  0.00    -0.355 N 
HETATM    2  C   UNL     1      43.078 -12.814   3.667  1.00  0.00     0.251 C 
HETATM    3  O   UNL     1      43.976 -12.043   3.354  1.00  0.00    -0.268 OA
HETATM    4  H   UNL     1      41.423 -13.187   4.859  1.00  0.00     0.162 HD
ENDROOT
BRANCH   1   5
HETATM    5  C   UNL     1      41.897 -11.123   5.022  1.00  0.00     0.149 C 
BRANCH   5   6
HETATM    6  C   UNL     1      41.549 -10.070   3.967  1.00  0.00     0.195 C 
BRANCH   6   7
HETATM    7  O   UNL     1      40.417 -10.545   3.232  1.00  0.00    -0.349 OA
BRANCH   7   8
HETATM    8  C   UNL     1      40.612 -10.843   1.911  1.00  0.00     0.070 A 
HETATM    9  C   UNL     1      40.240 -12.032   1.275  1.00  0.00     0.066 A 
HETATM   10  C   UNL     1      40.488 -12.214  -0.091  1.00  0.00     0.037 A 
HETATM   11  C   UNL     1      41.114 -11.190  -0.813  1.00  0.00     0.029 A 
HETATM   12  C   UNL     1      41.497 -10.007  -0.181  1.00  0.00     0.005 A 
HETATM   13  C   UNL     1      41.248  -9.839   1.179  1.00  0.00     0.037 A 
BRANCH  10  14
HETATM   14  N   UNL     1      40.131 -13.375  -0.809  1.00  0.00    -0.327 N 
HETATM   15  C   UNL     1      38.958 -13.612  -1.501  1.00  0.00     0.218 C 
HETATM   16  C   UNL     1      38.957 -14.955  -2.188  1.00  0.00     0.117 C 
HETATM   17  O   UNL     1      37.976 -12.880  -1.564  1.00  0.00    -0.274 OA
HETATM   18  H   UNL     1      40.809 -14.127  -0.796  1.00  0.00     0.169 HD
ENDBRANCH  10  14
ENDBRANCH   7   8
ENDBRANCH   6   7
ENDBRANCH   5   6
ENDBRANCH   1   5
BRANCH   2  19
HETATM   19  C   UNL     1      43.094 -14.219   3.181  1.00  0.00     0.032 A 
HETATM   20  C   UNL     1      43.265 -15.248   4.120  1.00  0.00     0.029 A 
HETATM   21  C   UNL     1      43.313 -16.589   3.711  1.00  0.00    -0.023 A 
HETATM   22  C   UNL     1      43.192 -16.874   2.343  1.00  0.00     0.012 A 
HETATM   23  C   UNL     1      43.033 -15.850   1.404  1.00  0.00     0.002 A 
HETATM   24  C   UNL     1      42.987 -14.522   1.820  1.00  0.00     0.017 A 
BRANCH  21  25
HETATM   25  C   UNL     1      43.485 -17.675   4.670  1.00  0.00    -0.002 A 
HETATM   26  C   UNL     1      44.069 -18.895   4.386  1.00  0.00     0.153 A 
HETATM   27  O   UNL     1      44.075 -19.700   5.481  1.00  0.00    -0.334 OA
HETATM   28  C   UNL     1      43.488 -19.003   6.484  1.00  0.00     0.142 A 
HETATM   29  C   UNL     1      43.107 -17.758   6.042  1.00  0.00     0.038 A 
ENDBRANCH  21  25
ENDBRANCH   2  19
TORSDOF 7
ENDMDL
