MODEL 1
REMARK VINA RESULT:      -8.6      0.000      0.000
REMARK  4 active torsions:
REMARK  status: ('A' for Active; 'I' for Inactive)
REMARK    1  A    between atoms: C_6  and  N_7 
REMARK       I    between atoms: N_7  and  C_8 
REMARK    2  A    between atoms: C_8  and  C_9 
REMARK    3  A    between atoms: C_10  and  C_11 
REMARK    4  A    between atoms: C_12  and  O_13 
ROOT
HETATM    1  C   UNL     1      41.222 -12.152   2.787  1.00  0.00     0.063 A 
HETATM    2  C   UNL     1      41.731 -13.175   3.793  1.00  0.00     0.205 A 
HETATM    3  N   UNL     1      42.804 -12.618   4.629  1.00  0.00    -0.084 N 
HETATM    4  C   UNL     1      43.291 -11.344   4.502  1.00  0.00     0.725 A 
HETATM    5  N   UNL     1      42.789 -10.536   3.552  1.00  0.00    -0.192 N 
HETATM    6  N   UNL     1      43.343 -13.241   5.701  1.00  0.00    -0.149 NA
HETATM    7  C   UNL     1      44.210 -12.310   6.116  1.00  0.00     0.275 A 
HETATM    8  N   UNL     1      44.205 -11.133   5.415  1.00  0.00    -0.054 NA
HETATM    9  C   UNL     1      41.756 -10.908   2.698  1.00  0.00     0.037 A 
HETATM   10  C   UNL     1      41.291  -9.844   1.733  1.00  0.00     0.070 C 
HETATM   11  H   UNL     1      43.154  -9.592   3.466  1.00  0.00     0.184 HD
ENDROOT
BRANCH   1  12
HETATM   12  C   UNL     1      40.161 -12.577   1.836  1.00  0.00     0.256 C 
HETATM   13  N   UNL     1      40.618 -12.726   0.543  1.00  0.00    -0.323 N 
HETATM   14  H   UNL     1      41.574 -12.461   0.358  1.00  0.00     0.169 HD
HETATM   15  O   UNL     1      39.029 -12.786   2.258  1.00  0.00    -0.267 OA
BRANCH  13  16
HETATM   16  C   UNL     1      39.911 -13.255  -0.565  1.00  0.00     0.041 A 
HETATM   17  C   UNL     1      39.402 -12.365  -1.537  1.00  0.00    -0.035 A 
HETATM   18  C   UNL     1      38.754 -12.879  -2.677  1.00  0.00     0.015 A 
HETATM   19  C   UNL     1      39.530 -10.870  -1.408  1.00  0.00     0.050 C 
HETATM   20  C   UNL     1      38.583 -14.255  -2.858  1.00  0.00    -0.061 A 
HETATM   21  C   UNL     1      37.937 -14.795  -4.098  1.00  0.00     0.048 C 
HETATM   22  C   UNL     1      39.082 -15.125  -1.889  1.00  0.00     0.009 A 
HETATM   23  C   UNL     1      39.732 -14.629  -0.754  1.00  0.00     0.030 A 
ENDBRANCH  13  16
ENDBRANCH   1  12
BRANCH   2  24
HETATM   24  C   UNL     1      42.185 -14.478   3.150  1.00  0.00     0.005 A 
HETATM   25  C   UNL     1      41.586 -15.702   3.504  1.00  0.00     0.076 A 
HETATM   26  C   UNL     1      42.008 -16.887   2.893  1.00  0.00     0.037 A 
HETATM   27  C   UNL     1      43.036 -16.869   1.948  1.00  0.00     0.003 A 
HETATM   28  C   UNL     1      43.642 -15.667   1.599  1.00  0.00     0.001 A 
HETATM   29  C   UNL     1      43.219 -14.478   2.192  1.00  0.00     0.012 A 
BRANCH  25  30
HETATM   30  O   UNL     1      40.566 -15.643   4.419  1.00  0.00    -0.355 OA
HETATM   31  C   UNL     1      40.868 -16.148   5.717  1.00  0.00     0.210 C 
ENDBRANCH  25  30
ENDBRANCH   2  24
TORSDOF 4
ENDMDL
MODEL 2
REMARK VINA RESULT:      -8.1      2.798      5.805
REMARK  4 active torsions:
REMARK  status: ('A' for Active; 'I' for Inactive)
REMARK    1  A    between atoms: C_6  and  N_7 
REMARK       I    between atoms: N_7  and  C_8 
REMARK    2  A    between atoms: C_8  and  C_9 
REMARK    3  A    between atoms: C_10  and  C_11 
REMARK    4  A    between atoms: C_12  and  O_13 
ROOT
HETATM    1  C   UNL     1      41.495 -13.581   3.111  1.00  0.00     0.063 A 
HETATM    2  C   UNL     1      41.292 -13.111   4.545  1.00  0.00     0.205 A 
HETATM    3  N   UNL     1      40.335 -11.997   4.613  1.00  0.00    -0.084 N 
HETATM    4  C   UNL     1      39.719 -11.447   3.521  1.00  0.00     0.725 A 
HETATM    5  N   UNL     1      40.002 -11.922   2.294  1.00  0.00    -0.192 N 
HETATM    6  N   UNL     1      39.847 -11.474   5.761  1.00  0.00    -0.149 NA
HETATM    7  C   UNL     1      39.006 -10.554   5.274  1.00  0.00     0.275 A 
HETATM    8  N   UNL     1      38.893 -10.510   3.910  1.00  0.00    -0.054 NA
HETATM    9  C   UNL     1      40.868 -12.986   2.066  1.00  0.00     0.037 A 
HETATM   10  C   UNL     1      41.017 -13.409   0.625  1.00  0.00     0.070 C 
HETATM   11  H   UNL     1      39.540 -11.509   1.489  1.00  0.00     0.184 HD
ENDROOT
BRANCH   1  12
HETATM   12  C   UNL     1      42.470 -14.678   2.869  1.00  0.00     0.256 C 
HETATM   13  N   UNL     1      42.054 -15.894   3.370  1.00  0.00    -0.323 N 
HETATM   14  H   UNL     1      41.199 -15.904   3.906  1.00  0.00     0.169 HD
HETATM   15  O   UNL     1      43.497 -14.437   2.246  1.00  0.00    -0.267 OA
BRANCH  13  16
HETATM   16  C   UNL     1      42.669 -17.158   3.185  1.00  0.00     0.041 A 
HETATM   17  C   UNL     1      43.670 -17.568   4.093  1.00  0.00    -0.035 A 
HETATM   18  C   UNL     1      44.244 -18.847   3.961  1.00  0.00     0.015 A 
HETATM   19  C   UNL     1      44.153 -16.686   5.214  1.00  0.00     0.050 C 
HETATM   20  C   UNL     1      43.858 -19.715   2.934  1.00  0.00    -0.061 A 
HETATM   21  C   UNL     1      44.438 -21.093   2.832  1.00  0.00     0.048 C 
HETATM   22  C   UNL     1      42.875 -19.298   2.039  1.00  0.00     0.009 A 
HETATM   23  C   UNL     1      42.292 -18.031   2.160  1.00  0.00     0.030 A 
ENDBRANCH  13  16
ENDBRANCH   1  12
BRANCH   2  24
HETATM   24  C   UNL     1      42.591 -12.734   5.245  1.00  0.00     0.005 A 
HETATM   25  C   UNL     1      42.996 -13.402   6.416  1.00  0.00     0.076 A 
HETATM   26  C   UNL     1      44.199 -13.051   7.038  1.00  0.00     0.037 A 
HETATM   27  C   UNL     1      44.992 -12.026   6.517  1.00  0.00     0.003 A 
HETATM   28  C   UNL     1      44.595 -11.353   5.367  1.00  0.00     0.001 A 
HETATM   29  C   UNL     1      43.405 -11.704   4.731  1.00  0.00     0.012 A 
BRANCH  25  30
HETATM   30  O   UNL     1      42.182 -14.414   6.857  1.00  0.00    -0.355 OA
HETATM   31  C   UNL     1      42.755 -15.295   7.820  1.00  0.00     0.210 C 
ENDBRANCH  25  30
ENDBRANCH   2  24
TORSDOF 4
ENDMDL
MODEL 3
REMARK VINA RESULT:      -7.7      2.513      6.012
REMARK  4 active torsions:
REMARK  status: ('A' for Active; 'I' for Inactive)
REMARK    1  A    between atoms: C_6  and  N_7 
REMARK       I    between atoms: N_7  and  C_8 
REMARK    2  A    between atoms: C_8  and  C_9 
REMARK    3  A    between atoms: C_10  and  C_11 
REMARK    4  A    between atoms: C_12  and  O_13 
ROOT
HETATM    1  C   UNL     1      40.323 -13.696   2.256  1.00  0.00     0.063 A 
HETATM    2  C   UNL     1      40.299 -12.419   3.085  1.00  0.00     0.205 A 
HETATM    3  N   UNL     1      39.921 -11.256   2.269  1.00  0.00    -0.084 N 
HETATM    4  C   UNL     1      39.643 -11.318   0.930  1.00  0.00     0.725 A 
HETATM    5  N   UNL     1      39.729 -12.499   0.291  1.00  0.00    -0.192 N 
HETATM    6  N   UNL     1      39.674 -10.021   2.761  1.00  0.00    -0.149 NA
HETATM    7  C   UNL     1      39.334  -9.374   1.641  1.00  0.00     0.275 A 
HETATM    8  N   UNL     1      39.296 -10.132   0.500  1.00  0.00    -0.054 NA
HETATM    9  C   UNL     1      40.051 -13.692   0.928  1.00  0.00     0.037 A 
HETATM   10  C   UNL     1      40.046 -14.922   0.052  1.00  0.00     0.070 C 
HETATM   11  H   UNL     1      39.518 -12.536  -0.703  1.00  0.00     0.184 HD
ENDROOT
BRANCH   1  12
HETATM   12  C   UNL     1      40.729 -14.957   2.931  1.00  0.00     0.256 C 
HETATM   13  N   UNL     1      41.900 -15.487   2.431  1.00  0.00    -0.323 N 
HETATM   14  H   UNL     1      42.308 -15.031   1.628  1.00  0.00     0.169 HD
HETATM   15  O   UNL     1      40.048 -15.387   3.854  1.00  0.00    -0.267 OA
BRANCH  13  16
HETATM   16  C   UNL     1      42.635 -16.587   2.940  1.00  0.00     0.041 A 
HETATM   17  C   UNL     1      43.254 -16.467   4.203  1.00  0.00    -0.035 A 
HETATM   18  C   UNL     1      43.933 -17.573   4.751  1.00  0.00     0.015 A 
HETATM   19  C   UNL     1      43.216 -15.191   5.003  1.00  0.00     0.050 C 
HETATM   20  C   UNL     1      44.025 -18.785   4.060  1.00  0.00    -0.061 A 
HETATM   21  C   UNL     1      44.705 -19.972   4.673  1.00  0.00     0.048 C 
HETATM   22  C   UNL     1      43.417 -18.891   2.810  1.00  0.00     0.009 A 
HETATM   23  C   UNL     1      42.735 -17.803   2.255  1.00  0.00     0.030 A 
ENDBRANCH  13  16
ENDBRANCH   1  12
BRANCH   2  24
HETATM   24  C   UNL     1      41.610 -12.149   3.814  1.00  0.00     0.005 A 
HETATM   25  C   UNL     1      41.646 -12.060   5.218  1.00  0.00     0.076 A 
HETATM   26  C   UNL     1      42.861 -11.825   5.870  1.00  0.00     0.037 A 
HETATM   27  C   UNL     1      44.037 -11.656   5.136  1.00  0.00     0.003 A 
HETATM   28  C   UNL     1      44.009 -11.731   3.747  1.00  0.00     0.001 A 
HETATM   29  C   UNL     1      42.806 -11.979   3.088  1.00  0.00     0.012 A 
BRANCH  25  30
HETATM   30  O   UNL     1      40.460 -12.262   5.876  1.00  0.00    -0.355 OA
HETATM   31  C   UNL     1      39.861 -11.100   6.444  1.00  0.00     0.210 C 
ENDBRANCH  25  30
ENDBRANCH   2  24
TORSDOF 4
ENDMDL
MODEL 4
REMARK VINA RESULT:      -7.7      2.830      5.966
REMARK  4 active torsions:
REMARK  status: ('A' for Active; 'I' for Inactive)
REMARK    1  A    between atoms: C_6  and  N_7 
REMARK       I    between atoms: N_7  and  C_8 
REMARK    2  A    between atoms: C_8  and  C_9 
REMARK    3  A    between atoms: C_10  and  C_11 
REMARK    4  A    between atoms: C_12  and  O_13 
ROOT
HETATM    1  C   UNL     1      42.798 -12.210   4.706  1.00  0.00     0.063 A 
HETATM    2  C   UNL     1      42.122 -11.050   3.987  1.00  0.00     0.205 A 
HETATM    3  N   UNL     1      41.685 -10.014   4.934  1.00  0.00    -0.084 N 
HETATM    4  C   UNL     1      41.854 -10.095   6.290  1.00  0.00     0.725 A 
HETATM    5  N   UNL     1      42.435 -11.186   6.819  1.00  0.00    -0.192 N 
HETATM    6  N   UNL     1      41.191  -8.807   4.576  1.00  0.00    -0.149 NA
HETATM    7  C   UNL     1      41.006  -8.251   5.778  1.00  0.00     0.275 A 
HETATM    8  N   UNL     1      41.405  -9.002   6.853  1.00  0.00    -0.054 NA
HETATM    9  C   UNL     1      42.922 -12.241   6.056  1.00  0.00     0.037 A 
HETATM   10  C   UNL     1      43.591 -13.353   6.828  1.00  0.00     0.070 C 
HETATM   11  H   UNL     1      42.559 -11.237   7.827  1.00  0.00     0.184 HD
ENDROOT
BRANCH   1  12
HETATM   12  C   UNL     1      43.260 -13.363   3.887  1.00  0.00     0.256 C 
HETATM   13  N   UNL     1      42.862 -14.582   4.394  1.00  0.00    -0.323 N 
HETATM   14  H   UNL     1      42.385 -14.579   5.284  1.00  0.00     0.169 HD
HETATM   15  O   UNL     1      43.895 -13.150   2.861  1.00  0.00    -0.267 OA
BRANCH  13  16
HETATM   16  C   UNL     1      43.005 -15.855   3.788  1.00  0.00     0.041 A 
HETATM   17  C   UNL     1      43.703 -16.867   4.485  1.00  0.00    -0.035 A 
HETATM   18  C   UNL     1      43.798 -18.156   3.924  1.00  0.00     0.015 A 
HETATM   19  C   UNL     1      44.355 -16.624   5.821  1.00  0.00     0.050 C 
HETATM   20  C   UNL     1      43.233 -18.451   2.680  1.00  0.00    -0.061 A 
HETATM   21  C   UNL     1      43.296 -19.838   2.116  1.00  0.00     0.048 C 
HETATM   22  C   UNL     1      42.553 -17.444   1.997  1.00  0.00     0.009 A 
HETATM   23  C   UNL     1      42.446 -16.161   2.543  1.00  0.00     0.030 A 
ENDBRANCH  13  16
ENDBRANCH   1  12
BRANCH   2  24
HETATM   24  C   UNL     1      40.959 -11.484   3.105  1.00  0.00     0.005 A 
HETATM   25  C   UNL     1      40.917 -11.130   1.743  1.00  0.00     0.076 A 
HETATM   26  C   UNL     1      39.847 -11.548   0.946  1.00  0.00     0.037 A 
HETATM   27  C   UNL     1      38.805 -12.298   1.497  1.00  0.00     0.003 A 
HETATM   28  C   UNL     1      38.831 -12.644   2.844  1.00  0.00     0.001 A 
HETATM   29  C   UNL     1      39.900 -12.243   3.644  1.00  0.00     0.012 A 
BRANCH  25  30
HETATM   30  O   UNL     1      41.985 -10.414   1.264  1.00  0.00    -0.355 OA
HETATM   31  C   UNL     1      41.733  -9.628   0.102  1.00  0.00     0.210 C 
ENDBRANCH  25  30
ENDBRANCH   2  24
TORSDOF 4
ENDMDL
MODEL 5
REMARK VINA RESULT:      -7.6      2.502      4.860
REMARK  4 active torsions:
REMARK  status: ('A' for Active; 'I' for Inactive)
REMARK    1  A    between atoms: C_6  and  N_7 
REMARK       I    between atoms: N_7  and  C_8 
REMARK    2  A    between atoms: C_8  and  C_9 
REMARK    3  A    between atoms: C_10  and  C_11 
REMARK    4  A    between atoms: C_12  and  O_13 
ROOT
HETATM    1  C   UNL     1      42.999 -15.642   3.665  1.00  0.00     0.063 A 
HETATM    2  C   UNL     1      43.208 -14.950   5.005  1.00  0.00     0.205 A 
HETATM    3  N   UNL     1      43.318 -15.924   6.101  1.00  0.00    -0.084 N 
HETATM    4  C   UNL     1      43.227 -17.280   5.933  1.00  0.00     0.725 A 
HETATM    5  N   UNL     1      43.006 -17.780   4.703  1.00  0.00    -0.192 N 
HETATM    6  N   UNL     1      43.653 -15.613   7.373  1.00  0.00    -0.149 NA
HETATM    7  C   UNL     1      43.659 -16.830   7.930  1.00  0.00     0.275 A 
HETATM    8  N   UNL     1      43.411 -17.877   7.083  1.00  0.00    -0.054 NA
HETATM    9  C   UNL     1      42.902 -16.991   3.563  1.00  0.00     0.037 A 
HETATM   10  C   UNL     1      42.707 -17.739   2.267  1.00  0.00     0.070 C 
HETATM   11  H   UNL     1      42.942 -18.788   4.587  1.00  0.00     0.184 HD
ENDROOT
BRANCH   1  12
HETATM   12  C   UNL     1      42.826 -14.789   2.459  1.00  0.00     0.256 C 
HETATM   13  N   UNL     1      41.515 -14.426   2.235  1.00  0.00    -0.323 N 
HETATM   14  H   UNL     1      40.814 -14.829   2.840  1.00  0.00     0.169 HD
HETATM   15  O   UNL     1      43.814 -14.462   1.812  1.00  0.00    -0.267 OA
BRANCH  13  16
HETATM   16  C   UNL     1      41.027 -13.509   1.271  1.00  0.00     0.041 A 
HETATM   17  C   UNL     1      40.180 -13.984   0.246  1.00  0.00    -0.035 A 
HETATM   18  C   UNL     1      39.635 -13.074  -0.681  1.00  0.00     0.015 A 
HETATM   19  C   UNL     1      39.824 -15.440   0.103  1.00  0.00     0.050 C 
HETATM   20  C   UNL     1      39.934 -11.709  -0.622  1.00  0.00    -0.061 A 
HETATM   21  C   UNL     1      39.310 -10.742  -1.582  1.00  0.00     0.048 C 
HETATM   22  C   UNL     1      40.777 -11.252   0.389  1.00  0.00     0.009 A 
HETATM   23  C   UNL     1      41.322 -12.142   1.319  1.00  0.00     0.030 A 
ENDBRANCH  13  16
ENDBRANCH   1  12
BRANCH   2  24
HETATM   24  C   UNL     1      42.135 -13.917   5.323  1.00  0.00     0.005 A 
HETATM   25  C   UNL     1      42.448 -12.545   5.362  1.00  0.00     0.076 A 
HETATM   26  C   UNL     1      41.447 -11.610   5.644  1.00  0.00     0.037 A 
HETATM   27  C   UNL     1      40.141 -12.029   5.907  1.00  0.00     0.003 A 
HETATM   28  C   UNL     1      39.824 -13.383   5.882  1.00  0.00     0.001 A 
HETATM   29  C   UNL     1      40.812 -14.322   5.589  1.00  0.00     0.012 A 
BRANCH  25  30
HETATM   30  O   UNL     1      43.744 -12.203   5.069  1.00  0.00    -0.355 OA
HETATM   31  C   UNL     1      43.949 -11.580   3.804  1.00  0.00     0.210 C 
ENDBRANCH  25  30
ENDBRANCH   2  24
TORSDOF 4
ENDMDL
MODEL 6
REMARK VINA RESULT:      -7.6     16.158     18.543
REMARK  4 active torsions:
REMARK  status: ('A' for Active; 'I' for Inactive)
REMARK    1  A    between atoms: C_6  and  N_7 
REMARK       I    between atoms: N_7  and  C_8 
REMARK    2  A    between atoms: C_8  and  C_9 
REMARK    3  A    between atoms: C_10  and  C_11 
REMARK    4  A    between atoms: C_12  and  O_13 
ROOT
HETATM    1  C   UNL     1      45.916 -29.406   1.288  1.00  0.00     0.063 A 
HETATM    2  C   UNL     1      44.602 -29.278   0.530  1.00  0.00     0.205 A 
HETATM    3  N   UNL     1      43.449 -29.507   1.413  1.00  0.00    -0.084 N 
HETATM    4  C   UNL     1      43.551 -29.812   2.744  1.00  0.00     0.725 A 
HETATM    5  N   UNL     1      44.769 -29.934   3.301  1.00  0.00    -0.192 N 
HETATM    6  N   UNL     1      42.159 -29.314   1.056  1.00  0.00    -0.149 NA
HETATM    7  C   UNL     1      41.539 -29.607   2.205  1.00  0.00     0.275 A 
HETATM    8  N   UNL     1      42.354 -29.910   3.263  1.00  0.00    -0.054 NA
HETATM    9  C   UNL     1      45.955 -29.726   2.605  1.00  0.00     0.037 A 
HETATM   10  C   UNL     1      47.221 -29.857   3.416  1.00  0.00     0.070 C 
HETATM   11  H   UNL     1      44.837 -30.159   4.290  1.00  0.00     0.184 HD
ENDROOT
BRANCH   1  12
HETATM   12  C   UNL     1      47.181 -29.244   0.522  1.00  0.00     0.256 C 
HETATM   13  N   UNL     1      47.893 -30.418   0.395  1.00  0.00    -0.323 N 
HETATM   14  H   UNL     1      47.542 -31.227   0.887  1.00  0.00     0.169 HD
HETATM   15  O   UNL     1      47.461 -28.145   0.058  1.00  0.00    -0.267 OA
BRANCH  13  16
HETATM   16  C   UNL     1      49.052 -30.643  -0.390  1.00  0.00     0.041 A 
HETATM   17  C   UNL     1      50.291 -30.828   0.263  1.00  0.00    -0.035 A 
HETATM   18  C   UNL     1      51.439 -31.116  -0.500  1.00  0.00     0.015 A 
HETATM   19  C   UNL     1      50.437 -30.734   1.759  1.00  0.00     0.050 C 
HETATM   20  C   UNL     1      51.384 -31.203  -1.894  1.00  0.00    -0.061 A 
HETATM   21  C   UNL     1      52.601 -31.560  -2.693  1.00  0.00     0.048 C 
HETATM   22  C   UNL     1      50.158 -31.011  -2.529  1.00  0.00     0.009 A 
HETATM   23  C   UNL     1      49.008 -30.728  -1.785  1.00  0.00     0.030 A 
ENDBRANCH  13  16
ENDBRANCH   1  12
BRANCH   2  24
HETATM   24  C   UNL     1      44.520 -30.184  -0.692  1.00  0.00     0.005 A 
HETATM   25  C   UNL     1      44.591 -29.648  -1.991  1.00  0.00     0.076 A 
HETATM   26  C   UNL     1      44.526 -30.497  -3.100  1.00  0.00     0.037 A 
HETATM   27  C   UNL     1      44.370 -31.874  -2.929  1.00  0.00     0.003 A 
HETATM   28  C   UNL     1      44.288 -32.413  -1.649  1.00  0.00     0.001 A 
HETATM   29  C   UNL     1      44.365 -31.576  -0.537  1.00  0.00     0.012 A 
BRANCH  25  30
HETATM   30  O   UNL     1      44.769 -28.291  -2.085  1.00  0.00    -0.355 OA
HETATM   31  C   UNL     1      45.170 -27.805  -3.364  1.00  0.00     0.210 C 
ENDBRANCH  25  30
ENDBRANCH   2  24
TORSDOF 4
ENDMDL
MODEL 7
REMARK VINA RESULT:      -7.5     16.565     18.966
REMARK  4 active torsions:
REMARK  status: ('A' for Active; 'I' for Inactive)
REMARK    1  A    between atoms: C_6  and  N_7 
REMARK       I    between atoms: N_7  and  C_8 
REMARK    2  A    between atoms: C_8  and  C_9 
REMARK    3  A    between atoms: C_10  and  C_11 
REMARK    4  A    between atoms: C_12  and  O_13 
ROOT
HETATM    1  C   UNL     1      46.109 -28.969   0.218  1.00  0.00     0.063 A 
HETATM    2  C   UNL     1      46.674 -28.864  -1.192  1.00  0.00     0.205 A 
HETATM    3  N   UNL     1      45.626 -29.058  -2.205  1.00  0.00    -0.084 N 
HETATM    4  C   UNL     1      44.314 -29.314  -1.911  1.00  0.00     0.725 A 
HETATM    5  N   UNL     1      43.933 -29.420  -0.625  1.00  0.00    -0.192 N 
HETATM    6  N   UNL     1      45.800 -28.874  -3.534  1.00  0.00    -0.149 NA
HETATM    7  C   UNL     1      44.564 -29.123  -3.980  1.00  0.00     0.275 A 
HETATM    8  N   UNL     1      43.623 -29.389  -3.021  1.00  0.00    -0.054 NA
HETATM    9  C   UNL     1      44.800 -29.241   0.447  1.00  0.00     0.037 A 
HETATM   10  C   UNL     1      44.175 -29.346   1.817  1.00  0.00     0.070 C 
HETATM   11  H   UNL     1      42.957 -29.609  -0.416  1.00  0.00     0.184 HD
ENDROOT
BRANCH   1  12
HETATM   12  C   UNL     1      47.054 -28.839   1.359  1.00  0.00     0.256 C 
HETATM   13  N   UNL     1      47.624 -30.038   1.731  1.00  0.00    -0.323 N 
HETATM   14  H   UNL     1      47.293 -30.871   1.266  1.00  0.00     0.169 HD
HETATM   15  O   UNL     1      47.270 -27.729   1.832  1.00  0.00    -0.267 OA
BRANCH  13  16
HETATM   16  C   UNL     1      48.664 -30.243   2.672  1.00  0.00     0.041 A 
HETATM   17  C   UNL     1      48.324 -30.589   3.999  1.00  0.00    -0.035 A 
HETATM   18  C   UNL     1      49.348 -30.859   4.928  1.00  0.00     0.015 A 
HETATM   19  C   UNL     1      46.896 -30.688   4.467  1.00  0.00     0.050 C 
HETATM   20  C   UNL     1      50.697 -30.771   4.572  1.00  0.00    -0.061 A 
HETATM   21  C   UNL     1      51.777 -31.109   5.554  1.00  0.00     0.048 C 
HETATM   22  C   UNL     1      51.021 -30.421   3.262  1.00  0.00     0.009 A 
HETATM   23  C   UNL     1      50.016 -30.155   2.326  1.00  0.00     0.030 A 
ENDBRANCH  13  16
ENDBRANCH   1  12
BRANCH   2  24
HETATM   24  C   UNL     1      47.837 -29.815  -1.447  1.00  0.00     0.005 A 
HETATM   25  C   UNL     1      47.625 -31.204  -1.528  1.00  0.00     0.076 A 
HETATM   26  C   UNL     1      48.703 -32.060  -1.775  1.00  0.00     0.037 A 
HETATM   27  C   UNL     1      49.994 -31.548  -1.921  1.00  0.00     0.003 A 
HETATM   28  C   UNL     1      50.215 -30.178  -1.832  1.00  0.00     0.001 A 
HETATM   29  C   UNL     1      49.145 -29.314  -1.599  1.00  0.00     0.012 A 
BRANCH  25  30
HETATM   30  O   UNL     1      46.329 -31.635  -1.401  1.00  0.00    -0.355 OA
HETATM   31  C   UNL     1      46.105 -32.644  -0.419  1.00  0.00     0.210 C 
ENDBRANCH  25  30
ENDBRANCH   2  24
TORSDOF 4
ENDMDL
MODEL 8
REMARK VINA RESULT:      -7.4      2.492      6.384
REMARK  4 active torsions:
REMARK  status: ('A' for Active; 'I' for Inactive)
REMARK    1  A    between atoms: C_6  and  N_7 
REMARK       I    between atoms: N_7  and  C_8 
REMARK    2  A    between atoms: C_8  and  C_9 
REMARK    3  A    between atoms: C_10  and  C_11 
REMARK    4  A    between atoms: C_12  and  O_13 
ROOT
HETATM    1  C   UNL     1      40.178 -11.625   2.233  1.00  0.00     0.063 A 
HETATM    2  C   UNL     1      40.058 -10.954   0.871  1.00  0.00     0.205 A 
HETATM    3  N   UNL     1      38.863 -10.099   0.798  1.00  0.00    -0.084 N 
HETATM    4  C   UNL     1      37.968  -9.944   1.823  1.00  0.00     0.725 A 
HETATM    5  N   UNL     1      38.158 -10.616   2.973  1.00  0.00    -0.192 N 
HETATM    6  N   UNL     1      38.577  -9.267  -0.228  1.00  0.00    -0.149 NA
HETATM    7  C   UNL     1      37.446  -8.708   0.217  1.00  0.00     0.275 A 
HETATM    8  N   UNL     1      37.043  -9.088   1.470  1.00  0.00    -0.054 NA
HETATM    9  C   UNL     1      39.250 -11.444   3.205  1.00  0.00     0.037 A 
HETATM   10  C   UNL     1      39.316 -12.069   4.577  1.00  0.00     0.070 C 
HETATM   11  H   UNL     1      37.490 -10.493   3.729  1.00  0.00     0.184 HD
ENDROOT
BRANCH   1  12
HETATM   12  C   UNL     1      41.316 -12.558   2.451  1.00  0.00     0.256 C 
HETATM   13  N   UNL     1      40.920 -13.872   2.588  1.00  0.00    -0.323 N 
HETATM   14  H   UNL     1      39.928 -14.056   2.610  1.00  0.00     0.169 HD
HETATM   15  O   UNL     1      42.458 -12.116   2.457  1.00  0.00    -0.267 OA
BRANCH  13  16
HETATM   16  C   UNL     1      41.751 -15.019   2.660  1.00  0.00     0.041 A 
HETATM   17  C   UNL     1      41.771 -15.771   3.855  1.00  0.00    -0.035 A 
HETATM   18  C   UNL     1      42.541 -16.949   3.920  1.00  0.00     0.015 A 
HETATM   19  C   UNL     1      40.990 -15.366   5.078  1.00  0.00     0.050 C 
HETATM   20  C   UNL     1      43.305 -17.379   2.831  1.00  0.00    -0.061 A 
HETATM   21  C   UNL     1      44.081 -18.660   2.892  1.00  0.00     0.048 C 
HETATM   22  C   UNL     1      43.284 -16.625   1.659  1.00  0.00     0.009 A 
HETATM   23  C   UNL     1      42.521 -15.456   1.578  1.00  0.00     0.030 A 
ENDBRANCH  13  16
ENDBRANCH   1  12
BRANCH   2  24
HETATM   24  C   UNL     1      40.074 -11.939  -0.290  1.00  0.00     0.005 A 
HETATM   25  C   UNL     1      40.881 -11.707  -1.419  1.00  0.00     0.076 A 
HETATM   26  C   UNL     1      40.892 -12.629  -2.470  1.00  0.00     0.037 A 
HETATM   27  C   UNL     1      40.090 -13.772  -2.417  1.00  0.00     0.003 A 
HETATM   28  C   UNL     1      39.281 -14.005  -1.310  1.00  0.00     0.001 A 
HETATM   29  C   UNL     1      39.273 -13.099  -0.251  1.00  0.00     0.012 A 
BRANCH  25  30
HETATM   30  O   UNL     1      41.661 -10.578  -1.393  1.00  0.00    -0.355 OA
HETATM   31  C   UNL     1      41.381  -9.608  -2.399  1.00  0.00     0.210 C 
ENDBRANCH  25  30
ENDBRANCH   2  24
TORSDOF 4
ENDMDL
MODEL 9
REMARK VINA RESULT:      -7.4     16.264     18.842
REMARK  4 active torsions:
REMARK  status: ('A' for Active; 'I' for Inactive)
REMARK    1  A    between atoms: C_6  and  N_7 
REMARK       I    between atoms: N_7  and  C_8 
REMARK    2  A    between atoms: C_8  and  C_9 
REMARK    3  A    between atoms: C_10  and  C_11 
REMARK    4  A    between atoms: C_12  and  O_13 
ROOT
HETATM    1  C   UNL     1      46.419 -29.368  -0.503  1.00  0.00     0.063 A 
HETATM    2  C   UNL     1      45.312 -30.350  -0.863  1.00  0.00     0.205 A 
HETATM    3  N   UNL     1      44.834 -30.140  -2.237  1.00  0.00    -0.084 N 
HETATM    4  C   UNL     1      45.317 -29.171  -3.077  1.00  0.00     0.725 A 
HETATM    5  N   UNL     1      46.274 -28.334  -2.638  1.00  0.00    -0.192 N 
HETATM    6  N   UNL     1      43.966 -30.953  -2.881  1.00  0.00    -0.149 NA
HETATM    7  C   UNL     1      43.911 -30.357  -4.077  1.00  0.00     0.275 A 
HETATM    8  N   UNL     1      44.727 -29.268  -4.241  1.00  0.00    -0.054 NA
HETATM    9  C   UNL     1      46.844 -28.419  -1.373  1.00  0.00     0.037 A 
HETATM   10  C   UNL     1      47.942 -27.424  -1.083  1.00  0.00     0.070 C 
HETATM   11  H   UNL     1      46.628 -27.619  -3.268  1.00  0.00     0.184 HD
ENDROOT
BRANCH   1  12
HETATM   12  C   UNL     1      46.980 -29.424   0.873  1.00  0.00     0.256 C 
HETATM   13  N   UNL     1      47.961 -30.383   1.020  1.00  0.00    -0.323 N 
HETATM   14  H   UNL     1      48.137 -30.988   0.232  1.00  0.00     0.169 HD
HETATM   15  O   UNL     1      46.574 -28.634   1.717  1.00  0.00    -0.267 OA
BRANCH  13  16
HETATM   16  C   UNL     1      48.793 -30.598   2.147  1.00  0.00     0.041 A 
HETATM   17  C   UNL     1      50.195 -30.578   1.972  1.00  0.00    -0.035 A 
HETATM   18  C   UNL     1      51.035 -30.725   3.093  1.00  0.00     0.015 A 
HETATM   19  C   UNL     1      50.838 -30.399   0.622  1.00  0.00     0.050 C 
HETATM   20  C   UNL     1      50.511 -30.913   4.376  1.00  0.00    -0.061 A 
HETATM   21  C   UNL     1      51.413 -31.018   5.568  1.00  0.00     0.048 C 
HETATM   22  C   UNL     1      49.127 -30.938   4.536  1.00  0.00     0.009 A 
HETATM   23  C   UNL     1      48.279 -30.789   3.434  1.00  0.00     0.030 A 
ENDBRANCH  13  16
ENDBRANCH   1  12
BRANCH   2  24
HETATM   24  C   UNL     1      44.143 -30.324   0.113  1.00  0.00     0.005 A 
HETATM   25  C   UNL     1      43.815 -31.463   0.872  1.00  0.00     0.076 A 
HETATM   26  C   UNL     1      42.745 -31.417   1.772  1.00  0.00     0.037 A 
HETATM   27  C   UNL     1      41.984 -30.253   1.907  1.00  0.00     0.003 A 
HETATM   28  C   UNL     1      42.294 -29.126   1.154  1.00  0.00     0.001 A 
HETATM   29  C   UNL     1      43.367 -29.157   0.264  1.00  0.00     0.012 A 
BRANCH  25  30
HETATM   30  O   UNL     1      44.618 -32.562   0.707  1.00  0.00    -0.355 OA
HETATM   31  C   UNL     1      45.392 -32.941   1.842  1.00  0.00     0.210 C 
ENDBRANCH  25  30
ENDBRANCH   2  24
TORSDOF 4
ENDMDL
MODEL 10
REMARK VINA RESULT:      -7.4     16.402     18.253
REMARK  4 active torsions:
REMARK  status: ('A' for Active; 'I' for Inactive)
REMARK    1  A    between atoms: C_6  and  N_7 
REMARK       I    between atoms: N_7  and  C_8 
REMARK    2  A    between atoms: C_8  and  C_9 
REMARK    3  A    between atoms: C_10  and  C_11 
REMARK    4  A    between atoms: C_12  and  O_13 
ROOT
HETATM    1  C   UNL     1      47.456 -29.812   1.330  1.00  0.00     0.063 A 
HETATM    2  C   UNL     1      47.463 -30.450  -0.053  1.00  0.00     0.205 A 
HETATM    3  N   UNL     1      48.829 -30.571  -0.581  1.00  0.00    -0.084 N 
HETATM    4  C   UNL     1      49.949 -30.148   0.084  1.00  0.00     0.725 A 
HETATM    5  N   UNL     1      49.819 -29.565   1.289  1.00  0.00    -0.192 N 
HETATM    6  N   UNL     1      49.158 -31.230  -1.716  1.00  0.00    -0.149 NA
HETATM    7  C   UNL     1      50.487 -31.084  -1.709  1.00  0.00     0.275 A 
HETATM    8  N   UNL     1      51.012 -30.435  -0.622  1.00  0.00    -0.054 NA
HETATM    9  C   UNL     1      48.598 -29.398   1.933  1.00  0.00     0.037 A 
HETATM   10  C   UNL     1      48.662 -28.771   3.304  1.00  0.00     0.070 C 
HETATM   11  H   UNL     1      50.656 -29.255   1.777  1.00  0.00     0.184 HD
ENDROOT
BRANCH   1  12
HETATM   12  C   UNL     1      46.141 -29.581   1.984  1.00  0.00     0.256 C 
HETATM   13  N   UNL     1      45.337 -30.702   1.998  1.00  0.00    -0.323 N 
HETATM   14  H   UNL     1      45.673 -31.517   1.507  1.00  0.00     0.169 HD
HETATM   15  O   UNL     1      45.899 -28.481   2.466  1.00  0.00    -0.267 OA
BRANCH  13  16
HETATM   16  C   UNL     1      44.097 -30.865   2.664  1.00  0.00     0.041 A 
HETATM   17  C   UNL     1      42.941 -30.273   2.108  1.00  0.00    -0.035 A 
HETATM   18  C   UNL     1      41.691 -30.480   2.723  1.00  0.00     0.015 A 
HETATM   19  C   UNL     1      42.988 -29.422   0.866  1.00  0.00     0.050 C 
HETATM   20  C   UNL     1      41.571 -31.244   3.888  1.00  0.00    -0.061 A 
HETATM   21  C   UNL     1      40.231 -31.500   4.507  1.00  0.00     0.048 C 
HETATM   22  C   UNL     1      42.719 -31.817   4.433  1.00  0.00     0.009 A 
HETATM   23  C   UNL     1      43.967 -31.625   3.831  1.00  0.00     0.030 A 
ENDBRANCH  13  16
ENDBRANCH   1  12
BRANCH   2  24
HETATM   24  C   UNL     1      46.571 -29.727  -1.054  1.00  0.00     0.005 A 
HETATM   25  C   UNL     1      45.426 -30.353  -1.580  1.00  0.00     0.076 A 
HETATM   26  C   UNL     1      44.613 -29.668  -2.489  1.00  0.00     0.037 A 
HETATM   27  C   UNL     1      44.941 -28.373  -2.896  1.00  0.00     0.003 A 
HETATM   28  C   UNL     1      46.077 -27.750  -2.390  1.00  0.00     0.001 A 
HETATM   29  C   UNL     1      46.887 -28.419  -1.473  1.00  0.00     0.012 A 
BRANCH  25  30
HETATM   30  O   UNL     1      45.150 -31.615  -1.118  1.00  0.00    -0.355 OA
HETATM   31  C   UNL     1      43.904 -32.168  -1.532  1.00  0.00     0.210 C 
ENDBRANCH  25  30
ENDBRANCH   2  24
TORSDOF 4
ENDMDL
