MODEL 1
REMARK VINA RESULT:      -8.8      0.000      0.000
REMARK  6 active torsions:
REMARK  status: ('A' for Active; 'I' for Inactive)
REMARK    1  A    between atoms: C_3  and  N_4 
REMARK       I    between atoms: N_4  and  C_5 
REMARK    2  A    between atoms: C_5  and  C_6 
REMARK    3  A    between atoms: C_6  and  O_7 
REMARK    4  A    between atoms: O_7  and  C_8 
REMARK    5  A    between atoms: C_10  and  N_11 
REMARK       I    between atoms: N_11  and  C_12 
REMARK    6  A    between atoms: C_12  and  C_13 
ROOT
HETATM    1  C   UNL     1      42.353 -13.068   5.966  1.00  0.00     0.278 C 
ENDROOT
BRANCH   1   2
HETATM    2  C   UNL     1      42.056 -14.328   5.144  1.00  0.00     0.246 C 
HETATM    3  N   UNL     1      43.206 -15.008   4.782  1.00  0.00    -0.323 N 
HETATM    4  H   UNL     1      44.007 -14.723   5.339  1.00  0.00     0.169 HD
HETATM    5  O   UNL     1      40.898 -14.646   4.895  1.00  0.00    -0.271 OA
BRANCH   3   6
HETATM    6  C   UNL     1      43.340 -16.215   4.051  1.00  0.00     0.065 A 
HETATM    7  C   UNL     1      43.186 -16.346   2.661  1.00  0.00    -0.031 A 
HETATM    8  C   UNL     1      42.993 -15.210   1.695  1.00  0.00     0.050 C 
HETATM    9  C   UNL     1      43.260 -17.632   2.094  1.00  0.00     0.035 A 
HETATM   10  C   UNL     1      43.558 -18.730   2.886  1.00  0.00     0.031 A 
HETATM   11  N   UNL     1      43.797 -18.614   4.206  1.00  0.00    -0.256 NA
HETATM   12  C   UNL     1      43.628 -20.101   2.288  1.00  0.00     0.070 C 
HETATM   13  C   UNL     1      43.693 -17.381   4.769  1.00  0.00     0.058 A 
HETATM   14  C   UNL     1      43.961 -17.360   6.250  1.00  0.00     0.073 C 
ENDBRANCH   3   6
ENDBRANCH   1   2
BRANCH   1  15
HETATM   15  O   UNL     1      43.505 -12.365   5.502  1.00  0.00    -0.342 OA
BRANCH  15  16
HETATM   16  C   UNL     1      44.211 -11.669   6.443  1.00  0.00     0.071 A 
HETATM   17  C   UNL     1      43.472 -11.223   7.544  1.00  0.00     0.066 A 
HETATM   18  C   UNL     1      44.093 -10.538   8.590  1.00  0.00     0.037 A 
HETATM   19  C   UNL     1      45.476 -10.323   8.526  1.00  0.00     0.029 A 
HETATM   20  C   UNL     1      46.221 -10.789   7.440  1.00  0.00     0.005 A 
HETATM   21  C   UNL     1      45.591 -11.470   6.398  1.00  0.00     0.037 A 
BRANCH  18  22
HETATM   22  N   UNL     1      43.416 -10.043   9.724  1.00  0.00    -0.327 N 
HETATM   23  C   UNL     1      43.477 -10.526  11.015  1.00  0.00     0.226 C 
HETATM   24  O   UNL     1      44.146 -11.468  11.414  1.00  0.00    -0.273 OA
HETATM   25  H   UNL     1      42.832  -9.237   9.569  1.00  0.00     0.169 HD
BRANCH  23  26
HETATM   26  C   UNL     1      42.639  -9.804  12.023  1.00  0.00     0.078 A 
HETATM   27  C   UNL     1      43.171  -8.540  12.661  1.00  0.00     0.015 A 
HETATM   28  C   UNL     1      41.927  -8.488  11.823  1.00  0.00     0.015 A 
ENDBRANCH  23  26
ENDBRANCH  18  22
ENDBRANCH  15  16
ENDBRANCH   1  15
TORSDOF 6
ENDMDL
MODEL 2
REMARK VINA RESULT:      -8.1      4.422      7.658
REMARK  6 active torsions:
REMARK  status: ('A' for Active; 'I' for Inactive)
REMARK    1  A    between atoms: C_3  and  N_4 
REMARK       I    between atoms: N_4  and  C_5 
REMARK    2  A    between atoms: C_5  and  C_6 
REMARK    3  A    between atoms: C_6  and  O_7 
REMARK    4  A    between atoms: O_7  and  C_8 
REMARK    5  A    between atoms: C_10  and  N_11 
REMARK       I    between atoms: N_11  and  C_12 
REMARK    6  A    between atoms: C_12  and  C_13 
ROOT
HETATM    1  C   UNL     1      41.311 -13.332   5.740  1.00  0.00     0.278 C 
ENDROOT
BRANCH   1   2
HETATM    2  C   UNL     1      41.477 -14.841   5.527  1.00  0.00     0.246 C 
HETATM    3  N   UNL     1      42.340 -15.138   4.487  1.00  0.00    -0.323 N 
HETATM    4  H   UNL     1      42.915 -14.341   4.230  1.00  0.00     0.169 HD
HETATM    5  O   UNL     1      40.895 -15.636   6.257  1.00  0.00    -0.271 OA
BRANCH   3   6
HETATM    6  C   UNL     1      42.762 -16.405   4.009  1.00  0.00     0.065 A 
HETATM    7  C   UNL     1      43.769 -17.197   4.585  1.00  0.00    -0.031 A 
HETATM    8  C   UNL     1      44.473 -16.906   5.881  1.00  0.00     0.050 C 
HETATM    9  C   UNL     1      44.138 -18.391   3.938  1.00  0.00     0.035 A 
HETATM   10  C   UNL     1      43.463 -18.808   2.801  1.00  0.00     0.031 A 
HETATM   11  N   UNL     1      42.435 -18.109   2.284  1.00  0.00    -0.256 NA
HETATM   12  C   UNL     1      43.859 -20.074   2.104  1.00  0.00     0.070 C 
HETATM   13  C   UNL     1      42.095 -16.937   2.881  1.00  0.00     0.058 A 
HETATM   14  C   UNL     1      40.948 -16.222   2.219  1.00  0.00     0.073 C 
ENDBRANCH   3   6
ENDBRANCH   1   2
BRANCH   1  15
HETATM   15  O   UNL     1      39.950 -12.910   5.666  1.00  0.00    -0.342 OA
BRANCH  15  16
HETATM   16  C   UNL     1      39.583 -12.239   4.532  1.00  0.00     0.071 A 
HETATM   17  C   UNL     1      39.480 -13.019   3.376  1.00  0.00     0.066 A 
HETATM   18  C   UNL     1      39.072 -12.453   2.167  1.00  0.00     0.037 A 
HETATM   19  C   UNL     1      38.748 -11.090   2.138  1.00  0.00     0.029 A 
HETATM   20  C   UNL     1      38.826 -10.314   3.297  1.00  0.00     0.005 A 
HETATM   21  C   UNL     1      39.238 -10.888   4.499  1.00  0.00     0.037 A 
BRANCH  18  22
HETATM   22  N   UNL     1      38.959 -13.167   0.956  1.00  0.00    -0.327 N 
HETATM   23  C   UNL     1      39.948 -13.398   0.022  1.00  0.00     0.226 C 
HETATM   24  O   UNL     1      41.113 -13.036   0.085  1.00  0.00    -0.273 OA
HETATM   25  H   UNL     1      38.052 -13.560   0.763  1.00  0.00     0.169 HD
BRANCH  23  26
HETATM   26  C   UNL     1      39.537 -14.185  -1.183  1.00  0.00     0.078 A 
HETATM   27  C   UNL     1      38.600 -13.562  -2.193  1.00  0.00     0.015 A 
HETATM   28  C   UNL     1      39.989 -13.953  -2.604  1.00  0.00     0.015 A 
ENDBRANCH  23  26
ENDBRANCH  18  22
ENDBRANCH  15  16
ENDBRANCH   1  15
TORSDOF 6
ENDMDL
MODEL 3
REMARK VINA RESULT:      -7.9      4.189      7.491
REMARK  6 active torsions:
REMARK  status: ('A' for Active; 'I' for Inactive)
REMARK    1  A    between atoms: C_3  and  N_4 
REMARK       I    between atoms: N_4  and  C_5 
REMARK    2  A    between atoms: C_5  and  C_6 
REMARK    3  A    between atoms: C_6  and  O_7 
REMARK    4  A    between atoms: O_7  and  C_8 
REMARK    5  A    between atoms: C_10  and  N_11 
REMARK       I    between atoms: N_11  and  C_12 
REMARK    6  A    between atoms: C_12  and  C_13 
ROOT
HETATM    1  C   UNL     1      41.859 -13.080   5.632  1.00  0.00     0.278 C 
ENDROOT
BRANCH   1   2
HETATM    2  C   UNL     1      42.527 -14.006   4.608  1.00  0.00     0.246 C 
HETATM    3  N   UNL     1      42.232 -15.340   4.828  1.00  0.00    -0.323 N 
HETATM    4  H   UNL     1      41.427 -15.457   5.438  1.00  0.00     0.169 HD
HETATM    5  O   UNL     1      43.213 -13.538   3.706  1.00  0.00    -0.271 OA
BRANCH   3   6
HETATM    6  C   UNL     1      42.636 -16.480   4.088  1.00  0.00     0.065 A 
HETATM    7  C   UNL     1      42.077 -16.898   2.869  1.00  0.00    -0.031 A 
HETATM    8  C   UNL     1      41.055 -16.137   2.072  1.00  0.00     0.050 C 
HETATM    9  C   UNL     1      42.527 -18.105   2.302  1.00  0.00     0.035 A 
HETATM   10  C   UNL     1      43.555 -18.818   2.899  1.00  0.00     0.031 A 
HETATM   11  N   UNL     1      44.166 -18.388   4.019  1.00  0.00    -0.256 NA
HETATM   12  C   UNL     1      44.030 -20.108   2.304  1.00  0.00     0.070 C 
HETATM   13  C   UNL     1      43.715 -17.242   4.594  1.00  0.00     0.058 A 
HETATM   14  C   UNL     1      44.449 -16.856   5.849  1.00  0.00     0.073 C 
ENDBRANCH   3   6
ENDBRANCH   1   2
BRANCH   1  15
HETATM   15  O   UNL     1      40.434 -13.101   5.547  1.00  0.00    -0.342 OA
BRANCH  15  16
HETATM   16  C   UNL     1      39.877 -12.388   4.522  1.00  0.00     0.071 A 
HETATM   17  C   UNL     1      39.707 -13.089   3.322  1.00  0.00     0.066 A 
HETATM   18  C   UNL     1      39.110 -12.478   2.218  1.00  0.00     0.037 A 
HETATM   19  C   UNL     1      38.665 -11.156   2.340  1.00  0.00     0.029 A 
HETATM   20  C   UNL     1      38.811 -10.461   3.544  1.00  0.00     0.005 A 
HETATM   21  C   UNL     1      39.411 -11.079   4.640  1.00  0.00     0.037 A 
BRANCH  18  22
HETATM   22  N   UNL     1      38.917 -13.110   0.972  1.00  0.00    -0.327 N 
HETATM   23  C   UNL     1      39.845 -13.283  -0.034  1.00  0.00     0.226 C 
HETATM   24  O   UNL     1      41.016 -12.930  -0.019  1.00  0.00    -0.273 OA
HETATM   25  H   UNL     1      37.997 -13.486   0.809  1.00  0.00     0.169 HD
BRANCH  23  26
HETATM   26  C   UNL     1      39.356 -13.986  -1.261  1.00  0.00     0.078 A 
HETATM   27  C   UNL     1      38.516 -13.230  -2.266  1.00  0.00     0.015 A 
HETATM   28  C   UNL     1      39.851 -13.781  -2.672  1.00  0.00     0.015 A 
ENDBRANCH  23  26
ENDBRANCH  18  22
ENDBRANCH  15  16
ENDBRANCH   1  15
TORSDOF 6
ENDMDL
MODEL 4
REMARK VINA RESULT:      -7.9      1.764      9.321
REMARK  6 active torsions:
REMARK  status: ('A' for Active; 'I' for Inactive)
REMARK    1  A    between atoms: C_3  and  N_4 
REMARK       I    between atoms: N_4  and  C_5 
REMARK    2  A    between atoms: C_5  and  C_6 
REMARK    3  A    between atoms: C_6  and  O_7 
REMARK    4  A    between atoms: O_7  and  C_8 
REMARK    5  A    between atoms: C_10  and  N_11 
REMARK       I    between atoms: N_11  and  C_12 
REMARK    6  A    between atoms: C_12  and  C_13 
ROOT
HETATM    1  C   UNL     1      43.477 -12.091   4.779  1.00  0.00     0.278 C 
ENDROOT
BRANCH   1   2
HETATM    2  C   UNL     1      43.789 -11.881   6.266  1.00  0.00     0.246 C 
HETATM    3  N   UNL     1      43.531 -10.588   6.684  1.00  0.00    -0.323 N 
HETATM    4  H   UNL     1      42.936 -10.087   6.029  1.00  0.00     0.169 HD
HETATM    5  O   UNL     1      44.195 -12.814   6.950  1.00  0.00    -0.271 OA
BRANCH   3   6
HETATM    6  C   UNL     1      43.667 -10.021   7.976  1.00  0.00     0.065 A 
HETATM    7  C   UNL     1      44.878  -9.858   8.670  1.00  0.00    -0.031 A 
HETATM    8  C   UNL     1      46.247 -10.127   8.109  1.00  0.00     0.050 C 
HETATM    9  C   UNL     1      44.838  -9.361   9.986  1.00  0.00     0.035 A 
HETATM   10  C   UNL     1      43.633  -8.968  10.549  1.00  0.00     0.031 A 
HETATM   11  N   UNL     1      42.473  -9.031   9.869  1.00  0.00    -0.256 NA
HETATM   12  C   UNL     1      43.585  -8.448  11.953  1.00  0.00     0.070 C 
HETATM   13  C   UNL     1      42.497  -9.543   8.610  1.00  0.00     0.058 A 
HETATM   14  C   UNL     1      41.149  -9.589   7.942  1.00  0.00     0.073 C 
ENDBRANCH   3   6
ENDBRANCH   1   2
BRANCH   1  15
HETATM   15  O   UNL     1      42.135 -12.522   4.553  1.00  0.00    -0.342 OA
BRANCH  15  16
HETATM   16  C   UNL     1      41.835 -13.799   4.937  1.00  0.00     0.071 A 
HETATM   17  C   UNL     1      42.635 -14.801   4.378  1.00  0.00     0.066 A 
HETATM   18  C   UNL     1      42.451 -16.140   4.727  1.00  0.00     0.037 A 
HETATM   19  C   UNL     1      41.461 -16.460   5.666  1.00  0.00     0.029 A 
HETATM   20  C   UNL     1      40.677 -15.458   6.245  1.00  0.00     0.005 A 
HETATM   21  C   UNL     1      40.867 -14.125   5.887  1.00  0.00     0.037 A 
BRANCH  18  22
HETATM   22  N   UNL     1      43.203 -17.208   4.197  1.00  0.00    -0.327 N 
HETATM   23  C   UNL     1      42.967 -17.904   3.029  1.00  0.00     0.226 C 
HETATM   24  O   UNL     1      42.063 -17.707   2.230  1.00  0.00    -0.273 OA
HETATM   25  H   UNL     1      44.012 -17.482   4.731  1.00  0.00     0.169 HD
BRANCH  23  26
HETATM   26  C   UNL     1      43.931 -19.004   2.717  1.00  0.00     0.078 A 
HETATM   27  C   UNL     1      43.757 -20.354   3.376  1.00  0.00     0.015 A 
HETATM   28  C   UNL     1      43.654 -20.232   1.884  1.00  0.00     0.015 A 
ENDBRANCH  23  26
ENDBRANCH  18  22
ENDBRANCH  15  16
ENDBRANCH   1  15
TORSDOF 6
ENDMDL
MODEL 5
REMARK VINA RESULT:      -7.6      1.507      1.833
REMARK  6 active torsions:
REMARK  status: ('A' for Active; 'I' for Inactive)
REMARK    1  A    between atoms: C_3  and  N_4 
REMARK       I    between atoms: N_4  and  C_5 
REMARK    2  A    between atoms: C_5  and  C_6 
REMARK    3  A    between atoms: C_6  and  O_7 
REMARK    4  A    between atoms: O_7  and  C_8 
REMARK    5  A    between atoms: C_10  and  N_11 
REMARK       I    between atoms: N_11  and  C_12 
REMARK    6  A    between atoms: C_12  and  C_13 
ROOT
HETATM    1  C   UNL     1      42.621 -11.024   5.079  1.00  0.00     0.278 C 
ENDROOT
BRANCH   1   2
HETATM    2  C   UNL     1      43.142 -12.166   4.200  1.00  0.00     0.246 C 
HETATM    3  N   UNL     1      42.457 -13.350   4.408  1.00  0.00    -0.323 N 
HETATM    4  H   UNL     1      41.573 -13.200   4.886  1.00  0.00     0.169 HD
HETATM    5  O   UNL     1      44.054 -11.967   3.404  1.00  0.00    -0.271 OA
BRANCH   3   6
HETATM    6  C   UNL     1      42.627 -14.606   3.772  1.00  0.00     0.065 A 
HETATM    7  C   UNL     1      42.300 -14.893   2.436  1.00  0.00    -0.031 A 
HETATM    8  C   UNL     1      41.848 -13.887   1.415  1.00  0.00     0.050 C 
HETATM    9  C   UNL     1      42.443 -16.216   1.978  1.00  0.00     0.035 A 
HETATM   10  C   UNL     1      42.970 -17.192   2.810  1.00  0.00     0.031 A 
HETATM   11  N   UNL     1      43.373 -16.918   4.065  1.00  0.00    -0.256 NA
HETATM   12  C   UNL     1      43.114 -18.603   2.329  1.00  0.00     0.070 C 
HETATM   13  C   UNL     1      43.206 -15.651   4.528  1.00  0.00     0.058 A 
HETATM   14  C   UNL     1      43.670 -15.452   5.946  1.00  0.00     0.073 C 
ENDBRANCH   3   6
ENDBRANCH   1   2
BRANCH   1  15
HETATM   15  O   UNL     1      42.622 -11.352   6.468  1.00  0.00    -0.342 OA
BRANCH  15  16
HETATM   16  C   UNL     1      43.668 -10.869   7.205  1.00  0.00     0.071 A 
HETATM   17  C   UNL     1      43.315 -10.103   8.322  1.00  0.00     0.066 A 
HETATM   18  C   UNL     1      44.295  -9.591   9.174  1.00  0.00     0.037 A 
HETATM   19  C   UNL     1      45.639  -9.878   8.903  1.00  0.00     0.029 A 
HETATM   20  C   UNL     1      45.993 -10.664   7.803  1.00  0.00     0.005 A 
HETATM   21  C   UNL     1      45.007 -11.168   6.956  1.00  0.00     0.037 A 
BRANCH  18  22
HETATM   22  N   UNL     1      44.022  -8.798  10.308  1.00  0.00    -0.327 N 
HETATM   23  C   UNL     1      43.626  -9.226  11.557  1.00  0.00     0.226 C 
HETATM   24  O   UNL     1      43.453 -10.383  11.914  1.00  0.00    -0.273 OA
HETATM   25  H   UNL     1      44.144  -7.805  10.187  1.00  0.00     0.169 HD
BRANCH  23  26
HETATM   26  C   UNL     1      43.398  -8.153  12.575  1.00  0.00     0.078 A 
HETATM   27  C   UNL     1      42.037  -7.499  12.672  1.00  0.00     0.015 A 
HETATM   28  C   UNL     1      42.579  -8.272  13.838  1.00  0.00     0.015 A 
ENDBRANCH  23  26
ENDBRANCH  18  22
ENDBRANCH  15  16
ENDBRANCH   1  15
TORSDOF 6
ENDMDL
MODEL 6
REMARK VINA RESULT:      -7.6      2.409      9.082
REMARK  6 active torsions:
REMARK  status: ('A' for Active; 'I' for Inactive)
REMARK    1  A    between atoms: C_3  and  N_4 
REMARK       I    between atoms: N_4  and  C_5 
REMARK    2  A    between atoms: C_5  and  C_6 
REMARK    3  A    between atoms: C_6  and  O_7 
REMARK    4  A    between atoms: O_7  and  C_8 
REMARK    5  A    between atoms: C_10  and  N_11 
REMARK       I    between atoms: N_11  and  C_12 
REMARK    6  A    between atoms: C_12  and  C_13 
ROOT
HETATM    1  C   UNL     1      41.675 -11.515   3.429  1.00  0.00     0.278 C 
ENDROOT
BRANCH   1   2
HETATM    2  C   UNL     1      41.706 -11.515   4.962  1.00  0.00     0.246 C 
HETATM    3  N   UNL     1      42.742 -10.751   5.471  1.00  0.00    -0.323 N 
HETATM    4  H   UNL     1      43.124 -10.116   4.776  1.00  0.00     0.169 HD
HETATM    5  O   UNL     1      40.856 -12.128   5.598  1.00  0.00    -0.271 OA
BRANCH   3   6
HETATM    6  C   UNL     1      43.080 -10.488   6.823  1.00  0.00     0.065 A 
HETATM    7  C   UNL     1      42.485  -9.506   7.633  1.00  0.00    -0.031 A 
HETATM    8  C   UNL     1      41.299  -8.664   7.253  1.00  0.00     0.050 C 
HETATM    9  C   UNL     1      42.995  -9.304   8.929  1.00  0.00     0.035 A 
HETATM   10  C   UNL     1      44.008 -10.115   9.416  1.00  0.00     0.031 A 
HETATM   11  N   UNL     1      44.531 -11.121   8.689  1.00  0.00    -0.256 NA
HETATM   12  C   UNL     1      44.560  -9.898  10.792  1.00  0.00     0.070 C 
HETATM   13  C   UNL     1      44.070 -11.300   7.423  1.00  0.00     0.058 A 
HETATM   14  C   UNL     1      44.728 -12.435   6.686  1.00  0.00     0.073 C 
ENDBRANCH   3   6
ENDBRANCH   1   2
BRANCH   1  15
HETATM   15  O   UNL     1      42.475 -12.552   2.862  1.00  0.00    -0.342 OA
BRANCH  15  16
HETATM   16  C   UNL     1      41.827 -13.714   2.544  1.00  0.00     0.071 A 
HETATM   17  C   UNL     1      42.631 -14.857   2.489  1.00  0.00     0.066 A 
HETATM   18  C   UNL     1      42.075 -16.108   2.216  1.00  0.00     0.037 A 
HETATM   19  C   UNL     1      40.691 -16.200   2.018  1.00  0.00     0.029 A 
HETATM   20  C   UNL     1      39.882 -15.064   2.097  1.00  0.00     0.005 A 
HETATM   21  C   UNL     1      40.447 -13.818   2.368  1.00  0.00     0.037 A 
BRANCH  18  22
HETATM   22  N   UNL     1      42.819 -17.303   2.127  1.00  0.00    -0.327 N 
HETATM   23  C   UNL     1      43.372 -18.027   3.162  1.00  0.00     0.226 C 
HETATM   24  O   UNL     1      43.303 -17.768   4.355  1.00  0.00    -0.273 OA
HETATM   25  H   UNL     1      42.947 -17.671   1.197  1.00  0.00     0.169 HD
BRANCH  23  26
HETATM   26  C   UNL     1      44.123 -19.260   2.770  1.00  0.00     0.078 A 
HETATM   27  C   UNL     1      43.691 -20.600   3.323  1.00  0.00     0.015 A 
HETATM   28  C   UNL     1      43.639 -20.351   1.844  1.00  0.00     0.015 A 
ENDBRANCH  23  26
ENDBRANCH  18  22
ENDBRANCH  15  16
ENDBRANCH   1  15
TORSDOF 6
ENDMDL
MODEL 7
REMARK VINA RESULT:      -7.4      1.858      2.943
REMARK  6 active torsions:
REMARK  status: ('A' for Active; 'I' for Inactive)
REMARK    1  A    between atoms: C_3  and  N_4 
REMARK       I    between atoms: N_4  and  C_5 
REMARK    2  A    between atoms: C_5  and  C_6 
REMARK    3  A    between atoms: C_6  and  O_7 
REMARK    4  A    between atoms: O_7  and  C_8 
REMARK    5  A    between atoms: C_10  and  N_11 
REMARK       I    between atoms: N_11  and  C_12 
REMARK    6  A    between atoms: C_12  and  C_13 
ROOT
HETATM    1  C   UNL     1      43.325 -13.478   6.887  1.00  0.00     0.278 C 
ENDROOT
BRANCH   1   2
HETATM    2  C   UNL     1      42.218 -13.705   5.852  1.00  0.00     0.246 C 
HETATM    3  N   UNL     1      42.667 -13.553   4.552  1.00  0.00    -0.323 N 
HETATM    4  H   UNL     1      43.681 -13.591   4.493  1.00  0.00     0.169 HD
HETATM    5  O   UNL     1      41.086 -14.010   6.213  1.00  0.00    -0.271 OA
BRANCH   3   6
HETATM    6  C   UNL     1      41.956 -13.707   3.334  1.00  0.00     0.065 A 
HETATM    7  C   UNL     1      41.031 -12.788   2.811  1.00  0.00    -0.031 A 
HETATM    8  C   UNL     1      40.741 -11.426   3.377  1.00  0.00     0.050 C 
HETATM    9  C   UNL     1      40.338 -13.127   1.634  1.00  0.00     0.035 A 
HETATM   10  C   UNL     1      40.626 -14.309   0.969  1.00  0.00     0.031 A 
HETATM   11  N   UNL     1      41.573 -15.161   1.404  1.00  0.00    -0.256 NA
HETATM   12  C   UNL     1      39.884 -14.678  -0.279  1.00  0.00     0.070 C 
HETATM   13  C   UNL     1      42.223 -14.859   2.560  1.00  0.00     0.058 A 
HETATM   14  C   UNL     1      43.248 -15.882   2.971  1.00  0.00     0.073 C 
ENDBRANCH   3   6
ENDBRANCH   1   2
BRANCH   1  15
HETATM   15  O   UNL     1      44.419 -12.723   6.367  1.00  0.00    -0.342 OA
BRANCH  15  16
HETATM   16  C   UNL     1      44.826 -11.651   7.112  1.00  0.00     0.071 A 
HETATM   17  C   UNL     1      43.970 -11.283   8.156  1.00  0.00     0.066 A 
HETATM   18  C   UNL     1      44.299 -10.230   9.011  1.00  0.00     0.037 A 
HETATM   19  C   UNL     1      45.515  -9.561   8.817  1.00  0.00     0.029 A 
HETATM   20  C   UNL     1      46.383  -9.943   7.791  1.00  0.00     0.005 A 
HETATM   21  C   UNL     1      46.044 -10.994   6.940  1.00  0.00     0.037 A 
BRANCH  18  22
HETATM   22  N   UNL     1      43.484  -9.788  10.074  1.00  0.00    -0.327 N 
HETATM   23  C   UNL     1      43.355 -10.355  11.325  1.00  0.00     0.226 C 
HETATM   24  O   UNL     1      43.941 -11.342  11.745  1.00  0.00    -0.273 OA
HETATM   25  H   UNL     1      42.946  -8.956   9.896  1.00  0.00     0.169 HD
BRANCH  23  26
HETATM   26  C   UNL     1      42.403  -9.674  12.256  1.00  0.00     0.078 A 
HETATM   27  C   UNL     1      42.926  -8.635  13.224  1.00  0.00     0.015 A 
HETATM   28  C   UNL     1      41.932  -8.242  12.171  1.00  0.00     0.015 A 
ENDBRANCH  23  26
ENDBRANCH  18  22
ENDBRANCH  15  16
ENDBRANCH   1  15
TORSDOF 6
ENDMDL
MODEL 8
REMARK VINA RESULT:      -7.3      1.917      2.365
REMARK  6 active torsions:
REMARK  status: ('A' for Active; 'I' for Inactive)
REMARK    1  A    between atoms: C_3  and  N_4 
REMARK       I    between atoms: N_4  and  C_5 
REMARK    2  A    between atoms: C_5  and  C_6 
REMARK    3  A    between atoms: C_6  and  O_7 
REMARK    4  A    between atoms: O_7  and  C_8 
REMARK    5  A    between atoms: C_10  and  N_11 
REMARK       I    between atoms: N_11  and  C_12 
REMARK    6  A    between atoms: C_12  and  C_13 
ROOT
HETATM    1  C   UNL     1      41.957 -13.133   5.537  1.00  0.00     0.278 C 
ENDROOT
BRANCH   1   2
HETATM    2  C   UNL     1      41.764 -14.492   4.855  1.00  0.00     0.246 C 
HETATM    3  N   UNL     1      42.964 -15.094   4.523  1.00  0.00    -0.323 N 
HETATM    4  H   UNL     1      43.748 -14.680   5.020  1.00  0.00     0.169 HD
HETATM    5  O   UNL     1      40.636 -14.942   4.681  1.00  0.00    -0.271 OA
BRANCH   3   6
HETATM    6  C   UNL     1      43.196 -16.353   3.911  1.00  0.00     0.065 A 
HETATM    7  C   UNL     1      42.991 -16.647   2.553  1.00  0.00    -0.031 A 
HETATM    8  C   UNL     1      42.625 -15.648   1.490  1.00  0.00     0.050 C 
HETATM    9  C   UNL     1      43.179 -17.971   2.115  1.00  0.00     0.035 A 
HETATM   10  C   UNL     1      43.635 -18.940   2.996  1.00  0.00     0.031 A 
HETATM   11  N   UNL     1      43.925 -18.659   4.280  1.00  0.00    -0.256 NA
HETATM   12  C   UNL     1      43.829 -20.353   2.536  1.00  0.00     0.070 C 
HETATM   13  C   UNL     1      43.711 -17.391   4.721  1.00  0.00     0.058 A 
HETATM   14  C   UNL     1      44.046 -17.183   6.173  1.00  0.00     0.073 C 
ENDBRANCH   3   6
ENDBRANCH   1   2
BRANCH   1  15
HETATM   15  O   UNL     1      41.732 -12.035   4.653  1.00  0.00    -0.342 OA
BRANCH  15  16
HETATM   16  C   UNL     1      41.678 -10.795   5.227  1.00  0.00     0.071 A 
HETATM   17  C   UNL     1      42.201 -10.706   6.522  1.00  0.00     0.066 A 
HETATM   18  C   UNL     1      42.238  -9.483   7.193  1.00  0.00     0.037 A 
HETATM   19  C   UNL     1      41.760  -8.341   6.538  1.00  0.00     0.029 A 
HETATM   20  C   UNL     1      41.260  -8.422   5.236  1.00  0.00     0.005 A 
HETATM   21  C   UNL     1      41.224  -9.649   4.575  1.00  0.00     0.037 A 
BRANCH  18  22
HETATM   22  N   UNL     1      42.734  -9.314   8.503  1.00  0.00    -0.327 N 
HETATM   23  C   UNL     1      42.007  -9.244   9.673  1.00  0.00     0.226 C 
HETATM   24  O   UNL     1      40.793  -9.334   9.788  1.00  0.00    -0.273 OA
HETATM   25  H   UNL     1      43.736  -9.248   8.587  1.00  0.00     0.169 HD
BRANCH  23  26
HETATM   26  C   UNL     1      42.802  -9.050  10.926  1.00  0.00     0.078 A 
HETATM   27  C   UNL     1      43.342 -10.258  11.659  1.00  0.00     0.015 A 
HETATM   28  C   UNL     1      44.290  -9.246  11.086  1.00  0.00     0.015 A 
ENDBRANCH  23  26
ENDBRANCH  18  22
ENDBRANCH  15  16
ENDBRANCH   1  15
TORSDOF 6
ENDMDL
MODEL 9
REMARK VINA RESULT:      -7.3      4.931      8.248
REMARK  6 active torsions:
REMARK  status: ('A' for Active; 'I' for Inactive)
REMARK    1  A    between atoms: C_3  and  N_4 
REMARK       I    between atoms: N_4  and  C_5 
REMARK    2  A    between atoms: C_5  and  C_6 
REMARK    3  A    between atoms: C_6  and  O_7 
REMARK    4  A    between atoms: O_7  and  C_8 
REMARK    5  A    between atoms: C_10  and  N_11 
REMARK       I    between atoms: N_11  and  C_12 
REMARK    6  A    between atoms: C_12  and  C_13 
ROOT
HETATM    1  C   UNL     1      41.014 -12.976   4.085  1.00  0.00     0.278 C 
ENDROOT
BRANCH   1   2
HETATM    2  C   UNL     1      42.168 -13.986   4.070  1.00  0.00     0.246 C 
HETATM    3  N   UNL     1      41.746 -15.276   4.336  1.00  0.00    -0.323 N 
HETATM    4  H   UNL     1      40.741 -15.380   4.225  1.00  0.00     0.169 HD
HETATM    5  O   UNL     1      43.309 -13.617   3.815  1.00  0.00    -0.271 OA
BRANCH   3   6
HETATM    6  C   UNL     1      42.503 -16.474   4.384  1.00  0.00     0.065 A 
HETATM    7  C   UNL     1      43.063 -17.127   3.273  1.00  0.00    -0.031 A 
HETATM    8  C   UNL     1      43.075 -16.597   1.866  1.00  0.00     0.050 C 
HETATM    9  C   UNL     1      43.712 -18.360   3.473  1.00  0.00     0.035 A 
HETATM   10  C   UNL     1      43.860 -18.872   4.753  1.00  0.00     0.031 A 
HETATM   11  N   UNL     1      43.411 -18.218   5.841  1.00  0.00    -0.256 NA
HETATM   12  C   UNL     1      44.542 -20.188   4.969  1.00  0.00     0.070 C 
HETATM   13  C   UNL     1      42.751 -17.044   5.654  1.00  0.00     0.058 A 
HETATM   14  C   UNL     1      42.272 -16.402   6.928  1.00  0.00     0.073 C 
ENDBRANCH   3   6
ENDBRANCH   1   2
BRANCH   1  15
HETATM   15  O   UNL     1      39.851 -13.457   3.414  1.00  0.00    -0.342 OA
BRANCH  15  16
HETATM   16  C   UNL     1      39.956 -13.623   2.060  1.00  0.00     0.071 A 
HETATM   17  C   UNL     1      40.272 -12.469   1.334  1.00  0.00     0.066 A 
HETATM   18  C   UNL     1      40.447 -12.523  -0.049  1.00  0.00     0.037 A 
HETATM   19  C   UNL     1      40.320 -13.759  -0.696  1.00  0.00     0.029 A 
HETATM   20  C   UNL     1      40.029 -14.917   0.029  1.00  0.00     0.005 A 
HETATM   21  C   UNL     1      39.853 -14.853   1.411  1.00  0.00     0.037 A 
BRANCH  18  22
HETATM   22  N   UNL     1      40.751 -11.404  -0.853  1.00  0.00    -0.327 N 
HETATM   23  C   UNL     1      39.870 -10.624  -1.573  1.00  0.00     0.226 C 
HETATM   24  O   UNL     1      38.656 -10.754  -1.632  1.00  0.00    -0.273 OA
HETATM   25  H   UNL     1      41.723 -11.144  -0.892  1.00  0.00     0.169 HD
BRANCH  23  26
HETATM   26  C   UNL     1      40.478  -9.499  -2.350  1.00  0.00     0.078 A 
HETATM   27  C   UNL     1      40.798  -9.696  -3.815  1.00  0.00     0.015 A 
HETATM   28  C   UNL     1      39.794  -8.660  -3.403  1.00  0.00     0.015 A 
ENDBRANCH  23  26
ENDBRANCH  18  22
ENDBRANCH  15  16
ENDBRANCH   1  15
TORSDOF 6
ENDMDL
MODEL 10
REMARK VINA RESULT:      -7.1      3.706      5.517
REMARK  6 active torsions:
REMARK  status: ('A' for Active; 'I' for Inactive)
REMARK    1  A    between atoms: C_3  and  N_4 
REMARK       I    between atoms: N_4  and  C_5 
REMARK    2  A    between atoms: C_5  and  C_6 
REMARK    3  A    between atoms: C_6  and  O_7 
REMARK    4  A    between atoms: O_7  and  C_8 
REMARK    5  A    between atoms: C_10  and  N_11 
REMARK       I    between atoms: N_11  and  C_12 
REMARK    6  A    between atoms: C_12  and  C_13 
ROOT
HETATM    1  C   UNL     1      40.182 -11.548   4.399  1.00  0.00     0.278 C 
ENDROOT
BRANCH   1   2
HETATM    2  C   UNL     1      40.346 -11.638   2.878  1.00  0.00     0.246 C 
HETATM    3  N   UNL     1      39.514 -12.586   2.310  1.00  0.00    -0.323 N 
HETATM    4  H   UNL     1      38.761 -12.857   2.937  1.00  0.00     0.169 HD
HETATM    5  O   UNL     1      41.132 -10.898   2.296  1.00  0.00    -0.271 OA
BRANCH   3   6
HETATM    6  C   UNL     1      39.359 -12.939   0.945  1.00  0.00     0.065 A 
HETATM    7  C   UNL     1      38.658 -12.189  -0.015  1.00  0.00    -0.031 A 
HETATM    8  C   UNL     1      38.074 -10.822   0.205  1.00  0.00     0.050 C 
HETATM    9  C   UNL     1      38.515 -12.720  -1.310  1.00  0.00     0.035 A 
HETATM   10  C   UNL     1      39.124 -13.920  -1.645  1.00  0.00     0.031 A 
HETATM   11  N   UNL     1      39.876 -14.610  -0.767  1.00  0.00    -0.256 NA
HETATM   12  C   UNL     1      38.967 -14.492  -3.021  1.00  0.00     0.070 C 
HETATM   13  C   UNL     1      39.989 -14.123   0.497  1.00  0.00     0.058 A 
HETATM   14  C   UNL     1      40.833 -14.975   1.408  1.00  0.00     0.073 C 
ENDBRANCH   3   6
ENDBRANCH   1   2
BRANCH   1  15
HETATM   15  O   UNL     1      40.172 -12.828   5.029  1.00  0.00    -0.342 OA
BRANCH  15  16
HETATM   16  C   UNL     1      41.383 -13.312   5.441  1.00  0.00     0.071 A 
HETATM   17  C   UNL     1      42.157 -12.430   6.203  1.00  0.00     0.066 A 
HETATM   18  C   UNL     1      43.394 -12.826   6.715  1.00  0.00     0.037 A 
HETATM   19  C   UNL     1      43.837 -14.132   6.468  1.00  0.00     0.029 A 
HETATM   20  C   UNL     1      43.055 -15.023   5.729  1.00  0.00     0.005 A 
HETATM   21  C   UNL     1      41.822 -14.617   5.219  1.00  0.00     0.037 A 
BRANCH  18  22
HETATM   22  N   UNL     1      44.239 -11.993   7.476  1.00  0.00    -0.327 N 
HETATM   23  C   UNL     1      45.340 -11.287   7.038  1.00  0.00     0.226 C 
HETATM   24  O   UNL     1      45.776 -11.245   5.896  1.00  0.00    -0.273 OA
HETATM   25  H   UNL     1      43.998 -11.897   8.450  1.00  0.00     0.169 HD
BRANCH  23  26
HETATM   26  C   UNL     1      46.060 -10.487   8.076  1.00  0.00     0.078 A 
HETATM   27  C   UNL     1      45.723  -9.022   8.251  1.00  0.00     0.015 A 
HETATM   28  C   UNL     1      45.488  -9.983   9.379  1.00  0.00     0.015 A 
ENDBRANCH  23  26
ENDBRANCH  18  22
ENDBRANCH  15  16
ENDBRANCH   1  15
TORSDOF 6
ENDMDL
