MODEL 1
REMARK VINA RESULT:      -8.6      0.000      0.000
REMARK  3 active torsions:
REMARK  status: ('A' for Active; 'I' for Inactive)
REMARK       I    between atoms: C_2  and  N_3 
REMARK    1  A    between atoms: N_3  and  N_4 
REMARK       I    between atoms: N_4  and  C_5 
REMARK    2  A    between atoms: C_5  and  C_6 
REMARK    3  A    between atoms: C_11  and  C_12 
ROOT
HETATM    1  C   UNL     1      42.859 -15.585   5.233  1.00  0.00     0.115 A 
HETATM    2  N   UNL     1      43.519 -16.660   5.797  1.00  0.00    -0.350 N 
HETATM    3  H   UNL     1      43.904 -16.669   6.732  1.00  0.00     0.166 HD
HETATM    4  C   UNL     1      43.639 -17.700   4.910  1.00  0.00     0.044 A 
HETATM    5  C   UNL     1      43.049 -17.288   3.718  1.00  0.00     0.006 A 
HETATM    6  C   UNL     1      42.571 -15.950   3.921  1.00  0.00     0.019 A 
HETATM    7  C   UNL     1      44.228 -18.960   5.074  1.00  0.00     0.032 A 
HETATM    8  C   UNL     1      44.204 -19.831   3.981  1.00  0.00     0.026 A 
HETATM    9  C   UNL     1      43.613 -19.449   2.780  1.00  0.00     0.035 A 
HETATM   10 CL   UNL     1      43.601 -20.547   1.454  1.00  0.00    -0.084 Cl
HETATM   11  C   UNL     1      43.031 -18.187   2.631  1.00  0.00     0.038 A 
ENDROOT
BRANCH   1  12
HETATM   12  C   UNL     1      42.622 -14.340   5.938  1.00  0.00     0.287 C 
HETATM   13  N   UNL     1      43.740 -13.831   6.581  1.00  0.00    -0.262 N 
HETATM   14  H   UNL     1      44.524 -14.430   6.835  1.00  0.00     0.190 HD
HETATM   15  O   UNL     1      41.544 -13.753   5.995  1.00  0.00    -0.264 OA
BRANCH  13  16
HETATM   16  N   UNL     1      43.570 -12.705   7.405  1.00  0.00    -0.268 N 
HETATM   17  C   UNL     1      44.546 -11.734   7.354  1.00  0.00     0.232 C 
HETATM   18  C   UNL     1      44.384 -10.630   8.361  1.00  0.00     0.119 C 
HETATM   19  O   UNL     1      45.461 -11.758   6.533  1.00  0.00    -0.272 OA
HETATM   20  H   UNL     1      42.960 -12.835   8.213  1.00  0.00     0.190 HD
ENDBRANCH  13  16
ENDBRANCH   1  12
BRANCH   6  21
HETATM   21  C   UNL     1      41.892 -15.100   2.954  1.00  0.00    -0.023 A 
HETATM   22  C   UNL     1      40.555 -15.330   2.606  1.00  0.00     0.012 A 
HETATM   23  C   UNL     1      39.928 -14.526   1.651  1.00  0.00     0.001 A 
HETATM   24  C   UNL     1      40.635 -13.497   1.031  1.00  0.00     0.000 A 
HETATM   25  C   UNL     1      41.968 -13.265   1.366  1.00  0.00     0.001 A 
HETATM   26  C   UNL     1      42.595 -14.065   2.324  1.00  0.00     0.012 A 
ENDBRANCH   6  21
TORSDOF 3
ENDMDL
MODEL 2
REMARK VINA RESULT:      -8.4      1.786      2.292
REMARK  3 active torsions:
REMARK  status: ('A' for Active; 'I' for Inactive)
REMARK       I    between atoms: C_2  and  N_3 
REMARK    1  A    between atoms: N_3  and  N_4 
REMARK       I    between atoms: N_4  and  C_5 
REMARK    2  A    between atoms: C_5  and  C_6 
REMARK    3  A    between atoms: C_11  and  C_12 
ROOT
HETATM    1  C   UNL     1      42.875 -15.066   4.508  1.00  0.00     0.115 A 
HETATM    2  N   UNL     1      43.623 -15.999   5.200  1.00  0.00    -0.350 N 
HETATM    3  H   UNL     1      44.072 -15.827   6.089  1.00  0.00     0.166 HD
HETATM    4  C   UNL     1      43.730 -17.177   4.503  1.00  0.00     0.044 A 
HETATM    5  C   UNL     1      43.039 -17.005   3.306  1.00  0.00     0.006 A 
HETATM    6  C   UNL     1      42.513 -15.670   3.307  1.00  0.00     0.019 A 
HETATM    7  C   UNL     1      44.388 -18.366   4.842  1.00  0.00     0.032 A 
HETATM    8  C   UNL     1      44.329 -19.419   3.924  1.00  0.00     0.026 A 
HETATM    9  C   UNL     1      43.638 -19.279   2.724  1.00  0.00     0.035 A 
HETATM   10 CL   UNL     1      43.586 -20.597   1.617  1.00  0.00    -0.084 Cl
HETATM   11  C   UNL     1      42.988 -18.085   2.400  1.00  0.00     0.038 A 
ENDROOT
BRANCH   1  12
HETATM   12  C   UNL     1      42.630 -13.723   4.998  1.00  0.00     0.287 C 
HETATM   13  N   UNL     1      41.598 -13.636   5.920  1.00  0.00    -0.262 N 
HETATM   14  H   UNL     1      40.871 -14.348   5.970  1.00  0.00     0.190 HD
HETATM   15  O   UNL     1      43.249 -12.719   4.652  1.00  0.00    -0.264 OA
BRANCH  13  16
HETATM   16  N   UNL     1      41.196 -12.356   6.339  1.00  0.00    -0.268 N 
HETATM   17  C   UNL     1      39.857 -12.050   6.237  1.00  0.00     0.232 C 
HETATM   18  C   UNL     1      39.514 -10.624   6.561  1.00  0.00     0.119 C 
HETATM   19  O   UNL     1      39.010 -12.886   5.929  1.00  0.00    -0.272 OA
HETATM   20  H   UNL     1      41.927 -11.643   6.351  1.00  0.00     0.190 HD
ENDBRANCH  13  16
ENDBRANCH   1  12
BRANCH   6  21
HETATM   21  C   UNL     1      41.729 -15.031   2.260  1.00  0.00    -0.023 A 
HETATM   22  C   UNL     1      40.580 -15.643   1.746  1.00  0.00     0.012 A 
HETATM   23  C   UNL     1      39.857 -15.033   0.718  1.00  0.00     0.001 A 
HETATM   24  C   UNL     1      40.285 -13.815   0.191  1.00  0.00     0.000 A 
HETATM   25  C   UNL     1      41.431 -13.202   0.692  1.00  0.00     0.001 A 
HETATM   26  C   UNL     1      42.152 -13.808   1.723  1.00  0.00     0.012 A 
ENDBRANCH   6  21
TORSDOF 3
ENDMDL
MODEL 3
REMARK VINA RESULT:      -7.8      3.107      5.370
REMARK  3 active torsions:
REMARK  status: ('A' for Active; 'I' for Inactive)
REMARK       I    between atoms: C_2  and  N_3 
REMARK    1  A    between atoms: N_3  and  N_4 
REMARK       I    between atoms: N_4  and  C_5 
REMARK    2  A    between atoms: C_5  and  C_6 
REMARK    3  A    between atoms: C_11  and  C_12 
ROOT
HETATM    1  C   UNL     1      42.905 -16.138   2.373  1.00  0.00     0.115 A 
HETATM    2  N   UNL     1      43.054 -17.292   1.629  1.00  0.00    -0.350 N 
HETATM    3  H   UNL     1      42.921 -17.349   0.628  1.00  0.00     0.166 HD
HETATM    4  C   UNL     1      43.352 -18.370   2.424  1.00  0.00     0.044 A 
HETATM    5  C   UNL     1      43.386 -17.910   3.737  1.00  0.00     0.006 A 
HETATM    6  C   UNL     1      43.092 -16.506   3.703  1.00  0.00     0.019 A 
HETATM    7  C   UNL     1      43.584 -19.707   2.077  1.00  0.00     0.032 A 
HETATM    8  C   UNL     1      43.869 -20.602   3.113  1.00  0.00     0.026 A 
HETATM    9  C   UNL     1      43.918 -20.168   4.434  1.00  0.00     0.035 A 
HETATM   10 CL   UNL     1      44.273 -21.297   5.685  1.00  0.00    -0.084 Cl
HETATM   11  C   UNL     1      43.683 -18.830   4.764  1.00  0.00     0.038 A 
ENDROOT
BRANCH   1  12
HETATM   12  C   UNL     1      42.557 -14.856   1.791  1.00  0.00     0.287 C 
HETATM   13  N   UNL     1      41.583 -14.926   0.807  1.00  0.00    -0.262 N 
HETATM   14  H   UNL     1      41.401 -15.792   0.302  1.00  0.00     0.190 HD
HETATM   15  O   UNL     1      43.058 -13.778   2.103  1.00  0.00    -0.264 OA
BRANCH  13  16
HETATM   16  N   UNL     1      41.286 -13.755   0.090  1.00  0.00    -0.268 N 
HETATM   17  C   UNL     1      40.217 -13.800  -0.778  1.00  0.00     0.232 C 
HETATM   18  C   UNL     1      40.041 -12.570  -1.621  1.00  0.00     0.119 C 
HETATM   19  O   UNL     1      39.455 -14.764  -0.838  1.00  0.00    -0.272 OA
HETATM   20  H   UNL     1      42.055 -13.091  -0.015  1.00  0.00     0.190 HD
ENDBRANCH  13  16
ENDBRANCH   1  12
BRANCH   6  21
HETATM   21  C   UNL     1      43.004 -15.595   4.836  1.00  0.00    -0.023 A 
HETATM   22  C   UNL     1      44.122 -15.331   5.635  1.00  0.00     0.012 A 
HETATM   23  C   UNL     1      44.013 -14.482   6.739  1.00  0.00     0.001 A 
HETATM   24  C   UNL     1      42.786 -13.900   7.056  1.00  0.00     0.000 A 
HETATM   25  C   UNL     1      41.667 -14.163   6.268  1.00  0.00     0.001 A 
HETATM   26  C   UNL     1      41.774 -15.008   5.162  1.00  0.00     0.012 A 
ENDBRANCH   6  21
TORSDOF 3
ENDMDL
MODEL 4
REMARK VINA RESULT:      -7.8      3.270      5.778
REMARK  3 active torsions:
REMARK  status: ('A' for Active; 'I' for Inactive)
REMARK       I    between atoms: C_2  and  N_3 
REMARK    1  A    between atoms: N_3  and  N_4 
REMARK       I    between atoms: N_4  and  C_5 
REMARK    2  A    between atoms: C_5  and  C_6 
REMARK    3  A    between atoms: C_11  and  C_12 
ROOT
HETATM    1  C   UNL     1      40.318 -12.721   2.298  1.00  0.00     0.115 A 
HETATM    2  N   UNL     1      39.397 -11.918   1.655  1.00  0.00    -0.350 N 
HETATM    3  H   UNL     1      38.987 -11.084   2.054  1.00  0.00     0.166 HD
HETATM    4  C   UNL     1      39.060 -12.422   0.424  1.00  0.00     0.044 A 
HETATM    5  C   UNL     1      39.775 -13.605   0.260  1.00  0.00     0.006 A 
HETATM    6  C   UNL     1      40.557 -13.797   1.448  1.00  0.00     0.019 A 
HETATM    7  C   UNL     1      38.176 -11.923  -0.541  1.00  0.00     0.032 A 
HETATM    8  C   UNL     1      38.027 -12.659  -1.721  1.00  0.00     0.026 A 
HETATM    9  C   UNL     1      38.737 -13.841  -1.916  1.00  0.00     0.035 A 
HETATM   10 CL   UNL     1      38.529 -14.721  -3.381  1.00  0.00    -0.084 Cl
HETATM   11  C   UNL     1      39.613 -14.326  -0.942  1.00  0.00     0.038 A 
ENDROOT
BRANCH   1  12
HETATM   12  C   UNL     1      40.825 -12.442   3.628  1.00  0.00     0.287 C 
HETATM   13  N   UNL     1      42.043 -11.780   3.644  1.00  0.00    -0.262 N 
HETATM   14  H   UNL     1      42.673 -11.813   2.844  1.00  0.00     0.190 HD
HETATM   15  O   UNL     1      40.265 -12.751   4.678  1.00  0.00    -0.264 OA
BRANCH  13  16
HETATM   16  N   UNL     1      42.677 -11.596   4.884  1.00  0.00    -0.268 N 
HETATM   17  C   UNL     1      44.050 -11.489   4.881  1.00  0.00     0.232 C 
HETATM   18  C   UNL     1      44.678 -11.442   6.245  1.00  0.00     0.119 C 
HETATM   19  O   UNL     1      44.705 -11.413   3.843  1.00  0.00    -0.272 OA
HETATM   20  H   UNL     1      42.148 -11.901   5.702  1.00  0.00     0.190 HD
ENDBRANCH  13  16
ENDBRANCH   1  12
BRANCH   6  21
HETATM   21  C   UNL     1      41.457 -14.903   1.742  1.00  0.00    -0.023 A 
HETATM   22  C   UNL     1      42.823 -14.817   1.449  1.00  0.00     0.012 A 
HETATM   23  C   UNL     1      43.668 -15.899   1.706  1.00  0.00     0.001 A 
HETATM   24  C   UNL     1      43.151 -17.077   2.245  1.00  0.00     0.000 A 
HETATM   25  C   UNL     1      41.791 -17.173   2.533  1.00  0.00     0.001 A 
HETATM   26  C   UNL     1      40.946 -16.090   2.282  1.00  0.00     0.012 A 
ENDBRANCH   6  21
TORSDOF 3
ENDMDL
MODEL 5
REMARK VINA RESULT:      -7.7      4.089      7.004
REMARK  3 active torsions:
REMARK  status: ('A' for Active; 'I' for Inactive)
REMARK       I    between atoms: C_2  and  N_3 
REMARK    1  A    between atoms: N_3  and  N_4 
REMARK       I    between atoms: N_4  and  C_5 
REMARK    2  A    between atoms: C_5  and  C_6 
REMARK    3  A    between atoms: C_11  and  C_12 
ROOT
HETATM    1  C   UNL     1      40.989 -14.092   3.031  1.00  0.00     0.115 A 
HETATM    2  N   UNL     1      40.744 -12.774   3.366  1.00  0.00    -0.350 N 
HETATM    3  H   UNL     1      40.032 -12.198   2.938  1.00  0.00     0.166 HD
HETATM    4  C   UNL     1      41.624 -12.322   4.316  1.00  0.00     0.044 A 
HETATM    5  C   UNL     1      42.487 -13.376   4.604  1.00  0.00     0.006 A 
HETATM    6  C   UNL     1      42.092 -14.485   3.784  1.00  0.00     0.019 A 
HETATM    7  C   UNL     1      41.722 -11.067   4.929  1.00  0.00     0.032 A 
HETATM    8  C   UNL     1      42.734 -10.888   5.876  1.00  0.00     0.026 A 
HETATM    9  C   UNL     1      43.605 -11.927   6.191  1.00  0.00     0.035 A 
HETATM   10 CL   UNL     1      44.840 -11.672   7.363  1.00  0.00    -0.084 Cl
HETATM   11  C   UNL     1      43.496 -13.174   5.570  1.00  0.00     0.038 A 
ENDROOT
BRANCH   1  12
HETATM   12  C   UNL     1      40.228 -14.812   2.028  1.00  0.00     0.287 C 
HETATM   13  N   UNL     1      40.416 -14.351   0.734  1.00  0.00    -0.262 N 
HETATM   14  H   UNL     1      40.751 -13.406   0.552  1.00  0.00     0.190 HD
HETATM   15  O   UNL     1      39.467 -15.749   2.256  1.00  0.00    -0.264 OA
BRANCH  13  16
HETATM   16  N   UNL     1      39.612 -14.895  -0.282  1.00  0.00    -0.268 N 
HETATM   17  C   UNL     1      39.646 -14.277  -1.512  1.00  0.00     0.232 C 
HETATM   18  C   UNL     1      38.659 -14.812  -2.510  1.00  0.00     0.119 C 
HETATM   19  O   UNL     1      40.440 -13.376  -1.777  1.00  0.00    -0.272 OA
HETATM   20  H   UNL     1      38.819 -15.457   0.033  1.00  0.00     0.190 HD
ENDBRANCH  13  16
ENDBRANCH   1  12
BRANCH   6  21
HETATM   21  C   UNL     1      42.707 -15.804   3.728  1.00  0.00    -0.023 A 
HETATM   22  C   UNL     1      43.074 -16.376   2.505  1.00  0.00     0.012 A 
HETATM   23  C   UNL     1      43.631 -17.657   2.465  1.00  0.00     0.001 A 
HETATM   24  C   UNL     1      43.814 -18.376   3.645  1.00  0.00     0.000 A 
HETATM   25  C   UNL     1      43.445 -17.816   4.867  1.00  0.00     0.001 A 
HETATM   26  C   UNL     1      42.892 -16.535   4.909  1.00  0.00     0.012 A 
ENDBRANCH   6  21
TORSDOF 3
ENDMDL
MODEL 6
REMARK VINA RESULT:      -7.5      4.009      5.976
REMARK  3 active torsions:
REMARK  status: ('A' for Active; 'I' for Inactive)
REMARK       I    between atoms: C_2  and  N_3 
REMARK    1  A    between atoms: N_3  and  N_4 
REMARK       I    between atoms: N_4  and  C_5 
REMARK    2  A    between atoms: C_5  and  C_6 
REMARK    3  A    between atoms: C_11  and  C_12 
ROOT
HETATM    1  C   UNL     1      41.432 -14.279   1.705  1.00  0.00     0.115 A 
HETATM    2  N   UNL     1      41.950 -15.432   1.148  1.00  0.00    -0.350 N 
HETATM    3  H   UNL     1      41.909 -15.661   0.164  1.00  0.00     0.166 HD
HETATM    4  C   UNL     1      42.481 -16.261   2.105  1.00  0.00     0.044 A 
HETATM    5  C   UNL     1      42.292 -15.635   3.334  1.00  0.00     0.006 A 
HETATM    6  C   UNL     1      41.620 -14.393   3.080  1.00  0.00     0.019 A 
HETATM    7  C   UNL     1      43.100 -17.509   1.971  1.00  0.00     0.032 A 
HETATM    8  C   UNL     1      43.550 -18.134   3.138  1.00  0.00     0.026 A 
HETATM    9  C   UNL     1      43.383 -17.528   4.380  1.00  0.00     0.035 A 
HETATM   10 CL   UNL     1      43.951 -18.326   5.796  1.00  0.00    -0.084 Cl
HETATM   11  C   UNL     1      42.761 -16.282   4.497  1.00  0.00     0.038 A 
ENDROOT
BRANCH   1  12
HETATM   12  C   UNL     1      40.782 -13.243   0.926  1.00  0.00     0.287 C 
HETATM   13  N   UNL     1      39.449 -13.501   0.640  1.00  0.00    -0.262 N 
HETATM   14  H   UNL     1      39.079 -14.449   0.655  1.00  0.00     0.190 HD
HETATM   15  O   UNL     1      41.322 -12.214   0.525  1.00  0.00    -0.264 OA
BRANCH  13  16
HETATM   16  N   UNL     1      38.781 -12.622  -0.229  1.00  0.00    -0.268 N 
HETATM   17  C   UNL     1      38.515 -13.075  -1.502  1.00  0.00     0.232 C 
HETATM   18  C   UNL     1      37.933 -12.043  -2.426  1.00  0.00     0.119 C 
HETATM   19  O   UNL     1      38.716 -14.239  -1.845  1.00  0.00    -0.272 OA
HETATM   20  H   UNL     1      38.853 -11.630   0.001  1.00  0.00     0.190 HD
ENDBRANCH  13  16
ENDBRANCH   1  12
BRANCH   6  21
HETATM   21  C   UNL     1      41.201 -13.399   4.059  1.00  0.00    -0.023 A 
HETATM   22  C   UNL     1      42.130 -12.535   4.649  1.00  0.00     0.012 A 
HETATM   23  C   UNL     1      41.719 -11.610   5.612  1.00  0.00     0.001 A 
HETATM   24  C   UNL     1      40.380 -11.552   5.998  1.00  0.00     0.000 A 
HETATM   25  C   UNL     1      39.450 -12.413   5.419  1.00  0.00     0.001 A 
HETATM   26  C   UNL     1      39.859 -13.335   4.453  1.00  0.00     0.012 A 
ENDBRANCH   6  21
TORSDOF 3
ENDMDL
MODEL 7
REMARK VINA RESULT:      -7.1      4.187      6.515
REMARK  3 active torsions:
REMARK  status: ('A' for Active; 'I' for Inactive)
REMARK       I    between atoms: C_2  and  N_3 
REMARK    1  A    between atoms: N_3  and  N_4 
REMARK       I    between atoms: N_4  and  C_5 
REMARK    2  A    between atoms: C_5  and  C_6 
REMARK    3  A    between atoms: C_11  and  C_12 
ROOT
HETATM    1  C   UNL     1      40.207 -14.855   1.209  1.00  0.00     0.115 A 
HETATM    2  N   UNL     1      39.669 -15.370   0.046  1.00  0.00    -0.350 N 
HETATM    3  H   UNL     1      39.478 -16.351  -0.112  1.00  0.00     0.166 HD
HETATM    4  C   UNL     1      39.477 -14.393  -0.898  1.00  0.00     0.044 A 
HETATM    5  C   UNL     1      39.917 -13.196  -0.339  1.00  0.00     0.006 A 
HETATM    6  C   UNL     1      40.388 -13.493   0.984  1.00  0.00     0.019 A 
HETATM    7  C   UNL     1      38.958 -14.484  -2.196  1.00  0.00     0.032 A 
HETATM    8  C   UNL     1      38.879 -13.305  -2.943  1.00  0.00     0.026 A 
HETATM    9  C   UNL     1      39.303 -12.093  -2.406  1.00  0.00     0.035 A 
HETATM   10 CL   UNL     1      39.190 -10.660  -3.354  1.00  0.00    -0.084 Cl
HETATM   11  C   UNL     1      39.820 -12.019  -1.110  1.00  0.00     0.038 A 
ENDROOT
BRANCH   1  12
HETATM   12  C   UNL     1      40.541 -15.672   2.360  1.00  0.00     0.287 C 
HETATM   13  N   UNL     1      39.835 -15.349   3.509  1.00  0.00    -0.262 N 
HETATM   14  H   UNL     1      39.411 -14.431   3.629  1.00  0.00     0.190 HD
HETATM   15  O   UNL     1      41.374 -16.576   2.368  1.00  0.00    -0.264 OA
BRANCH  13  16
HETATM   16  N   UNL     1      40.195 -15.992   4.705  1.00  0.00    -0.268 N 
HETATM   17  C   UNL     1      40.952 -15.272   5.604  1.00  0.00     0.232 C 
HETATM   18  C   UNL     1      41.428 -16.058   6.792  1.00  0.00     0.119 C 
HETATM   19  O   UNL     1      41.196 -14.076   5.454  1.00  0.00    -0.272 OA
HETATM   20  H   UNL     1      40.188 -17.012   4.681  1.00  0.00     0.190 HD
ENDBRANCH  13  16
ENDBRANCH   1  12
BRANCH   6  21
HETATM   21  C   UNL     1      40.952 -12.561   1.949  1.00  0.00    -0.023 A 
HETATM   22  C   UNL     1      40.132 -11.678   2.661  1.00  0.00     0.012 A 
HETATM   23  C   UNL     1      40.692 -10.766   3.559  1.00  0.00     0.001 A 
HETATM   24  C   UNL     1      42.073 -10.724   3.742  1.00  0.00     0.000 A 
HETATM   25  C   UNL     1      42.898 -11.595   3.033  1.00  0.00     0.001 A 
HETATM   26  C   UNL     1      42.339 -12.511   2.139  1.00  0.00     0.012 A 
ENDBRANCH   6  21
TORSDOF 3
ENDMDL
MODEL 8
REMARK VINA RESULT:      -7.0     12.477     15.418
REMARK  3 active torsions:
REMARK  status: ('A' for Active; 'I' for Inactive)
REMARK       I    between atoms: C_2  and  N_3 
REMARK    1  A    between atoms: N_3  and  N_4 
REMARK       I    between atoms: N_4  and  C_5 
REMARK    2  A    between atoms: C_5  and  C_6 
REMARK    3  A    between atoms: C_11  and  C_12 
ROOT
HETATM    1  C   UNL     1      40.300  -6.631  16.527  1.00  0.00     0.115 A 
HETATM    2  N   UNL     1      39.278  -5.759  16.852  1.00  0.00    -0.350 N 
HETATM    3  H   UNL     1      38.999  -5.530  17.796  1.00  0.00     0.166 HD
HETATM    4  C   UNL     1      38.647  -5.281  15.731  1.00  0.00     0.044 A 
HETATM    5  C   UNL     1      39.268  -5.871  14.633  1.00  0.00     0.006 A 
HETATM    6  C   UNL     1      40.299  -6.730  15.139  1.00  0.00     0.019 A 
HETATM    7  C   UNL     1      37.578  -4.384  15.613  1.00  0.00     0.032 A 
HETATM    8  C   UNL     1      37.135  -4.074  14.324  1.00  0.00     0.026 A 
HETATM    9  C   UNL     1      37.742  -4.642  13.208  1.00  0.00     0.035 A 
HETATM   10 CL   UNL     1      37.171  -4.237  11.634  1.00  0.00    -0.084 Cl
HETATM   11  C   UNL     1      38.807  -5.537  13.341  1.00  0.00     0.038 A 
ENDROOT
BRANCH   1  12
HETATM   12  C   UNL     1      41.112  -7.308  17.520  1.00  0.00     0.287 C 
HETATM   13  N   UNL     1      40.469  -8.360  18.156  1.00  0.00    -0.262 N 
HETATM   14  H   UNL     1      39.453  -8.416  18.190  1.00  0.00     0.190 HD
HETATM   15  O   UNL     1      42.268  -7.010  17.811  1.00  0.00    -0.264 OA
BRANCH  13  16
HETATM   16  N   UNL     1      41.129  -8.980  19.230  1.00  0.00    -0.268 N 
HETATM   17  C   UNL     1      40.376  -9.282  20.343  1.00  0.00     0.232 C 
HETATM   18  C   UNL     1      41.164  -9.807  21.509  1.00  0.00     0.119 C 
HETATM   19  O   UNL     1      39.153  -9.153  20.369  1.00  0.00    -0.272 OA
HETATM   20  H   UNL     1      42.141  -8.847  19.266  1.00  0.00     0.190 HD
ENDBRANCH  13  16
ENDBRANCH   1  12
BRANCH   6  21
HETATM   21  C   UNL     1      41.209  -7.565  14.367  1.00  0.00    -0.023 A 
HETATM   22  C   UNL     1      42.462  -7.086  13.967  1.00  0.00     0.012 A 
HETATM   23  C   UNL     1      43.310  -7.887  13.198  1.00  0.00     0.001 A 
HETATM   24  C   UNL     1      42.906  -9.165  12.815  1.00  0.00     0.000 A 
HETATM   25  C   UNL     1      41.657  -9.648  13.203  1.00  0.00     0.001 A 
HETATM   26  C   UNL     1      40.810  -8.850  13.976  1.00  0.00     0.012 A 
ENDBRANCH   6  21
TORSDOF 3
ENDMDL
MODEL 9
REMARK VINA RESULT:      -7.0      3.506      6.206
REMARK  3 active torsions:
REMARK  status: ('A' for Active; 'I' for Inactive)
REMARK       I    between atoms: C_2  and  N_3 
REMARK    1  A    between atoms: N_3  and  N_4 
REMARK       I    between atoms: N_4  and  C_5 
REMARK    2  A    between atoms: C_5  and  C_6 
REMARK    3  A    between atoms: C_11  and  C_12 
ROOT
HETATM    1  C   UNL     1      42.435 -14.864   4.364  1.00  0.00     0.115 A 
HETATM    2  N   UNL     1      43.223 -14.805   5.496  1.00  0.00    -0.350 N 
HETATM    3  H   UNL     1      43.677 -15.603   5.920  1.00  0.00     0.166 HD
HETATM    4  C   UNL     1      43.271 -13.534   6.013  1.00  0.00     0.044 A 
HETATM    5  C   UNL     1      42.475 -12.734   5.198  1.00  0.00     0.006 A 
HETATM    6  C   UNL     1      41.939 -13.577   4.168  1.00  0.00     0.019 A 
HETATM    7  C   UNL     1      43.950 -13.044   7.135  1.00  0.00     0.032 A 
HETATM    8  C   UNL     1      43.814 -11.683   7.428  1.00  0.00     0.026 A 
HETATM    9  C   UNL     1      43.032 -10.858   6.625  1.00  0.00     0.035 A 
HETATM   10 CL   UNL     1      42.888  -9.187   7.014  1.00  0.00    -0.084 Cl
HETATM   11  C   UNL     1      42.359 -11.363   5.509  1.00  0.00     0.038 A 
ENDROOT
BRANCH   1  12
HETATM   12  C   UNL     1      42.183 -16.091   3.633  1.00  0.00     0.287 C 
HETATM   13  N   UNL     1      43.332 -16.759   3.236  1.00  0.00    -0.262 N 
HETATM   14  H   UNL     1      44.222 -16.273   3.144  1.00  0.00     0.190 HD
HETATM   15  O   UNL     1      41.071 -16.537   3.360  1.00  0.00    -0.264 OA
BRANCH  13  16
HETATM   16  N   UNL     1      43.185 -17.880   2.401  1.00  0.00    -0.268 N 
HETATM   17  C   UNL     1      43.670 -19.082   2.868  1.00  0.00     0.232 C 
HETATM   18  C   UNL     1      43.618 -20.207   1.874  1.00  0.00     0.119 C 
HETATM   19  O   UNL     1      44.090 -19.224   4.015  1.00  0.00    -0.272 OA
HETATM   20  H   UNL     1      43.066 -17.681   1.407  1.00  0.00     0.190 HD
ENDBRANCH  13  16
ENDBRANCH   1  12
BRANCH   6  21
HETATM   21  C   UNL     1      41.042 -13.190   3.088  1.00  0.00    -0.023 A 
HETATM   22  C   UNL     1      41.523 -12.988   1.790  1.00  0.00     0.012 A 
HETATM   23  C   UNL     1      40.655 -12.583   0.772  1.00  0.00     0.001 A 
HETATM   24  C   UNL     1      39.306 -12.368   1.049  1.00  0.00     0.000 A 
HETATM   25  C   UNL     1      38.820 -12.561   2.341  1.00  0.00     0.001 A 
HETATM   26  C   UNL     1      39.685 -12.970   3.358  1.00  0.00     0.012 A 
ENDBRANCH   6  21
TORSDOF 3
ENDMDL
MODEL 10
REMARK VINA RESULT:      -7.0     14.506     17.208
REMARK  3 active torsions:
REMARK  status: ('A' for Active; 'I' for Inactive)
REMARK       I    between atoms: C_2  and  N_3 
REMARK    1  A    between atoms: N_3  and  N_4 
REMARK       I    between atoms: N_4  and  C_5 
REMARK    2  A    between atoms: C_5  and  C_6 
REMARK    3  A    between atoms: C_11  and  C_12 
ROOT
HETATM    1  C   UNL     1      48.385 -29.524   0.686  1.00  0.00     0.115 A 
HETATM    2  N   UNL     1      48.671 -29.396  -0.659  1.00  0.00    -0.350 N 
HETATM    3  H   UNL     1      48.091 -28.902  -1.323  1.00  0.00     0.166 HD
HETATM    4  C   UNL     1      49.816 -30.073  -0.998  1.00  0.00     0.044 A 
HETATM    5  C   UNL     1      50.289 -30.677   0.164  1.00  0.00     0.006 A 
HETATM    6  C   UNL     1      49.379 -30.340   1.220  1.00  0.00     0.019 A 
HETATM    7  C   UNL     1      50.454 -30.197  -2.238  1.00  0.00     0.032 A 
HETATM    8  C   UNL     1      51.624 -30.961  -2.288  1.00  0.00     0.026 A 
HETATM    9  C   UNL     1      52.125 -31.569  -1.140  1.00  0.00     0.035 A 
HETATM   10 CL   UNL     1      53.569 -32.502  -1.238  1.00  0.00    -0.084 Cl
HETATM   11  C   UNL     1      51.476 -31.437   0.090  1.00  0.00     0.038 A 
ENDROOT
BRANCH   1  12
HETATM   12  C   UNL     1      47.214 -28.936   1.309  1.00  0.00     0.287 C 
HETATM   13  N   UNL     1      46.064 -29.701   1.189  1.00  0.00    -0.262 N 
HETATM   14  H   UNL     1      45.966 -30.397   0.453  1.00  0.00     0.190 HD
HETATM   15  O   UNL     1      47.192 -27.856   1.896  1.00  0.00    -0.264 OA
BRANCH  13  16
HETATM   16  N   UNL     1      44.854 -29.144   1.637  1.00  0.00    -0.268 N 
HETATM   17  C   UNL     1      43.690 -29.654   1.105  1.00  0.00     0.232 C 
HETATM   18  C   UNL     1      42.442 -28.922   1.510  1.00  0.00     0.119 C 
HETATM   19  O   UNL     1      43.675 -30.645   0.376  1.00  0.00    -0.272 OA
HETATM   20  H   UNL     1      44.916 -28.205   2.031  1.00  0.00     0.190 HD
ENDBRANCH  13  16
ENDBRANCH   1  12
BRANCH   6  21
HETATM   21  C   UNL     1      49.454 -30.751   2.615  1.00  0.00    -0.023 A 
HETATM   22  C   UNL     1      50.458 -30.260   3.457  1.00  0.00     0.012 A 
HETATM   23  C   UNL     1      50.537 -30.690   4.783  1.00  0.00     0.001 A 
HETATM   24  C   UNL     1      49.621 -31.622   5.272  1.00  0.00     0.000 A 
HETATM   25  C   UNL     1      48.622 -32.121   4.438  1.00  0.00     0.001 A 
HETATM   26  C   UNL     1      48.539 -31.688   3.113  1.00  0.00     0.012 A 
ENDBRANCH   6  21
TORSDOF 3
ENDMDL
