MODEL 1
REMARK VINA RESULT:      -8.0      0.000      0.000
REMARK  5 active torsions:
REMARK  status: ('A' for Active; 'I' for Inactive)
REMARK    1  A    between atoms: C_4  and  N_5 
REMARK       I    between atoms: N_5  and  C_6 
REMARK       I    between atoms: C_6  and  N_7 
REMARK    2  A    between atoms: N_7  and  C_8 
REMARK    3  A    between atoms: C_8  and  C_9 
REMARK    4  A    between atoms: C_9  and  N_10 
REMARK    5  A    between atoms: C_9  and  C_14 
ROOT
HETATM    1  N   UNL     1      42.077 -16.111   6.381  1.00  0.00    -0.307 N 
HETATM    2  C   UNL     1      42.719 -15.201   7.148  1.00  0.00     0.320 C 
HETATM    3  N   UNL     1      42.947 -13.969   6.620  1.00  0.00    -0.340 N 
HETATM    4  O   UNL     1      43.005 -15.449   8.317  1.00  0.00    -0.247 OA
HETATM    5  H   UNL     1      41.731 -16.915   6.908  1.00  0.00     0.170 HD
HETATM    6  H   UNL     1      42.418 -13.709   5.800  1.00  0.00     0.164 HD
ENDROOT
BRANCH   1   7
HETATM    7  C   UNL     1      41.826 -16.236   4.993  1.00  0.00     0.066 A 
HETATM    8  C   UNL     1      40.898 -15.455   4.292  1.00  0.00     0.038 A 
HETATM    9  C   UNL     1      40.691 -15.651   2.923  1.00  0.00    -0.059 A 
HETATM   10  C   UNL     1      39.705 -14.809   2.165  1.00  0.00     0.048 C 
HETATM   11  C   UNL     1      41.472 -16.593   2.246  1.00  0.00     0.020 A 
HETATM   12  C   UNL     1      42.446 -17.339   2.928  1.00  0.00    -0.005 A 
HETATM   13  C   UNL     1      42.632 -17.169   4.316  1.00  0.00     0.093 A 
HETATM   14  C   UNL     1      43.262 -18.258   2.257  1.00  0.00     0.015 A 
HETATM   15  N   UNL     1      43.563 -17.873   5.001  1.00  0.00    -0.258 NA
HETATM   16  C   UNL     1      44.338 -18.744   4.316  1.00  0.00     0.117 A 
HETATM   17  C   UNL     1      44.227 -18.970   2.958  1.00  0.00     0.020 A 
ENDBRANCH   1   7
BRANCH   3  18
HETATM   18  C   UNL     1      43.802 -12.994   7.281  1.00  0.00     0.164 C 
BRANCH  18  19
HETATM   19  C   UNL     1      44.455 -11.912   6.384  1.00  0.00     0.261 C 
BRANCH  19  20
HETATM   20  N   UNL     1      44.808 -10.608   7.100  1.00  0.00    -0.067 N 
HETATM   21  H   UNL     1      44.703  -9.914   6.346  1.00  0.00     0.280 HD
HETATM   22  C   UNL     1      43.852 -10.140   8.159  1.00  0.00     0.270 C 
HETATM   23  C   UNL     1      46.231 -10.533   7.562  1.00  0.00     0.270 C 
ENDBRANCH  19  20
BRANCH  19  24
HETATM   24  C   UNL     1      43.698 -11.655   5.112  1.00  0.00     0.085 A 
HETATM   25  O   UNL     1      42.391 -11.280   5.275  1.00  0.00    -0.325 OA
HETATM   26  C   UNL     1      41.878 -11.067   4.036  1.00  0.00     0.142 A 
HETATM   27  C   UNL     1      42.834 -11.296   3.076  1.00  0.00     0.027 A 
HETATM   28  C   UNL     1      44.012 -11.669   3.767  1.00  0.00     0.037 A 
ENDBRANCH  19  24
ENDBRANCH  18  19
ENDBRANCH   3  18
TORSDOF 5
ENDMDL
MODEL 2
REMARK VINA RESULT:      -7.7      1.166      2.444
REMARK  5 active torsions:
REMARK  status: ('A' for Active; 'I' for Inactive)
REMARK    1  A    between atoms: C_4  and  N_5 
REMARK       I    between atoms: N_5  and  C_6 
REMARK       I    between atoms: C_6  and  N_7 
REMARK    2  A    between atoms: N_7  and  C_8 
REMARK    3  A    between atoms: C_8  and  C_9 
REMARK    4  A    between atoms: C_9  and  N_10 
REMARK    5  A    between atoms: C_9  and  C_14 
ROOT
HETATM    1  N   UNL     1      42.069 -16.118   6.378  1.00  0.00    -0.307 N 
HETATM    2  C   UNL     1      42.725 -15.197   7.119  1.00  0.00     0.320 C 
HETATM    3  N   UNL     1      42.982 -13.987   6.555  1.00  0.00    -0.340 N 
HETATM    4  O   UNL     1      42.998 -15.414   8.298  1.00  0.00    -0.247 OA
HETATM    5  H   UNL     1      41.703 -16.898   6.928  1.00  0.00     0.170 HD
HETATM    6  H   UNL     1      42.463 -13.744   5.723  1.00  0.00     0.164 HD
ENDROOT
BRANCH   1   7
HETATM    7  C   UNL     1      41.823 -16.282   4.992  1.00  0.00     0.066 A 
HETATM    8  C   UNL     1      40.868 -15.549   4.275  1.00  0.00     0.038 A 
HETATM    9  C   UNL     1      40.669 -15.783   2.910  1.00  0.00    -0.059 A 
HETATM   10  C   UNL     1      39.654 -14.993   2.135  1.00  0.00     0.048 C 
HETATM   11  C   UNL     1      41.484 -16.710   2.254  1.00  0.00     0.020 A 
HETATM   12  C   UNL     1      42.483 -17.406   2.952  1.00  0.00    -0.005 A 
HETATM   13  C   UNL     1      42.662 -17.199   4.336  1.00  0.00     0.093 A 
HETATM   14  C   UNL     1      43.333 -18.309   2.301  1.00  0.00     0.015 A 
HETATM   15  N   UNL     1      43.618 -17.855   5.036  1.00  0.00    -0.258 NA
HETATM   16  C   UNL     1      44.424 -18.712   4.369  1.00  0.00     0.117 A 
HETATM   17  C   UNL     1      44.322 -18.971   3.017  1.00  0.00     0.020 A 
ENDBRANCH   1   7
BRANCH   3  18
HETATM   18  C   UNL     1      43.853 -13.010   7.190  1.00  0.00     0.164 C 
BRANCH  18  19
HETATM   19  C   UNL     1      43.443 -11.520   7.065  1.00  0.00     0.261 C 
BRANCH  19  20
HETATM   20  N   UNL     1      42.835 -11.130   5.717  1.00  0.00    -0.067 N 
HETATM   21  H   UNL     1      42.087 -11.830   5.609  1.00  0.00     0.280 HD
HETATM   22  C   UNL     1      42.114  -9.815   5.657  1.00  0.00     0.270 C 
HETATM   23  C   UNL     1      43.764 -11.310   4.555  1.00  0.00     0.270 C 
ENDBRANCH  19  20
BRANCH  19  24
HETATM   24  C   UNL     1      44.529 -10.568   7.475  1.00  0.00     0.085 A 
HETATM   25  O   UNL     1      44.110  -9.468   8.176  1.00  0.00    -0.325 OA
HETATM   26  C   UNL     1      45.216  -8.742   8.482  1.00  0.00     0.142 A 
HETATM   27  C   UNL     1      46.343  -9.356   7.992  1.00  0.00     0.027 A 
HETATM   28  C   UNL     1      45.904 -10.538   7.348  1.00  0.00     0.037 A 
ENDBRANCH  19  24
ENDBRANCH  18  19
ENDBRANCH   3  18
TORSDOF 5
ENDMDL
MODEL 3
REMARK VINA RESULT:      -7.6      1.718      2.318
REMARK  5 active torsions:
REMARK  status: ('A' for Active; 'I' for Inactive)
REMARK    1  A    between atoms: C_4  and  N_5 
REMARK       I    between atoms: N_5  and  C_6 
REMARK       I    between atoms: C_6  and  N_7 
REMARK    2  A    between atoms: N_7  and  C_8 
REMARK    3  A    between atoms: C_8  and  C_9 
REMARK    4  A    between atoms: C_9  and  N_10 
REMARK    5  A    between atoms: C_9  and  C_14 
ROOT
HETATM    1  N   UNL     1      42.935 -16.526   6.323  1.00  0.00    -0.307 N 
HETATM    2  C   UNL     1      43.143 -15.361   6.976  1.00  0.00     0.320 C 
HETATM    3  N   UNL     1      43.265 -14.226   6.237  1.00  0.00    -0.340 N 
HETATM    4  O   UNL     1      43.129 -15.314   8.205  1.00  0.00    -0.247 OA
HETATM    5  H   UNL     1      42.619 -17.283   6.932  1.00  0.00     0.170 HD
HETATM    6  H   UNL     1      42.950 -14.261   5.277  1.00  0.00     0.164 HD
ENDROOT
BRANCH   1   7
HETATM    7  C   UNL     1      43.117 -16.958   4.986  1.00  0.00     0.066 A 
HETATM    8  C   UNL     1      43.071 -16.106   3.876  1.00  0.00     0.038 A 
HETATM    9  C   UNL     1      43.240 -16.612   2.582  1.00  0.00    -0.059 A 
HETATM   10  C   UNL     1      43.202 -15.701   1.389  1.00  0.00     0.048 C 
HETATM   11  C   UNL     1      43.525 -17.970   2.416  1.00  0.00     0.020 A 
HETATM   12  C   UNL     1      43.632 -18.821   3.528  1.00  0.00    -0.005 A 
HETATM   13  C   UNL     1      43.426 -18.321   4.831  1.00  0.00     0.093 A 
HETATM   14  C   UNL     1      43.954 -20.176   3.380  1.00  0.00     0.015 A 
HETATM   15  N   UNL     1      43.523 -19.117   5.922  1.00  0.00    -0.258 NA
HETATM   16  C   UNL     1      43.845 -20.417   5.739  1.00  0.00     0.117 A 
HETATM   17  C   UNL     1      44.068 -20.988   4.502  1.00  0.00     0.020 A 
ENDBRANCH   1   7
BRANCH   3  18
HETATM   18  C   UNL     1      43.689 -12.965   6.825  1.00  0.00     0.164 C 
BRANCH  18  19
HETATM   19  C   UNL     1      42.888 -11.700   6.424  1.00  0.00     0.261 C 
BRANCH  19  20
HETATM   20  N   UNL     1      42.706 -10.671   7.541  1.00  0.00    -0.067 N 
HETATM   21  H   UNL     1      41.878 -11.034   8.033  1.00  0.00     0.280 HD
HETATM   22  C   UNL     1      43.769 -10.631   8.600  1.00  0.00     0.270 C 
HETATM   23  C   UNL     1      42.352  -9.300   7.053  1.00  0.00     0.270 C 
ENDBRANCH  19  20
BRANCH  19  24
HETATM   24  C   UNL     1      41.585 -12.011   5.744  1.00  0.00     0.085 A 
HETATM   25  O   UNL     1      41.682 -12.362   4.424  1.00  0.00    -0.325 OA
HETATM   26  C   UNL     1      40.424 -12.629   3.987  1.00  0.00     0.142 A 
HETATM   27  C   UNL     1      39.517 -12.459   5.004  1.00  0.00     0.027 A 
HETATM   28  C   UNL     1      40.263 -12.067   6.142  1.00  0.00     0.037 A 
ENDBRANCH  19  24
ENDBRANCH  18  19
ENDBRANCH   3  18
TORSDOF 5
ENDMDL
MODEL 4
REMARK VINA RESULT:      -7.6      3.835      5.892
REMARK  5 active torsions:
REMARK  status: ('A' for Active; 'I' for Inactive)
REMARK    1  A    between atoms: C_4  and  N_5 
REMARK       I    between atoms: N_5  and  C_6 
REMARK       I    between atoms: C_6  and  N_7 
REMARK    2  A    between atoms: N_7  and  C_8 
REMARK    3  A    between atoms: C_8  and  C_9 
REMARK    4  A    between atoms: C_9  and  N_10 
REMARK    5  A    between atoms: C_9  and  C_14 
ROOT
HETATM    1  N   UNL     1      43.544 -16.185   2.978  1.00  0.00    -0.307 N 
HETATM    2  C   UNL     1      42.616 -15.831   2.061  1.00  0.00     0.320 C 
HETATM    3  N   UNL     1      41.353 -15.576   2.496  1.00  0.00    -0.340 N 
HETATM    4  O   UNL     1      42.925 -15.655   0.885  1.00  0.00    -0.247 OA
HETATM    5  H   UNL     1      44.503 -16.128   2.629  1.00  0.00     0.170 HD
HETATM    6  H   UNL     1      41.226 -15.416   3.486  1.00  0.00     0.164 HD
ENDROOT
BRANCH   1   7
HETATM    7  C   UNL     1      43.489 -16.681   4.304  1.00  0.00     0.066 A 
HETATM    8  C   UNL     1      43.226 -15.885   5.426  1.00  0.00     0.038 A 
HETATM    9  C   UNL     1      43.208 -16.445   6.708  1.00  0.00    -0.059 A 
HETATM   10  C   UNL     1      42.917 -15.598   7.913  1.00  0.00     0.048 C 
HETATM   11  C   UNL     1      43.387 -17.824   6.849  1.00  0.00     0.020 A 
HETATM   12  C   UNL     1      43.591 -18.639   5.725  1.00  0.00    -0.005 A 
HETATM   13  C   UNL     1      43.647 -18.072   4.434  1.00  0.00     0.093 A 
HETATM   14  C   UNL     1      43.734 -20.027   5.846  1.00  0.00     0.015 A 
HETATM   15  N   UNL     1      43.842 -18.832   3.330  1.00  0.00    -0.258 NA
HETATM   16  C   UNL     1      43.966 -20.169   3.489  1.00  0.00     0.117 A 
HETATM   17  C   UNL     1      43.920 -20.807   4.712  1.00  0.00     0.020 A 
ENDBRANCH   1   7
BRANCH   3  18
HETATM   18  C   UNL     1      40.244 -15.388   1.574  1.00  0.00     0.164 C 
BRANCH  18  19
HETATM   19  C   UNL     1      40.089 -13.981   0.942  1.00  0.00     0.261 C 
BRANCH  19  20
HETATM   20  N   UNL     1      38.987 -13.116   1.557  1.00  0.00    -0.067 N 
HETATM   21  H   UNL     1      38.163 -13.727   1.473  1.00  0.00     0.280 HD
HETATM   22  C   UNL     1      39.087 -12.842   3.029  1.00  0.00     0.270 C 
HETATM   23  C   UNL     1      38.684 -11.873   0.778  1.00  0.00     0.270 C 
ENDBRANCH  19  20
BRANCH  19  24
HETATM   24  C   UNL     1      39.995 -14.008  -0.557  1.00  0.00     0.085 A 
HETATM   25  O   UNL     1      39.143 -14.948  -1.073  1.00  0.00    -0.325 OA
HETATM   26  C   UNL     1      39.166 -14.810  -2.424  1.00  0.00     0.142 A 
HETATM   27  C   UNL     1      40.017 -13.794  -2.788  1.00  0.00     0.027 A 
HETATM   28  C   UNL     1      40.548 -13.270  -1.585  1.00  0.00     0.037 A 
ENDBRANCH  19  24
ENDBRANCH  18  19
ENDBRANCH   3  18
TORSDOF 5
ENDMDL
MODEL 5
REMARK VINA RESULT:      -7.6      2.750      5.243
REMARK  5 active torsions:
REMARK  status: ('A' for Active; 'I' for Inactive)
REMARK    1  A    between atoms: C_4  and  N_5 
REMARK       I    between atoms: N_5  and  C_6 
REMARK       I    between atoms: C_6  and  N_7 
REMARK    2  A    between atoms: N_7  and  C_8 
REMARK    3  A    between atoms: C_8  and  C_9 
REMARK    4  A    between atoms: C_9  and  N_10 
REMARK    5  A    between atoms: C_9  and  C_14 
ROOT
HETATM    1  N   UNL     1      42.989 -15.216   2.176  1.00  0.00    -0.307 N 
HETATM    2  C   UNL     1      41.872 -14.507   1.897  1.00  0.00     0.320 C 
HETATM    3  N   UNL     1      40.744 -14.787   2.603  1.00  0.00    -0.340 N 
HETATM    4  O   UNL     1      41.899 -13.576   1.095  1.00  0.00    -0.247 OA
HETATM    5  H   UNL     1      43.840 -14.802   1.790  1.00  0.00     0.170 HD
HETATM    6  H   UNL     1      40.850 -15.318   3.456  1.00  0.00     0.164 HD
ENDROOT
BRANCH   1   7
HETATM    7  C   UNL     1      43.244 -16.444   2.834  1.00  0.00     0.066 A 
HETATM    8  C   UNL     1      43.399 -17.668   2.172  1.00  0.00     0.038 A 
HETATM    9  C   UNL     1      43.629 -18.845   2.894  1.00  0.00    -0.059 A 
HETATM   10  C   UNL     1      43.806 -20.158   2.188  1.00  0.00     0.048 C 
HETATM   11  C   UNL     1      43.772 -18.772   4.282  1.00  0.00     0.020 A 
HETATM   12  C   UNL     1      43.677 -17.540   4.949  1.00  0.00    -0.005 A 
HETATM   13  C   UNL     1      43.409 -16.358   4.228  1.00  0.00     0.093 A 
HETATM   14  C   UNL     1      43.856 -17.446   6.335  1.00  0.00     0.015 A 
HETATM   15  N   UNL     1      43.312 -15.155   4.842  1.00  0.00    -0.258 NA
HETATM   16  C   UNL     1      43.501 -15.104   6.180  1.00  0.00     0.117 A 
HETATM   17  C   UNL     1      43.771 -16.209   6.963  1.00  0.00     0.020 A 
ENDBRANCH   1   7
BRANCH   3  18
HETATM   18  C   UNL     1      39.450 -14.228   2.242  1.00  0.00     0.164 C 
BRANCH  18  19
HETATM   19  C   UNL     1      39.084 -12.853   2.858  1.00  0.00     0.261 C 
BRANCH  19  20
HETATM   20  N   UNL     1      39.171 -11.671   1.892  1.00  0.00    -0.067 N 
HETATM   21  H   UNL     1      40.171 -11.430   1.938  1.00  0.00     0.280 HD
HETATM   22  C   UNL     1      38.934 -11.967   0.440  1.00  0.00     0.270 C 
HETATM   23  C   UNL     1      38.415 -10.459   2.345  1.00  0.00     0.270 C 
ENDBRANCH  19  20
BRANCH  19  24
HETATM   24  C   UNL     1      39.803 -12.567   4.146  1.00  0.00     0.085 A 
HETATM   25  O   UNL     1      41.063 -12.048   4.010  1.00  0.00    -0.325 OA
HETATM   26  C   UNL     1      41.543 -11.830   5.261  1.00  0.00     0.142 A 
HETATM   27  C   UNL     1      40.613 -12.197   6.203  1.00  0.00     0.027 A 
HETATM   28  C   UNL     1      39.485 -12.667   5.486  1.00  0.00     0.037 A 
ENDBRANCH  19  24
ENDBRANCH  18  19
ENDBRANCH   3  18
TORSDOF 5
ENDMDL
MODEL 6
REMARK VINA RESULT:      -7.6      1.399      3.718
REMARK  5 active torsions:
REMARK  status: ('A' for Active; 'I' for Inactive)
REMARK    1  A    between atoms: C_4  and  N_5 
REMARK       I    between atoms: N_5  and  C_6 
REMARK       I    between atoms: C_6  and  N_7 
REMARK    2  A    between atoms: N_7  and  C_8 
REMARK    3  A    between atoms: C_8  and  C_9 
REMARK    4  A    between atoms: C_9  and  N_10 
REMARK    5  A    between atoms: C_9  and  C_14 
ROOT
HETATM    1  N   UNL     1      42.586 -16.075   6.282  1.00  0.00    -0.307 N 
HETATM    2  C   UNL     1      43.145 -15.006   6.892  1.00  0.00     0.320 C 
HETATM    3  N   UNL     1      43.592 -13.986   6.112  1.00  0.00    -0.340 N 
HETATM    4  O   UNL     1      43.164 -14.918   8.118  1.00  0.00    -0.247 OA
HETATM    5  H   UNL     1      42.064 -16.681   6.919  1.00  0.00     0.170 HD
HETATM    6  H   UNL     1      43.267 -13.956   5.156  1.00  0.00     0.164 HD
ENDROOT
BRANCH   1   7
HETATM    7  C   UNL     1      42.608 -16.585   4.961  1.00  0.00     0.066 A 
HETATM    8  C   UNL     1      43.365 -17.694   4.563  1.00  0.00     0.038 A 
HETATM    9  C   UNL     1      43.351 -18.127   3.233  1.00  0.00    -0.059 A 
HETATM   10  C   UNL     1      44.153 -19.322   2.803  1.00  0.00     0.048 C 
HETATM   11  C   UNL     1      42.516 -17.480   2.317  1.00  0.00     0.020 A 
HETATM   12  C   UNL     1      41.708 -16.405   2.720  1.00  0.00    -0.005 A 
HETATM   13  C   UNL     1      41.748 -15.943   4.053  1.00  0.00     0.093 A 
HETATM   14  C   UNL     1      40.837 -15.771   1.824  1.00  0.00     0.015 A 
HETATM   15  N   UNL     1      40.980 -14.909   4.471  1.00  0.00    -0.258 NA
HETATM   16  C   UNL     1      40.146 -14.330   3.578  1.00  0.00     0.117 A 
HETATM   17  C   UNL     1      40.040 -14.720   2.258  1.00  0.00     0.020 A 
ENDBRANCH   1   7
BRANCH   3  18
HETATM   18  C   UNL     1      44.386 -12.894   6.653  1.00  0.00     0.164 C 
BRANCH  18  19
HETATM   19  C   UNL     1      43.644 -11.562   6.937  1.00  0.00     0.261 C 
BRANCH  19  20
HETATM   20  N   UNL     1      42.812 -11.027   5.771  1.00  0.00    -0.067 N 
HETATM   21  H   UNL     1      42.844 -10.011   5.934  1.00  0.00     0.280 HD
HETATM   22  C   UNL     1      43.391 -11.193   4.396  1.00  0.00     0.270 C 
HETATM   23  C   UNL     1      41.369 -11.427   5.820  1.00  0.00     0.270 C 
ENDBRANCH  19  20
BRANCH  19  24
HETATM   24  C   UNL     1      44.532 -10.498   7.515  1.00  0.00     0.085 A 
HETATM   25  O   UNL     1      43.879  -9.426   8.065  1.00  0.00    -0.325 OA
HETATM   26  C   UNL     1      44.829  -8.588   8.555  1.00  0.00     0.142 A 
HETATM   27  C   UNL     1      46.083  -9.102   8.332  1.00  0.00     0.027 A 
HETATM   28  C   UNL     1      45.895 -10.338   7.667  1.00  0.00     0.037 A 
ENDBRANCH  19  24
ENDBRANCH  18  19
ENDBRANCH   3  18
TORSDOF 5
ENDMDL
MODEL 7
REMARK VINA RESULT:      -7.5      3.283      5.351
REMARK  5 active torsions:
REMARK  status: ('A' for Active; 'I' for Inactive)
REMARK    1  A    between atoms: C_4  and  N_5 
REMARK       I    between atoms: N_5  and  C_6 
REMARK       I    between atoms: C_6  and  N_7 
REMARK    2  A    between atoms: N_7  and  C_8 
REMARK    3  A    between atoms: C_8  and  C_9 
REMARK    4  A    between atoms: C_9  and  N_10 
REMARK    5  A    between atoms: C_9  and  C_14 
ROOT
HETATM    1  N   UNL     1      43.369 -16.277   2.917  1.00  0.00    -0.307 N 
HETATM    2  C   UNL     1      42.379 -15.801   2.129  1.00  0.00     0.320 C 
HETATM    3  N   UNL     1      41.213 -15.429   2.721  1.00  0.00    -0.340 N 
HETATM    4  O   UNL     1      42.560 -15.624   0.926  1.00  0.00    -0.247 OA
HETATM    5  H   UNL     1      44.279 -16.310   2.453  1.00  0.00     0.170 HD
HETATM    6  H   UNL     1      41.225 -15.287   3.721  1.00  0.00     0.164 HD
ENDROOT
BRANCH   1   7
HETATM    7  C   UNL     1      43.422 -16.803   4.232  1.00  0.00     0.066 A 
HETATM    8  C   UNL     1      43.237 -16.036   5.389  1.00  0.00     0.038 A 
HETATM    9  C   UNL     1      43.326 -16.624   6.655  1.00  0.00    -0.059 A 
HETATM   10  C   UNL     1      43.118 -15.808   7.899  1.00  0.00     0.048 C 
HETATM   11  C   UNL     1      43.532 -18.003   6.750  1.00  0.00     0.020 A 
HETATM   12  C   UNL     1      43.659 -18.790   5.594  1.00  0.00    -0.005 A 
HETATM   13  C   UNL     1      43.608 -18.194   4.317  1.00  0.00     0.093 A 
HETATM   14  C   UNL     1      43.828 -20.178   5.673  1.00  0.00     0.015 A 
HETATM   15  N   UNL     1      43.726 -18.926   3.184  1.00  0.00    -0.258 NA
HETATM   16  C   UNL     1      43.879 -20.265   3.301  1.00  0.00     0.117 A 
HETATM   17  C   UNL     1      43.936 -20.931   4.510  1.00  0.00     0.020 A 
ENDBRANCH   1   7
BRANCH   3  18
HETATM   18  C   UNL     1      40.027 -15.100   1.947  1.00  0.00     0.164 C 
BRANCH  18  19
HETATM   19  C   UNL     1      39.781 -13.600   1.644  1.00  0.00     0.261 C 
BRANCH  19  20
HETATM   20  N   UNL     1      39.804 -13.230   0.160  1.00  0.00    -0.067 N 
HETATM   21  H   UNL     1      40.745 -12.824   0.056  1.00  0.00     0.280 HD
HETATM   22  C   UNL     1      39.788 -14.367  -0.819  1.00  0.00     0.270 C 
HETATM   23  C   UNL     1      38.827 -12.158  -0.214  1.00  0.00     0.270 C 
ENDBRANCH  19  20
BRANCH  19  24
HETATM   24  C   UNL     1      40.647 -12.678   2.455  1.00  0.00     0.085 A 
HETATM   25  O   UNL     1      41.883 -12.420   1.925  1.00  0.00    -0.325 OA
HETATM   26  C   UNL     1      42.508 -11.559   2.770  1.00  0.00     0.142 A 
HETATM   27  C   UNL     1      41.694 -11.256   3.834  1.00  0.00     0.027 A 
HETATM   28  C   UNL     1      40.489 -11.971   3.631  1.00  0.00     0.037 A 
ENDBRANCH  19  24
ENDBRANCH  18  19
ENDBRANCH   3  18
TORSDOF 5
ENDMDL
MODEL 8
REMARK VINA RESULT:      -7.4      2.019      4.193
REMARK  5 active torsions:
REMARK  status: ('A' for Active; 'I' for Inactive)
REMARK    1  A    between atoms: C_4  and  N_5 
REMARK       I    between atoms: N_5  and  C_6 
REMARK       I    between atoms: C_6  and  N_7 
REMARK    2  A    between atoms: N_7  and  C_8 
REMARK    3  A    between atoms: C_8  and  C_9 
REMARK    4  A    between atoms: C_9  and  N_10 
REMARK    5  A    between atoms: C_9  and  C_14 
ROOT
HETATM    1  N   UNL     1      41.592 -15.841   2.543  1.00  0.00    -0.307 N 
HETATM    2  C   UNL     1      41.759 -14.499   2.526  1.00  0.00     0.320 C 
HETATM    3  N   UNL     1      43.007 -14.008   2.750  1.00  0.00    -0.340 N 
HETATM    4  O   UNL     1      40.830 -13.751   2.227  1.00  0.00    -0.247 OA
HETATM    5  H   UNL     1      40.704 -16.145   2.139  1.00  0.00     0.170 HD
HETATM    6  H   UNL     1      43.781 -14.652   2.667  1.00  0.00     0.164 HD
ENDROOT
BRANCH   1   7
HETATM    7  C   UNL     1      42.345 -16.927   3.052  1.00  0.00     0.066 A 
HETATM    8  C   UNL     1      42.791 -18.003   2.274  1.00  0.00     0.038 A 
HETATM    9  C   UNL     1      43.514 -19.050   2.855  1.00  0.00    -0.059 A 
HETATM   10  C   UNL     1      44.003 -20.201   2.023  1.00  0.00     0.048 C 
HETATM   11  C   UNL     1      43.848 -18.976   4.210  1.00  0.00     0.020 A 
HETATM   12  C   UNL     1      43.457 -17.872   4.985  1.00  0.00    -0.005 A 
HETATM   13  C   UNL     1      42.696 -16.832   4.411  1.00  0.00     0.093 A 
HETATM   14  C   UNL     1      43.816 -17.765   6.334  1.00  0.00     0.015 A 
HETATM   15  N   UNL     1      42.305 -15.755   5.132  1.00  0.00    -0.258 NA
HETATM   16  C   UNL     1      42.679 -15.684   6.430  1.00  0.00     0.117 A 
HETATM   17  C   UNL     1      43.427 -16.653   7.069  1.00  0.00     0.020 A 
ENDBRANCH   1   7
BRANCH   3  18
HETATM   18  C   UNL     1      43.251 -12.588   2.953  1.00  0.00     0.164 C 
BRANCH  18  19
HETATM   19  C   UNL     1      42.680 -11.957   4.249  1.00  0.00     0.261 C 
BRANCH  19  20
HETATM   20  N   UNL     1      41.912 -10.651   4.045  1.00  0.00    -0.067 N 
HETATM   21  H   UNL     1      42.614  -9.946   4.310  1.00  0.00     0.280 HD
HETATM   22  C   UNL     1      41.551 -10.293   2.633  1.00  0.00     0.270 C 
HETATM   23  C   UNL     1      40.752 -10.476   4.978  1.00  0.00     0.270 C 
ENDBRANCH  19  20
BRANCH  19  24
HETATM   24  C   UNL     1      43.696 -11.833   5.348  1.00  0.00     0.085 A 
HETATM   25  O   UNL     1      44.893 -11.279   4.980  1.00  0.00    -0.325 OA
HETATM   26  C   UNL     1      45.668 -11.222   6.094  1.00  0.00     0.142 A 
HETATM   27  C   UNL     1      44.990 -11.728   7.176  1.00  0.00     0.027 A 
HETATM   28  C   UNL     1      43.714 -12.117   6.700  1.00  0.00     0.037 A 
ENDBRANCH  19  24
ENDBRANCH  18  19
ENDBRANCH   3  18
TORSDOF 5
ENDMDL
MODEL 9
REMARK VINA RESULT:      -7.4      4.075      6.603
REMARK  5 active torsions:
REMARK  status: ('A' for Active; 'I' for Inactive)
REMARK    1  A    between atoms: C_4  and  N_5 
REMARK       I    between atoms: N_5  and  C_6 
REMARK       I    between atoms: C_6  and  N_7 
REMARK    2  A    between atoms: N_7  and  C_8 
REMARK    3  A    between atoms: C_8  and  C_9 
REMARK    4  A    between atoms: C_9  and  N_10 
REMARK    5  A    between atoms: C_9  and  C_14 
ROOT
HETATM    1  N   UNL     1      40.055 -14.874   3.350  1.00  0.00    -0.307 N 
HETATM    2  C   UNL     1      39.753 -13.870   2.496  1.00  0.00     0.320 C 
HETATM    3  N   UNL     1      40.521 -13.723   1.384  1.00  0.00    -0.340 N 
HETATM    4  O   UNL     1      38.758 -13.169   2.673  1.00  0.00    -0.247 OA
HETATM    5  H   UNL     1      39.312 -15.075   4.022  1.00  0.00     0.170 HD
HETATM    6  H   UNL     1      41.108 -14.502   1.119  1.00  0.00     0.164 HD
ENDROOT
BRANCH   1   7
HETATM    7  C   UNL     1      41.201 -15.678   3.567  1.00  0.00     0.066 A 
HETATM    8  C   UNL     1      41.573 -16.749   2.744  1.00  0.00     0.038 A 
HETATM    9  C   UNL     1      42.710 -17.511   3.036  1.00  0.00    -0.059 A 
HETATM   10  C   UNL     1      43.118 -18.653   2.151  1.00  0.00     0.048 C 
HETATM   11  C   UNL     1      43.511 -17.146   4.122  1.00  0.00     0.020 A 
HETATM   12  C   UNL     1      43.179 -16.038   4.917  1.00  0.00    -0.005 A 
HETATM   13  C   UNL     1      42.013 -15.290   4.648  1.00  0.00     0.093 A 
HETATM   14  C   UNL     1      43.991 -15.638   5.986  1.00  0.00     0.015 A 
HETATM   15  N   UNL     1      41.667 -14.217   5.396  1.00  0.00    -0.258 NA
HETATM   16  C   UNL     1      42.483 -13.856   6.413  1.00  0.00     0.117 A 
HETATM   17  C   UNL     1      43.643 -14.527   6.744  1.00  0.00     0.020 A 
ENDBRANCH   1   7
BRANCH   3  18
HETATM   18  C   UNL     1      40.407 -12.561   0.517  1.00  0.00     0.164 C 
BRANCH  18  19
HETATM   19  C   UNL     1      40.739 -12.770  -0.983  1.00  0.00     0.261 C 
BRANCH  19  20
HETATM   20  N   UNL     1      41.331 -11.548  -1.688  1.00  0.00    -0.067 N 
HETATM   21  H   UNL     1      42.339 -11.756  -1.666  1.00  0.00     0.280 HD
HETATM   22  C   UNL     1      41.023 -11.398  -3.149  1.00  0.00     0.270 C 
HETATM   23  C   UNL     1      41.138 -10.263  -0.942  1.00  0.00     0.270 C 
ENDBRANCH  19  20
BRANCH  19  24
HETATM   24  C   UNL     1      39.604 -13.363  -1.768  1.00  0.00     0.085 A 
HETATM   25  O   UNL     1      38.408 -12.703  -1.656  1.00  0.00    -0.325 OA
HETATM   26  C   UNL     1      37.516 -13.357  -2.444  1.00  0.00     0.142 A 
HETATM   27  C   UNL     1      38.117 -14.426  -3.065  1.00  0.00     0.027 A 
HETATM   28  C   UNL     1      39.466 -14.428  -2.636  1.00  0.00     0.037 A 
ENDBRANCH  19  24
ENDBRANCH  18  19
ENDBRANCH   3  18
TORSDOF 5
ENDMDL
MODEL 10
REMARK VINA RESULT:      -7.3      3.342      6.240
REMARK  5 active torsions:
REMARK  status: ('A' for Active; 'I' for Inactive)
REMARK    1  A    between atoms: C_4  and  N_5 
REMARK       I    between atoms: N_5  and  C_6 
REMARK       I    between atoms: C_6  and  N_7 
REMARK    2  A    between atoms: N_7  and  C_8 
REMARK    3  A    between atoms: C_8  and  C_9 
REMARK    4  A    between atoms: C_9  and  N_10 
REMARK    5  A    between atoms: C_9  and  C_14 
ROOT
HETATM    1  N   UNL     1      43.600 -16.548   2.730  1.00  0.00    -0.307 N 
HETATM    2  C   UNL     1      42.650 -16.078   1.890  1.00  0.00     0.320 C 
HETATM    3  N   UNL     1      41.383 -15.951   2.367  1.00  0.00    -0.340 N 
HETATM    4  O   UNL     1      42.941 -15.691   0.761  1.00  0.00    -0.247 OA
HETATM    5  H   UNL     1      44.553 -16.395   2.393  1.00  0.00     0.170 HD
HETATM    6  H   UNL     1      41.260 -15.968   3.369  1.00  0.00     0.164 HD
ENDROOT
BRANCH   1   7
HETATM    7  C   UNL     1      43.576 -17.265   3.951  1.00  0.00     0.066 A 
HETATM    8  C   UNL     1      43.837 -18.637   4.058  1.00  0.00     0.038 A 
HETATM    9  C   UNL     1      43.774 -19.280   5.300  1.00  0.00    -0.059 A 
HETATM   10  C   UNL     1      44.063 -20.748   5.421  1.00  0.00     0.048 C 
HETATM   11  C   UNL     1      43.515 -18.521   6.444  1.00  0.00     0.020 A 
HETATM   12  C   UNL     1      43.311 -17.135   6.354  1.00  0.00    -0.005 A 
HETATM   13  C   UNL     1      43.337 -16.490   5.100  1.00  0.00     0.093 A 
HETATM   14  C   UNL     1      43.088 -16.355   7.497  1.00  0.00     0.015 A 
HETATM   15  N   UNL     1      43.144 -15.155   4.981  1.00  0.00    -0.258 NA
HETATM   16  C   UNL     1      42.941 -14.436   6.108  1.00  0.00     0.117 A 
HETATM   17  C   UNL     1      42.904 -14.984   7.375  1.00  0.00     0.020 A 
ENDBRANCH   1   7
BRANCH   3  18
HETATM   18  C   UNL     1      40.258 -15.651   1.494  1.00  0.00     0.164 C 
BRANCH  18  19
HETATM   19  C   UNL     1      40.150 -14.197   0.965  1.00  0.00     0.261 C 
BRANCH  19  20
HETATM   20  N   UNL     1      39.143 -13.316   1.706  1.00  0.00    -0.067 N 
HETATM   21  H   UNL     1      38.290 -13.892   1.674  1.00  0.00     0.280 HD
HETATM   22  C   UNL     1      39.383 -13.103   3.172  1.00  0.00     0.270 C 
HETATM   23  C   UNL     1      38.825 -12.033   1.001  1.00  0.00     0.270 C 
ENDBRANCH  19  20
BRANCH  19  24
HETATM   24  C   UNL     1      39.961 -14.117  -0.523  1.00  0.00     0.085 A 
HETATM   25  O   UNL     1      40.746 -13.195  -1.164  1.00  0.00    -0.325 OA
HETATM   26  C   UNL     1      40.463 -13.280  -2.489  1.00  0.00     0.142 A 
HETATM   27  C   UNL     1      39.511 -14.245  -2.715  1.00  0.00     0.027 A 
HETATM   28  C   UNL     1      39.190 -14.792  -1.449  1.00  0.00     0.037 A 
ENDBRANCH  19  24
ENDBRANCH  18  19
ENDBRANCH   3  18
TORSDOF 5
ENDMDL
