MODEL 1
REMARK VINA RESULT:      -8.3      0.000      0.000
REMARK  1 active torsions:
REMARK  status: ('A' for Active; 'I' for Inactive)
REMARK    1  A    between atoms: C_8  and  C_9 
ROOT
HETATM    1  C   UNL     1      43.477 -13.606   7.132  1.00  0.00     0.073 C 
HETATM    2  C   UNL     1      43.552 -12.850   5.856  1.00  0.00     0.062 C 
HETATM    3  N   UNL     1      44.534 -11.955   5.700  1.00  0.00    -0.178 NA
HETATM    4  N   UNL     1      44.347 -11.482   4.466  1.00  0.00    -0.262 N 
HETATM    5  H   UNL     1      44.994 -10.783   4.120  1.00  0.00     0.191 HD
HETATM    6  C   UNL     1      43.195 -11.927   3.883  1.00  0.00     0.134 C 
HETATM    7  C   UNL     1      42.709 -12.934   4.697  1.00  0.00     0.032 C 
HETATM    8  C   UNL     1      41.622 -13.935   4.448  1.00  0.00     0.120 C 
HETATM    9  S   UNL     1      40.051 -13.388   3.708  1.00  0.00    -0.141 SA
HETATM   10  C   UNL     1      40.312 -11.646   3.272  1.00  0.00     0.136 C 
HETATM   11  C   UNL     1      40.282 -10.693   4.463  1.00  0.00     0.031 C 
HETATM   12  C   UNL     1      41.451 -11.398   2.286  1.00  0.00     0.236 C 
HETATM   13  O   UNL     1      41.219 -11.084   1.113  1.00  0.00    -0.272 OA
HETATM   14  N   UNL     1      42.752 -11.404   2.698  1.00  0.00    -0.311 N 
HETATM   15  H   UNL     1      43.399 -10.962   2.055  1.00  0.00     0.170 HD
ENDROOT
BRANCH   8  16
HETATM   16  C   UNL     1      42.279 -15.077   3.652  1.00  0.00    -0.029 A 
HETATM   17  C   UNL     1      42.768 -16.275   4.274  1.00  0.00    -0.018 A 
HETATM   18  C   UNL     1      43.426 -17.245   3.465  1.00  0.00    -0.025 A 
HETATM   19  C   UNL     1      42.648 -16.588   5.651  1.00  0.00     0.013 A 
HETATM   20  C   UNL     1      43.949 -18.418   4.033  1.00  0.00     0.012 A 
HETATM   21  C   UNL     1      43.557 -17.050   2.086  1.00  0.00     0.012 A 
HETATM   22  C   UNL     1      43.835 -18.672   5.395  1.00  0.00     0.001 A 
HETATM   23  C   UNL     1      43.177 -17.759   6.204  1.00  0.00     0.001 A 
HETATM   24  C   UNL     1      43.056 -15.908   1.479  1.00  0.00     0.002 A 
HETATM   25  C   UNL     1      42.432 -14.936   2.251  1.00  0.00     0.009 A 
ENDBRANCH   8  16
TORSDOF 1
ENDMDL
MODEL 2
REMARK VINA RESULT:      -8.2      2.373      3.776
REMARK  1 active torsions:
REMARK  status: ('A' for Active; 'I' for Inactive)
REMARK    1  A    between atoms: C_8  and  C_9 
ROOT
HETATM    1  C   UNL     1      40.673 -14.589   1.137  1.00  0.00     0.073 C 
HETATM    2  C   UNL     1      40.347 -13.866   2.392  1.00  0.00     0.062 C 
HETATM    3  N   UNL     1      39.065 -13.773   2.762  1.00  0.00    -0.178 NA
HETATM    4  N   UNL     1      39.110 -13.107   3.920  1.00  0.00    -0.262 N 
HETATM    5  H   UNL     1      38.236 -12.926   4.400  1.00  0.00     0.191 HD
HETATM    6  C   UNL     1      40.356 -12.639   4.227  1.00  0.00     0.134 C 
HETATM    7  C   UNL     1      41.228 -13.228   3.330  1.00  0.00     0.032 C 
HETATM    8  C   UNL     1      42.726 -13.275   3.331  1.00  0.00     0.120 C 
HETATM    9  S   UNL     1      43.671 -11.762   3.692  1.00  0.00    -0.141 SA
HETATM   10  C   UNL     1      42.429 -10.527   4.165  1.00  0.00     0.136 C 
HETATM   11  C   UNL     1      41.635  -9.959   2.993  1.00  0.00     0.031 C 
HETATM   12  C   UNL     1      41.588 -10.902   5.383  1.00  0.00     0.236 C 
HETATM   13  O   UNL     1      41.758 -10.340   6.471  1.00  0.00    -0.272 OA
HETATM   14  N   UNL     1      40.551 -11.784   5.278  1.00  0.00    -0.311 N 
HETATM   15  H   UNL     1      39.893 -11.753   6.049  1.00  0.00     0.170 HD
ENDROOT
BRANCH   8  16
HETATM   16  C   UNL     1      43.106 -14.440   4.262  1.00  0.00    -0.029 A 
HETATM   17  C   UNL     1      43.295 -15.783   3.788  1.00  0.00    -0.018 A 
HETATM   18  C   UNL     1      43.576 -16.808   4.735  1.00  0.00    -0.025 A 
HETATM   19  C   UNL     1      43.230 -16.187   2.431  1.00  0.00     0.013 A 
HETATM   20  C   UNL     1      43.737 -18.142   4.323  1.00  0.00     0.012 A 
HETATM   21  C   UNL     1      43.703 -16.505   6.095  1.00  0.00     0.012 A 
HETATM   22  C   UNL     1      43.636 -18.498   2.983  1.00  0.00     0.001 A 
HETATM   23  C   UNL     1      43.390 -17.519   2.036  1.00  0.00     0.001 A 
HETATM   24  C   UNL     1      43.554 -15.204   6.550  1.00  0.00     0.002 A 
HETATM   25  C   UNL     1      43.255 -14.190   5.648  1.00  0.00     0.009 A 
ENDBRANCH   8  16
TORSDOF 1
ENDMDL
MODEL 3
REMARK VINA RESULT:      -7.8      2.902      5.388
REMARK  1 active torsions:
REMARK  status: ('A' for Active; 'I' for Inactive)
REMARK    1  A    between atoms: C_8  and  C_9 
ROOT
HETATM    1  C   UNL     1      42.928 -15.816   7.364  1.00  0.00     0.073 C 
HETATM    2  C   UNL     1      41.810 -15.873   6.388  1.00  0.00     0.062 C 
HETATM    3  N   UNL     1      40.665 -16.455   6.760  1.00  0.00    -0.178 NA
HETATM    4  N   UNL     1      39.872 -16.318   5.694  1.00  0.00    -0.262 N 
HETATM    5  H   UNL     1      38.928 -16.684   5.752  1.00  0.00     0.191 HD
HETATM    6  C   UNL     1      40.514 -15.807   4.602  1.00  0.00     0.134 C 
HETATM    7  C   UNL     1      41.748 -15.368   5.044  1.00  0.00     0.032 C 
HETATM    8  C   UNL     1      42.773 -14.518   4.356  1.00  0.00     0.120 C 
HETATM    9  S   UNL     1      43.199 -14.857   2.618  1.00  0.00    -0.141 SA
HETATM   10  C   UNL     1      42.036 -16.144   2.087  1.00  0.00     0.136 C 
HETATM   11  C   UNL     1      42.360 -17.537   2.617  1.00  0.00     0.031 C 
HETATM   12  C   UNL     1      40.564 -15.752   2.180  1.00  0.00     0.236 C 
HETATM   13  O   UNL     1      39.904 -15.511   1.164  1.00  0.00    -0.272 OA
HETATM   14  N   UNL     1      39.906 -15.770   3.377  1.00  0.00    -0.311 N 
HETATM   15  H   UNL     1      38.895 -15.773   3.301  1.00  0.00     0.170 HD
ENDROOT
BRANCH   8  16
HETATM   16  C   UNL     1      42.325 -13.062   4.577  1.00  0.00    -0.029 A 
HETATM   17  C   UNL     1      42.871 -12.230   5.612  1.00  0.00    -0.018 A 
HETATM   18  C   UNL     1      42.343 -10.920   5.785  1.00  0.00    -0.025 A 
HETATM   19  C   UNL     1      43.917 -12.604   6.494  1.00  0.00     0.013 A 
HETATM   20  C   UNL     1      42.824 -10.081   6.805  1.00  0.00     0.012 A 
HETATM   21  C   UNL     1      41.338 -10.440   4.938  1.00  0.00     0.012 A 
HETATM   22  C   UNL     1      43.831 -10.499   7.666  1.00  0.00     0.001 A 
HETATM   23  C   UNL     1      44.384 -11.759   7.506  1.00  0.00     0.001 A 
HETATM   24  C   UNL     1      40.832 -11.231   3.917  1.00  0.00     0.002 A 
HETATM   25  C   UNL     1      41.315 -12.522   3.744  1.00  0.00     0.009 A 
ENDBRANCH   8  16
TORSDOF 1
ENDMDL
MODEL 4
REMARK VINA RESULT:      -7.5      2.986      5.684
REMARK  1 active torsions:
REMARK  status: ('A' for Active; 'I' for Inactive)
REMARK    1  A    between atoms: C_8  and  C_9 
ROOT
HETATM    1  C   UNL     1      43.208 -15.570   7.541  1.00  0.00     0.073 C 
HETATM    2  C   UNL     1      41.991 -15.199   6.775  1.00  0.00     0.062 C 
HETATM    3  N   UNL     1      40.834 -15.794   7.085  1.00  0.00    -0.178 NA
HETATM    4  N   UNL     1      39.950 -15.234   6.255  1.00  0.00    -0.262 N 
HETATM    5  H   UNL     1      38.983 -15.530   6.319  1.00  0.00     0.191 HD
HETATM    6  C   UNL     1      40.523 -14.415   5.325  1.00  0.00     0.134 C 
HETATM    7  C   UNL     1      41.841 -14.248   5.709  1.00  0.00     0.032 C 
HETATM    8  C   UNL     1      42.874 -13.283   5.214  1.00  0.00     0.120 C 
HETATM    9  S   UNL     1      43.066 -13.013   3.423  1.00  0.00    -0.141 SA
HETATM   10  C   UNL     1      41.712 -13.944   2.655  1.00  0.00     0.136 C 
HETATM   11  C   UNL     1      41.929 -15.453   2.625  1.00  0.00     0.031 C 
HETATM   12  C   UNL     1      40.313 -13.510   3.087  1.00  0.00     0.236 C 
HETATM   13  O   UNL     1      39.578 -12.879   2.319  1.00  0.00    -0.272 OA
HETATM   14  N   UNL     1      39.793 -13.904   4.286  1.00  0.00    -0.311 N 
HETATM   15  H   UNL     1      38.786 -13.809   4.359  1.00  0.00     0.170 HD
ENDROOT
BRANCH   8  16
HETATM   16  C   UNL     1      42.624 -11.973   5.981  1.00  0.00    -0.029 A 
HETATM   17  C   UNL     1      43.662 -11.276   6.689  1.00  0.00    -0.018 A 
HETATM   18  C   UNL     1      43.320 -10.109   7.429  1.00  0.00    -0.025 A 
HETATM   19  C   UNL     1      45.029 -11.652   6.711  1.00  0.00     0.013 A 
HETATM   20  C   UNL     1      44.295  -9.413   8.162  1.00  0.00     0.012 A 
HETATM   21  C   UNL     1      42.005  -9.631   7.436  1.00  0.00     0.012 A 
HETATM   22  C   UNL     1      45.620  -9.834   8.180  1.00  0.00     0.001 A 
HETATM   23  C   UNL     1      45.989 -10.950   7.448  1.00  0.00     0.001 A 
HETATM   24  C   UNL     1      41.008 -10.284   6.727  1.00  0.00     0.002 A 
HETATM   25  C   UNL     1      41.313 -11.439   6.016  1.00  0.00     0.009 A 
ENDBRANCH   8  16
TORSDOF 1
ENDMDL
MODEL 5
REMARK VINA RESULT:      -7.4     15.814     18.117
REMARK  1 active torsions:
REMARK  status: ('A' for Active; 'I' for Inactive)
REMARK    1  A    between atoms: C_8  and  C_9 
ROOT
HETATM    1  C   UNL     1      48.512 -32.899  -2.487  1.00  0.00     0.073 C 
HETATM    2  C   UNL     1      48.783 -31.603  -1.814  1.00  0.00     0.062 C 
HETATM    3  N   UNL     1      50.019 -31.095  -1.878  1.00  0.00    -0.178 NA
HETATM    4  N   UNL     1      49.926 -29.938  -1.217  1.00  0.00    -0.262 N 
HETATM    5  H   UNL     1      50.758 -29.363  -1.145  1.00  0.00     0.191 HD
HETATM    6  C   UNL     1      48.719 -29.758  -0.605  1.00  0.00     0.134 C 
HETATM    7  C   UNL     1      47.886 -30.754  -1.080  1.00  0.00     0.032 C 
HETATM    8  C   UNL     1      46.403 -30.915  -0.948  1.00  0.00     0.120 C 
HETATM    9  S   UNL     1      45.610 -30.632   0.666  1.00  0.00    -0.141 SA
HETATM   10  C   UNL     1      46.931 -30.005   1.740  1.00  0.00     0.136 C 
HETATM   11  C   UNL     1      47.910 -31.074   2.216  1.00  0.00     0.031 C 
HETATM   12  C   UNL     1      47.583 -28.710   1.261  1.00  0.00     0.236 C 
HETATM   13  O   UNL     1      47.363 -27.637   1.834  1.00  0.00    -0.272 OA
HETATM   14  N   UNL     1      48.513 -28.719   0.262  1.00  0.00    -0.311 N 
HETATM   15  H   UNL     1      49.082 -27.881   0.210  1.00  0.00     0.170 HD
ENDROOT
BRANCH   8  16
HETATM   16  C   UNL     1      45.787 -30.052  -2.064  1.00  0.00    -0.029 A 
HETATM   17  C   UNL     1      45.189 -30.616  -3.241  1.00  0.00    -0.018 A 
HETATM   18  C   UNL     1      44.709 -29.736  -4.252  1.00  0.00    -0.025 A 
HETATM   19  C   UNL     1      45.025 -32.002  -3.491  1.00  0.00     0.013 A 
HETATM   20  C   UNL     1      44.146 -30.241  -5.436  1.00  0.00     0.012 A 
HETATM   21  C   UNL     1      44.786 -28.349  -4.083  1.00  0.00     0.012 A 
HETATM   22  C   UNL     1      44.032 -31.610  -5.652  1.00  0.00     0.001 A 
HETATM   23  C   UNL     1      44.465 -32.491  -4.675  1.00  0.00     0.001 A 
HETATM   24  C   UNL     1      45.333 -27.803  -2.932  1.00  0.00     0.002 A 
HETATM   25  C   UNL     1      45.830 -28.642  -1.942  1.00  0.00     0.009 A 
ENDBRANCH   8  16
TORSDOF 1
ENDMDL
MODEL 6
REMARK VINA RESULT:      -7.2      3.021      5.077
REMARK  1 active torsions:
REMARK  status: ('A' for Active; 'I' for Inactive)
REMARK    1  A    between atoms: C_8  and  C_9 
ROOT
HETATM    1  C   UNL     1      38.913 -10.747   3.900  1.00  0.00     0.073 C 
HETATM    2  C   UNL     1      39.612 -11.648   4.851  1.00  0.00     0.062 C 
HETATM    3  N   UNL     1      38.990 -11.986   5.986  1.00  0.00    -0.178 NA
HETATM    4  N   UNL     1      39.850 -12.809   6.592  1.00  0.00    -0.262 N 
HETATM    5  H   UNL     1      39.579 -13.206   7.485  1.00  0.00     0.191 HD
HETATM    6  C   UNL     1      41.058 -12.892   5.962  1.00  0.00     0.134 C 
HETATM    7  C   UNL     1      40.907 -12.260   4.741  1.00  0.00     0.032 C 
HETATM    8  C   UNL     1      41.809 -12.245   3.545  1.00  0.00     0.120 C 
HETATM    9  S   UNL     1      43.598 -11.993   3.773  1.00  0.00    -0.141 SA
HETATM   10  C   UNL     1      43.852 -11.999   5.570  1.00  0.00     0.136 C 
HETATM   11  C   UNL     1      43.408 -10.717   6.268  1.00  0.00     0.031 C 
HETATM   12  C   UNL     1      43.429 -13.287   6.270  1.00  0.00     0.236 C 
HETATM   13  O   UNL     1      44.270 -14.082   6.703  1.00  0.00    -0.272 OA
HETATM   14  N   UNL     1      42.115 -13.542   6.540  1.00  0.00    -0.311 N 
HETATM   15  H   UNL     1      41.961 -14.260   7.239  1.00  0.00     0.170 HD
ENDROOT
BRANCH   8  16
HETATM   16  C   UNL     1      41.493 -13.535   2.767  1.00  0.00    -0.029 A 
HETATM   17  C   UNL     1      40.803 -13.533   1.508  1.00  0.00    -0.018 A 
HETATM   18  C   UNL     1      40.492 -14.781   0.897  1.00  0.00    -0.025 A 
HETATM   19  C   UNL     1      40.398 -12.373   0.800  1.00  0.00     0.013 A 
HETATM   20  C   UNL     1      39.790 -14.830  -0.319  1.00  0.00     0.012 A 
HETATM   21  C   UNL     1      40.886 -15.983   1.495  1.00  0.00     0.012 A 
HETATM   22  C   UNL     1      39.387 -13.667  -0.965  1.00  0.00     0.001 A 
HETATM   23  C   UNL     1      39.698 -12.438  -0.409  1.00  0.00     0.001 A 
HETATM   24  C   UNL     1      41.582 -15.985   2.694  1.00  0.00     0.002 A 
HETATM   25  C   UNL     1      41.875 -14.781   3.322  1.00  0.00     0.009 A 
ENDBRANCH   8  16
TORSDOF 1
ENDMDL
MODEL 7
REMARK VINA RESULT:      -7.1     15.701     17.839
REMARK  1 active torsions:
REMARK  status: ('A' for Active; 'I' for Inactive)
REMARK    1  A    between atoms: C_8  and  C_9 
ROOT
HETATM    1  C   UNL     1      48.680 -30.100  -1.105  1.00  0.00     0.073 C 
HETATM    2  C   UNL     1      47.461 -29.347  -0.716  1.00  0.00     0.062 C 
HETATM    3  N   UNL     1      47.589 -28.069  -0.343  1.00  0.00    -0.178 NA
HETATM    4  N   UNL     1      46.337 -27.679  -0.092  1.00  0.00    -0.262 N 
HETATM    5  H   UNL     1      46.187 -26.721   0.202  1.00  0.00     0.191 HD
HETATM    6  C   UNL     1      45.430 -28.698  -0.144  1.00  0.00     0.134 C 
HETATM    7  C   UNL     1      46.093 -29.784  -0.686  1.00  0.00     0.032 C 
HETATM    8  C   UNL     1      45.554 -31.088  -1.192  1.00  0.00     0.120 C 
HETATM    9  S   UNL     1      44.299 -31.979  -0.221  1.00  0.00    -0.141 SA
HETATM   10  C   UNL     1      43.872 -30.861   1.143  1.00  0.00     0.136 C 
HETATM   11  C   UNL     1      44.924 -30.791   2.245  1.00  0.00     0.031 C 
HETATM   12  C   UNL     1      43.312 -29.509   0.709  1.00  0.00     0.236 C 
HETATM   13  O   UNL     1      42.113 -29.244   0.848  1.00  0.00    -0.272 OA
HETATM   14  N   UNL     1      44.136 -28.516   0.263  1.00  0.00    -0.311 N 
HETATM   15  H   UNL     1      43.721 -27.591   0.270  1.00  0.00     0.170 HD
ENDROOT
BRANCH   8  16
HETATM   16  C   UNL     1      45.095 -30.817  -2.636  1.00  0.00    -0.029 A 
HETATM   17  C   UNL     1      45.738 -31.403  -3.779  1.00  0.00    -0.018 A 
HETATM   18  C   UNL     1      45.288 -31.037  -5.079  1.00  0.00    -0.025 A 
HETATM   19  C   UNL     1      46.802 -32.339  -3.726  1.00  0.00     0.013 A 
HETATM   20  C   UNL     1      45.907 -31.560  -6.227  1.00  0.00     0.012 A 
HETATM   21  C   UNL     1      44.216 -30.153  -5.237  1.00  0.00     0.012 A 
HETATM   22  C   UNL     1      46.967 -32.454  -6.129  1.00  0.00     0.001 A 
HETATM   23  C   UNL     1      47.410 -32.849  -4.878  1.00  0.00     0.001 A 
HETATM   24  C   UNL     1      43.572 -29.612  -4.135  1.00  0.00     0.002 A 
HETATM   25  C   UNL     1      44.009 -29.935  -2.856  1.00  0.00     0.009 A 
ENDBRANCH   8  16
TORSDOF 1
ENDMDL
MODEL 8
REMARK VINA RESULT:      -7.1      3.522      6.269
REMARK  1 active torsions:
REMARK  status: ('A' for Active; 'I' for Inactive)
REMARK    1  A    between atoms: C_8  and  C_9 
ROOT
HETATM    1  C   UNL     1      40.650  -9.999   2.680  1.00  0.00     0.073 C 
HETATM    2  C   UNL     1      40.243 -11.342   3.167  1.00  0.00     0.062 C 
HETATM    3  N   UNL     1      39.233 -11.426   4.041  1.00  0.00    -0.178 NA
HETATM    4  N   UNL     1      39.097 -12.738   4.250  1.00  0.00    -0.262 N 
HETATM    5  H   UNL     1      38.368 -13.046   4.884  1.00  0.00     0.191 HD
HETATM    6  C   UNL     1      40.077 -13.486   3.663  1.00  0.00     0.134 C 
HETATM    7  C   UNL     1      40.772 -12.633   2.826  1.00  0.00     0.032 C 
HETATM    8  C   UNL     1      41.784 -12.937   1.764  1.00  0.00     0.120 C 
HETATM    9  S   UNL     1      43.109 -14.139   2.105  1.00  0.00    -0.141 SA
HETATM   10  C   UNL     1      42.709 -14.838   3.730  1.00  0.00     0.136 C 
HETATM   11  C   UNL     1      43.014 -13.909   4.902  1.00  0.00     0.031 C 
HETATM   12  C   UNL     1      41.356 -15.539   3.808  1.00  0.00     0.236 C 
HETATM   13  O   UNL     1      41.281 -16.771   3.874  1.00  0.00    -0.272 OA
HETATM   14  N   UNL     1      40.198 -14.824   3.924  1.00  0.00    -0.311 N 
HETATM   15  H   UNL     1      39.402 -15.363   4.247  1.00  0.00     0.170 HD
ENDROOT
BRANCH   8  16
HETATM   16  C   UNL     1      40.975 -13.297   0.505  1.00  0.00    -0.029 A 
HETATM   17  C   UNL     1      40.769 -12.375  -0.576  1.00  0.00    -0.018 A 
HETATM   18  C   UNL     1      39.946 -12.774  -1.667  1.00  0.00    -0.025 A 
HETATM   19  C   UNL     1      41.329 -11.075  -0.659  1.00  0.00     0.013 A 
HETATM   20  C   UNL     1      39.690 -11.895  -2.732  1.00  0.00     0.012 A 
HETATM   21  C   UNL     1      39.381 -14.053  -1.701  1.00  0.00     0.012 A 
HETATM   22  C   UNL     1      40.237 -10.617  -2.759  1.00  0.00     0.001 A 
HETATM   23  C   UNL     1      41.063 -10.210  -1.725  1.00  0.00     0.001 A 
HETATM   24  C   UNL     1      39.605 -14.957  -0.673  1.00  0.00     0.002 A 
HETATM   25  C   UNL     1      40.385 -14.581   0.414  1.00  0.00     0.009 A 
ENDBRANCH   8  16
TORSDOF 1
ENDMDL
MODEL 9
REMARK VINA RESULT:      -7.0      8.524     10.380
REMARK  1 active torsions:
REMARK  status: ('A' for Active; 'I' for Inactive)
REMARK    1  A    between atoms: C_8  and  C_9 
ROOT
HETATM    1  C   UNL     1      40.512  -7.177   7.879  1.00  0.00     0.073 C 
HETATM    2  C   UNL     1      39.822  -7.466   9.162  1.00  0.00     0.062 C 
HETATM    3  N   UNL     1      38.598  -8.004   9.123  1.00  0.00    -0.178 NA
HETATM    4  N   UNL     1      38.275  -8.166  10.409  1.00  0.00    -0.262 N 
HETATM    5  H   UNL     1      37.375  -8.577  10.626  1.00  0.00     0.191 HD
HETATM    6  C   UNL     1      39.181  -7.613  11.269  1.00  0.00     0.134 C 
HETATM    7  C   UNL     1      40.282  -7.266  10.508  1.00  0.00     0.032 C 
HETATM    8  C   UNL     1      41.655  -6.844  10.935  1.00  0.00     0.120 C 
HETATM    9  S   UNL     1      41.844  -5.628  12.276  1.00  0.00    -0.141 SA
HETATM   10  C   UNL     1      40.166  -5.356  12.910  1.00  0.00     0.136 C 
HETATM   11  C   UNL     1      39.292  -4.486  12.012  1.00  0.00     0.031 C 
HETATM   12  C   UNL     1      39.478  -6.606  13.453  1.00  0.00     0.236 C 
HETATM   13  O   UNL     1      39.316  -6.767  14.667  1.00  0.00    -0.272 OA
HETATM   14  N   UNL     1      38.921  -7.524  12.609  1.00  0.00    -0.311 N 
HETATM   15  H   UNL     1      38.258  -8.153  13.051  1.00  0.00     0.170 HD
ENDROOT
BRANCH   8  16
HETATM   16  C   UNL     1      42.425  -8.148  11.212  1.00  0.00    -0.029 A 
HETATM   17  C   UNL     1      43.512  -8.598  10.388  1.00  0.00    -0.018 A 
HETATM   18  C   UNL     1      44.117  -9.853  10.682  1.00  0.00    -0.025 A 
HETATM   19  C   UNL     1      44.051  -7.887   9.287  1.00  0.00     0.013 A 
HETATM   20  C   UNL     1      45.162 -10.350   9.885  1.00  0.00     0.012 A 
HETATM   21  C   UNL     1      43.685 -10.613  11.774  1.00  0.00     0.012 A 
HETATM   22  C   UNL     1      45.641  -9.631   8.796  1.00  0.00     0.001 A 
HETATM   23  C   UNL     1      45.090  -8.395   8.501  1.00  0.00     0.001 A 
HETATM   24  C   UNL     1      42.658 -10.164  12.590  1.00  0.00     0.002 A 
HETATM   25  C   UNL     1      42.035  -8.954  12.309  1.00  0.00     0.009 A 
ENDBRANCH   8  16
TORSDOF 1
ENDMDL
MODEL 10
REMARK VINA RESULT:      -6.8      2.897      5.353
REMARK  1 active torsions:
REMARK  status: ('A' for Active; 'I' for Inactive)
REMARK    1  A    between atoms: C_8  and  C_9 
ROOT
HETATM    1  C   UNL     1      43.353 -15.045   3.819  1.00  0.00     0.073 C 
HETATM    2  C   UNL     1      41.910 -14.760   3.619  1.00  0.00     0.062 C 
HETATM    3  N   UNL     1      41.027 -15.740   3.842  1.00  0.00    -0.178 NA
HETATM    4  N   UNL     1      39.843 -15.167   3.608  1.00  0.00    -0.262 N 
HETATM    5  H   UNL     1      39.010 -15.731   3.728  1.00  0.00     0.191 HD
HETATM    6  C   UNL     1      39.943 -13.904   3.098  1.00  0.00     0.134 C 
HETATM    7  C   UNL     1      41.271 -13.538   3.217  1.00  0.00     0.032 C 
HETATM    8  C   UNL     1      41.921 -12.199   3.046  1.00  0.00     0.120 C 
HETATM    9  S   UNL     1      41.466 -11.155   1.625  1.00  0.00    -0.141 SA
HETATM   10  C   UNL     1      40.095 -12.026   0.816  1.00  0.00     0.136 C 
HETATM   11  C   UNL     1      40.522 -13.245   0.005  1.00  0.00     0.031 C 
HETATM   12  C   UNL     1      38.868 -12.244   1.698  1.00  0.00     0.236 C 
HETATM   13  O   UNL     1      37.833 -11.594   1.520  1.00  0.00    -0.272 OA
HETATM   14  N   UNL     1      38.841 -13.241   2.631  1.00  0.00    -0.311 N 
HETATM   15  H   UNL     1      37.913 -13.485   2.959  1.00  0.00     0.170 HD
ENDROOT
BRANCH   8  16
HETATM   16  C   UNL     1      41.738 -11.471   4.391  1.00  0.00    -0.029 A 
HETATM   17  C   UNL     1      42.811 -11.290   5.328  1.00  0.00    -0.018 A 
HETATM   18  C   UNL     1      42.530 -10.668   6.577  1.00  0.00    -0.025 A 
HETATM   19  C   UNL     1      44.157 -11.681   5.114  1.00  0.00     0.013 A 
HETATM   20  C   UNL     1      43.540 -10.498   7.538  1.00  0.00     0.012 A 
HETATM   21  C   UNL     1      41.241 -10.207   6.868  1.00  0.00     0.012 A 
HETATM   22  C   UNL     1      44.842 -10.923   7.297  1.00  0.00     0.001 A 
HETATM   23  C   UNL     1      45.152 -11.508   6.081  1.00  0.00     0.001 A 
HETATM   24  C   UNL     1      40.211 -10.351   5.950  1.00  0.00     0.002 A 
HETATM   25  C   UNL     1      40.456 -10.978   4.735  1.00  0.00     0.009 A 
ENDBRANCH   8  16
TORSDOF 1
ENDMDL
