MODEL 1
REMARK VINA RESULT:      -6.9      0.000      0.000
REMARK  8 active torsions:
REMARK  status: ('A' for Active; 'I' for Inactive)
REMARK    1  A    between atoms: C_4  and  C_5 
REMARK    2  A    between atoms: C_5  and  N_6 
REMARK    3  A    between atoms: N_6  and  C_9 
REMARK    4  A    between atoms: C_9  and  C_10 
REMARK    5  A    between atoms: C_10  and  C_11 
REMARK    6  A    between atoms: C_11  and  C_12 
REMARK    7  A    between atoms: C_17  and  O_18 
REMARK    8  A    between atoms: C_21  and  O_22 
ROOT
HETATM    1  C   UNL     1      40.917 -16.206   2.281  1.00  0.00     0.010 A 
HETATM    2  N   UNL     1      40.929 -15.779   3.589  1.00  0.00    -0.359 N 
HETATM    3  H   UNL     1      40.296 -15.106   3.999  1.00  0.00     0.166 HD
HETATM    4  C   UNL     1      41.957 -16.375   4.281  1.00  0.00     0.048 A 
HETATM    5  C   UNL     1      42.622 -17.223   3.399  1.00  0.00     0.026 A 
HETATM    6  C   UNL     1      43.735 -17.966   3.854  1.00  0.00     0.083 A 
HETATM    7  C   UNL     1      44.137 -17.810   5.194  1.00  0.00     0.074 A 
HETATM    8  C   UNL     1      43.462 -16.942   6.057  1.00  0.00     0.073 A 
HETATM    9  C   UNL     1      42.351 -16.219   5.612  1.00  0.00     0.067 A 
HETATM   10  C   UNL     1      41.955 -17.107   2.144  1.00  0.00     0.041 A 
ENDROOT
BRANCH   1  11
HETATM   11  C   UNL     1      39.943 -15.687   1.283  1.00  0.00     0.059 C 
BRANCH  11  12
HETATM   12  C   UNL     1      40.541 -14.554   0.444  1.00  0.00     0.033 C 
BRANCH  12  13
HETATM   13  C   UNL     1      40.050 -13.176   0.875  1.00  0.00     0.233 C 
BRANCH  13  14
HETATM   14  N   UNL     1      41.153 -12.422   1.542  1.00  0.00    -0.067 N 
HETATM   15  H   UNL     1      41.465 -11.669   0.912  1.00  0.00     0.277 HD
HETATM   16  H   UNL     1      41.983 -13.013   1.677  1.00  0.00     0.277 HD
BRANCH  14  17
HETATM   17  C   UNL     1      40.839 -11.779   2.867  1.00  0.00     0.223 C 
HETATM   18  C   UNL     1      39.674 -12.506   3.536  1.00  0.00     0.046 C 
BRANCH  17  19
HETATM   19  C   UNL     1      42.048 -11.770   3.752  1.00  0.00     0.032 A 
HETATM   20  S   UNL     1      42.019 -12.407   5.351  1.00  0.00    -0.076 SA
HETATM   21  C   UNL     1      43.675 -11.993   5.544  1.00  0.00     0.071 A 
HETATM   22  C   UNL     1      44.395 -12.284   6.816  1.00  0.00     0.078 C 
HETATM   23  N   UNL     1      44.230 -11.424   4.497  1.00  0.00    -0.257 NA
HETATM   24  C   UNL     1      43.310 -11.282   3.483  1.00  0.00     0.134 A 
ENDBRANCH  17  19
ENDBRANCH  14  17
ENDBRANCH  13  14
ENDBRANCH  12  13
ENDBRANCH  11  12
ENDBRANCH   1  11
BRANCH   6  25
HETATM   25  O   UNL     1      44.340 -18.789   2.939  1.00  0.00    -0.355 OA
HETATM   26  C   UNL     1      43.845 -20.117   2.829  1.00  0.00     0.210 C 
ENDBRANCH   6  25
BRANCH   8  27
HETATM   27  O   UNL     1      43.778 -16.713   7.371  1.00  0.00    -0.356 OA
HETATM   28  C   UNL     1      43.093 -15.654   8.029  1.00  0.00     0.210 C 
ENDBRANCH   8  27
TORSDOF 8
ENDMDL
MODEL 2
REMARK VINA RESULT:      -6.9      3.651      7.626
REMARK  8 active torsions:
REMARK  status: ('A' for Active; 'I' for Inactive)
REMARK    1  A    between atoms: C_4  and  C_5 
REMARK    2  A    between atoms: C_5  and  N_6 
REMARK    3  A    between atoms: N_6  and  C_9 
REMARK    4  A    between atoms: C_9  and  C_10 
REMARK    5  A    between atoms: C_10  and  C_11 
REMARK    6  A    between atoms: C_11  and  C_12 
REMARK    7  A    between atoms: C_17  and  O_18 
REMARK    8  A    between atoms: C_21  and  O_22 
ROOT
HETATM    1  C   UNL     1      40.386 -14.916   2.135  1.00  0.00     0.010 A 
HETATM    2  N   UNL     1      39.818 -15.440   0.997  1.00  0.00    -0.359 N 
HETATM    3  H   UNL     1      39.412 -16.362   0.907  1.00  0.00     0.166 HD
HETATM    4  C   UNL     1      39.902 -14.542  -0.041  1.00  0.00     0.048 A 
HETATM    5  C   UNL     1      40.529 -13.397   0.442  1.00  0.00     0.026 A 
HETATM    6  C   UNL     1      40.747 -12.303  -0.427  1.00  0.00     0.083 A 
HETATM    7  C   UNL     1      40.325 -12.421  -1.764  1.00  0.00     0.074 A 
HETATM    8  C   UNL     1      39.709 -13.586  -2.231  1.00  0.00     0.073 A 
HETATM    9  C   UNL     1      39.478 -14.662  -1.367  1.00  0.00     0.067 A 
HETATM   10  C   UNL     1      40.827 -13.646   1.814  1.00  0.00     0.041 A 
ENDROOT
BRANCH   1  11
HETATM   11  C   UNL     1      40.486 -15.687   3.403  1.00  0.00     0.059 C 
BRANCH  11  12
HETATM   12  C   UNL     1      40.959 -14.808   4.564  1.00  0.00     0.033 C 
BRANCH  12  13
HETATM   13  C   UNL     1      41.867 -15.552   5.538  1.00  0.00     0.233 C 
BRANCH  13  14
HETATM   14  N   UNL     1      43.195 -15.815   4.906  1.00  0.00    -0.067 N 
HETATM   15  H   UNL     1      43.759 -14.954   4.957  1.00  0.00     0.277 HD
HETATM   16  H   UNL     1      43.099 -16.007   3.900  1.00  0.00     0.277 HD
BRANCH  14  17
HETATM   17  C   UNL     1      44.029 -16.919   5.497  1.00  0.00     0.223 C 
HETATM   18  C   UNL     1      43.564 -17.216   6.923  1.00  0.00     0.046 C 
BRANCH  17  19
HETATM   19  C   UNL     1      43.966 -18.148   4.643  1.00  0.00     0.032 A 
HETATM   20  S   UNL     1      43.536 -18.086   2.977  1.00  0.00    -0.076 SA
HETATM   21  C   UNL     1      43.719 -19.791   2.868  1.00  0.00     0.071 A 
HETATM   22  C   UNL     1      43.486 -20.507   1.582  1.00  0.00     0.078 C 
HETATM   23  N   UNL     1      44.082 -20.381   3.985  1.00  0.00    -0.257 NA
HETATM   24  C   UNL     1      44.209 -19.458   4.999  1.00  0.00     0.134 A 
ENDBRANCH  17  19
ENDBRANCH  14  17
ENDBRANCH  13  14
ENDBRANCH  12  13
ENDBRANCH  11  12
ENDBRANCH   1  11
BRANCH   6  25
HETATM   25  O   UNL     1      41.362 -11.203   0.113  1.00  0.00    -0.355 OA
HETATM   26  C   UNL     1      40.534 -10.103   0.470  1.00  0.00     0.210 C 
ENDBRANCH   6  25
BRANCH   8  27
HETATM   27  O   UNL     1      39.271 -13.804  -3.511  1.00  0.00    -0.356 OA
HETATM   28  C   UNL     1      38.211 -14.736  -3.685  1.00  0.00     0.210 C 
ENDBRANCH   8  27
TORSDOF 8
ENDMDL
MODEL 3
REMARK VINA RESULT:      -6.7      3.848      6.156
REMARK  8 active torsions:
REMARK  status: ('A' for Active; 'I' for Inactive)
REMARK    1  A    between atoms: C_4  and  C_5 
REMARK    2  A    between atoms: C_5  and  N_6 
REMARK    3  A    between atoms: N_6  and  C_9 
REMARK    4  A    between atoms: C_9  and  C_10 
REMARK    5  A    between atoms: C_10  and  C_11 
REMARK    6  A    between atoms: C_11  and  C_12 
REMARK    7  A    between atoms: C_17  and  O_18 
REMARK    8  A    between atoms: C_21  and  O_22 
ROOT
HETATM    1  C   UNL     1      43.445 -14.597   5.800  1.00  0.00     0.010 A 
HETATM    2  N   UNL     1      43.943 -15.871   5.944  1.00  0.00    -0.359 N 
HETATM    3  H   UNL     1      44.453 -16.221   6.744  1.00  0.00     0.166 HD
HETATM    4  C   UNL     1      43.682 -16.621   4.821  1.00  0.00     0.048 A 
HETATM    5  C   UNL     1      42.981 -15.813   3.930  1.00  0.00     0.026 A 
HETATM    6  C   UNL     1      42.584 -16.339   2.678  1.00  0.00     0.083 A 
HETATM    7  C   UNL     1      42.926 -17.671   2.378  1.00  0.00     0.074 A 
HETATM    8  C   UNL     1      43.642 -18.458   3.284  1.00  0.00     0.073 A 
HETATM    9  C   UNL     1      44.020 -17.944   4.528  1.00  0.00     0.067 A 
HETATM   10  C   UNL     1      42.838 -14.542   4.560  1.00  0.00     0.041 A 
ENDROOT
BRANCH   1  11
HETATM   11  C   UNL     1      43.626 -13.548   6.839  1.00  0.00     0.059 C 
BRANCH  11  12
HETATM   12  C   UNL     1      44.193 -12.255   6.245  1.00  0.00     0.033 C 
BRANCH  12  13
HETATM   13  C   UNL     1      45.071 -11.488   7.228  1.00  0.00     0.233 C 
BRANCH  13  14
HETATM   14  N   UNL     1      44.259 -11.030   8.396  1.00  0.00    -0.067 N 
HETATM   15  H   UNL     1      43.939 -11.858   8.919  1.00  0.00     0.277 HD
HETATM   16  H   UNL     1      43.396 -10.562   8.091  1.00  0.00     0.277 HD
BRANCH  14  17
HETATM   17  C   UNL     1      44.936 -10.123   9.388  1.00  0.00     0.223 C 
HETATM   18  C   UNL     1      45.219  -8.766   8.744  1.00  0.00     0.046 C 
BRANCH  17  19
HETATM   19  C   UNL     1      44.102  -9.970  10.623  1.00  0.00     0.032 A 
HETATM   20  S   UNL     1      43.453  -8.452  11.110  1.00  0.00    -0.076 SA
HETATM   21  C   UNL     1      42.732  -9.200  12.478  1.00  0.00     0.071 A 
HETATM   22  C   UNL     1      41.925  -8.409  13.449  1.00  0.00     0.078 C 
HETATM   23  N   UNL     1      42.944 -10.494  12.577  1.00  0.00    -0.257 NA
HETATM   24  C   UNL     1      43.731 -10.934  11.538  1.00  0.00     0.134 A 
ENDBRANCH  17  19
ENDBRANCH  14  17
ENDBRANCH  13  14
ENDBRANCH  12  13
ENDBRANCH  11  12
ENDBRANCH   1  11
BRANCH   6  25
HETATM   25  O   UNL     1      41.890 -15.495   1.850  1.00  0.00    -0.355 OA
HETATM   26  C   UNL     1      40.482 -15.674   1.768  1.00  0.00     0.210 C 
ENDBRANCH   6  25
BRANCH   8  27
HETATM   27  O   UNL     1      44.029 -19.757   3.084  1.00  0.00    -0.356 OA
HETATM   28  C   UNL     1      43.579 -20.395   1.895  1.00  0.00     0.210 C 
ENDBRANCH   8  27
TORSDOF 8
ENDMDL
MODEL 4
REMARK VINA RESULT:      -6.7      1.285      2.663
REMARK  8 active torsions:
REMARK  status: ('A' for Active; 'I' for Inactive)
REMARK    1  A    between atoms: C_4  and  C_5 
REMARK    2  A    between atoms: C_5  and  N_6 
REMARK    3  A    between atoms: N_6  and  C_9 
REMARK    4  A    between atoms: C_9  and  C_10 
REMARK    5  A    between atoms: C_10  and  C_11 
REMARK    6  A    between atoms: C_11  and  C_12 
REMARK    7  A    between atoms: C_17  and  O_18 
REMARK    8  A    between atoms: C_21  and  O_22 
ROOT
HETATM    1  C   UNL     1      42.244 -14.924   2.171  1.00  0.00     0.010 A 
HETATM    2  N   UNL     1      42.487 -16.227   1.803  1.00  0.00    -0.359 N 
HETATM    3  H   UNL     1      42.265 -16.643   0.909  1.00  0.00     0.166 HD
HETATM    4  C   UNL     1      43.057 -16.923   2.844  1.00  0.00     0.048 A 
HETATM    5  C   UNL     1      43.200 -16.041   3.911  1.00  0.00     0.026 A 
HETATM    6  C   UNL     1      43.764 -16.502   5.123  1.00  0.00     0.083 A 
HETATM    7  C   UNL     1      44.153 -17.852   5.206  1.00  0.00     0.074 A 
HETATM    8  C   UNL     1      43.987 -18.722   4.125  1.00  0.00     0.073 A 
HETATM    9  C   UNL     1      43.445 -18.263   2.920  1.00  0.00     0.067 A 
HETATM   10  C   UNL     1      42.686 -14.786   3.472  1.00  0.00     0.041 A 
ENDROOT
BRANCH   1  11
HETATM   11  C   UNL     1      41.584 -13.950   1.261  1.00  0.00     0.059 C 
BRANCH  11  12
HETATM   12  C   UNL     1      40.058 -14.019   1.368  1.00  0.00     0.033 C 
BRANCH  12  13
HETATM   13  C   UNL     1      39.439 -12.713   1.854  1.00  0.00     0.233 C 
BRANCH  13  14
HETATM   14  N   UNL     1      40.508 -11.776   2.313  1.00  0.00    -0.067 N 
HETATM   15  H   UNL     1      40.406 -10.886   1.804  1.00  0.00     0.277 HD
HETATM   16  H   UNL     1      41.442 -12.120   2.056  1.00  0.00     0.277 HD
BRANCH  14  17
HETATM   17  C   UNL     1      40.541 -11.438   3.779  1.00  0.00     0.223 C 
HETATM   18  C   UNL     1      39.633 -12.393   4.554  1.00  0.00     0.046 C 
BRANCH  17  19
HETATM   19  C   UNL     1      41.943 -11.484   4.303  1.00  0.00     0.032 A 
HETATM   20  S   UNL     1      42.303 -11.930   5.926  1.00  0.00    -0.076 SA
HETATM   21  C   UNL     1      43.978 -11.708   5.615  1.00  0.00     0.071 A 
HETATM   22  C   UNL     1      44.994 -11.945   6.680  1.00  0.00     0.078 C 
HETATM   23  N   UNL     1      44.268 -11.334   4.389  1.00  0.00    -0.257 NA
HETATM   24  C   UNL     1      43.120 -11.191   3.644  1.00  0.00     0.134 A 
ENDBRANCH  17  19
ENDBRANCH  14  17
ENDBRANCH  13  14
ENDBRANCH  12  13
ENDBRANCH  11  12
ENDBRANCH   1  11
BRANCH   6  25
HETATM   25  O   UNL     1      43.886 -15.582   6.133  1.00  0.00    -0.355 OA
HETATM   26  C   UNL     1      42.964 -15.672   7.212  1.00  0.00     0.210 C 
ENDBRANCH   6  25
BRANCH   8  27
HETATM   27  O   UNL     1      44.324 -20.050   4.106  1.00  0.00    -0.356 OA
HETATM   28  C   UNL     1      44.133 -20.786   5.309  1.00  0.00     0.210 C 
ENDBRANCH   8  27
TORSDOF 8
ENDMDL
MODEL 5
REMARK VINA RESULT:      -6.6     14.907     17.075
REMARK  8 active torsions:
REMARK  status: ('A' for Active; 'I' for Inactive)
REMARK    1  A    between atoms: C_4  and  C_5 
REMARK    2  A    between atoms: C_5  and  N_6 
REMARK    3  A    between atoms: N_6  and  C_9 
REMARK    4  A    between atoms: C_9  and  C_10 
REMARK    5  A    between atoms: C_10  and  C_11 
REMARK    6  A    between atoms: C_11  and  C_12 
REMARK    7  A    between atoms: C_17  and  O_18 
REMARK    8  A    between atoms: C_21  and  O_22 
ROOT
HETATM    1  C   UNL     1      47.535 -28.535   2.227  1.00  0.00     0.010 A 
HETATM    2  N   UNL     1      47.763 -28.009   0.977  1.00  0.00    -0.359 N 
HETATM    3  H   UNL     1      48.598 -27.521   0.681  1.00  0.00     0.166 HD
HETATM    4  C   UNL     1      46.670 -28.205   0.164  1.00  0.00     0.048 A 
HETATM    5  C   UNL     1      45.713 -28.892   0.906  1.00  0.00     0.026 A 
HETATM    6  C   UNL     1      44.476 -29.225   0.307  1.00  0.00     0.083 A 
HETATM    7  C   UNL     1      44.257 -28.836  -1.028  1.00  0.00     0.074 A 
HETATM    8  C   UNL     1      45.228 -28.135  -1.748  1.00  0.00     0.073 A 
HETATM    9  C   UNL     1      46.458 -27.820  -1.162  1.00  0.00     0.067 A 
HETATM   10  C   UNL     1      46.272 -29.094   2.202  1.00  0.00     0.041 A 
ENDROOT
BRANCH   1  11
HETATM   11  C   UNL     1      48.525 -28.423   3.331  1.00  0.00     0.059 C 
BRANCH  11  12
HETATM   12  C   UNL     1      48.916 -29.797   3.883  1.00  0.00     0.033 C 
BRANCH  12  13
HETATM   13  C   UNL     1      50.362 -30.169   3.575  1.00  0.00     0.233 C 
BRANCH  13  14
HETATM   14  N   UNL     1      50.710 -29.769   2.178  1.00  0.00    -0.067 N 
HETATM   15  H   UNL     1      51.570 -29.201   2.204  1.00  0.00     0.277 HD
HETATM   16  H   UNL     1      49.996 -29.147   1.778  1.00  0.00     0.277 HD
BRANCH  14  17
HETATM   17  C   UNL     1      50.949 -30.876   1.187  1.00  0.00     0.223 C 
HETATM   18  C   UNL     1      50.941 -32.226   1.902  1.00  0.00     0.046 C 
BRANCH  17  19
HETATM   19  C   UNL     1      49.924 -30.839   0.094  1.00  0.00     0.032 A 
HETATM   20  S   UNL     1      48.471 -31.759   0.167  1.00  0.00    -0.076 SA
HETATM   21  C   UNL     1      47.999 -31.132  -1.361  1.00  0.00     0.071 A 
HETATM   22  C   UNL     1      46.707 -31.531  -1.988  1.00  0.00     0.078 C 
HETATM   23  N   UNL     1      48.850 -30.288  -1.900  1.00  0.00    -0.257 NA
HETATM   24  C   UNL     1      49.950 -30.128  -1.088  1.00  0.00     0.134 A 
ENDBRANCH  17  19
ENDBRANCH  14  17
ENDBRANCH  13  14
ENDBRANCH  12  13
ENDBRANCH  11  12
ENDBRANCH   1  11
BRANCH   6  25
HETATM   25  O   UNL     1      43.580 -29.909   1.088  1.00  0.00    -0.355 OA
HETATM   26  C   UNL     1      42.423 -29.205   1.521  1.00  0.00     0.210 C 
ENDBRANCH   6  25
BRANCH   8  27
HETATM   27  O   UNL     1      45.109 -27.705  -3.044  1.00  0.00    -0.356 OA
HETATM   28  C   UNL     1      45.074 -28.701  -4.059  1.00  0.00     0.210 C 
ENDBRANCH   8  27
TORSDOF 8
ENDMDL
MODEL 6
REMARK VINA RESULT:      -6.5      2.726      5.222
REMARK  8 active torsions:
REMARK  status: ('A' for Active; 'I' for Inactive)
REMARK    1  A    between atoms: C_4  and  C_5 
REMARK    2  A    between atoms: C_5  and  N_6 
REMARK    3  A    between atoms: N_6  and  C_9 
REMARK    4  A    between atoms: C_9  and  C_10 
REMARK    5  A    between atoms: C_10  and  C_11 
REMARK    6  A    between atoms: C_11  and  C_12 
REMARK    7  A    between atoms: C_17  and  O_18 
REMARK    8  A    between atoms: C_21  and  O_22 
ROOT
HETATM    1  C   UNL     1      42.139 -14.371   2.714  1.00  0.00     0.010 A 
HETATM    2  N   UNL     1      42.191 -15.524   1.967  1.00  0.00    -0.359 N 
HETATM    3  H   UNL     1      41.800 -15.651   1.043  1.00  0.00     0.166 HD
HETATM    4  C   UNL     1      42.832 -16.522   2.664  1.00  0.00     0.048 A 
HETATM    5  C   UNL     1      43.219 -15.995   3.893  1.00  0.00     0.026 A 
HETATM    6  C   UNL     1      43.903 -16.816   4.818  1.00  0.00     0.083 A 
HETATM    7  C   UNL     1      44.159 -18.153   4.459  1.00  0.00     0.074 A 
HETATM    8  C   UNL     1      43.750 -18.663   3.224  1.00  0.00     0.073 A 
HETATM    9  C   UNL     1      43.087 -17.847   2.301  1.00  0.00     0.067 A 
HETATM   10  C   UNL     1      42.778 -14.639   3.910  1.00  0.00     0.041 A 
ENDROOT
BRANCH   1  11
HETATM   11  C   UNL     1      41.457 -13.139   2.233  1.00  0.00     0.059 C 
BRANCH  11  12
HETATM   12  C   UNL     1      42.344 -11.901   2.393  1.00  0.00     0.033 C 
BRANCH  12  13
HETATM   13  C   UNL     1      41.784 -10.676   1.678  1.00  0.00     0.233 C 
BRANCH  13  14
HETATM   14  N   UNL     1      40.563 -11.046   0.901  1.00  0.00    -0.067 N 
HETATM   15  H   UNL     1      39.740 -10.632   1.363  1.00  0.00     0.277 HD
HETATM   16  H   UNL     1      40.396 -12.061   0.927  1.00  0.00     0.277 HD
BRANCH  14  17
HETATM   17  C   UNL     1      40.512 -10.620  -0.542  1.00  0.00     0.223 C 
HETATM   18  C   UNL     1      41.806  -9.897  -0.916  1.00  0.00     0.046 C 
BRANCH  17  19
HETATM   19  C   UNL     1      40.276 -11.798  -1.436  1.00  0.00     0.032 A 
HETATM   20  S   UNL     1      39.000 -12.920  -1.157  1.00  0.00    -0.076 SA
HETATM   21  C   UNL     1      39.484 -13.812  -2.543  1.00  0.00     0.071 A 
HETATM   22  C   UNL     1      38.750 -15.041  -2.958  1.00  0.00     0.078 C 
HETATM   23  N   UNL     1      40.519 -13.319  -3.186  1.00  0.00    -0.257 NA
HETATM   24  C   UNL     1      40.982 -12.186  -2.556  1.00  0.00     0.134 A 
ENDBRANCH  17  19
ENDBRANCH  14  17
ENDBRANCH  13  14
ENDBRANCH  12  13
ENDBRANCH  11  12
ENDBRANCH   1  11
BRANCH   6  25
HETATM   25  O   UNL     1      44.263 -16.235   6.006  1.00  0.00    -0.355 OA
HETATM   26  C   UNL     1      43.510 -16.587   7.160  1.00  0.00     0.210 C 
ENDBRANCH   6  25
BRANCH   8  27
HETATM   27  O   UNL     1      43.942 -19.947   2.784  1.00  0.00    -0.356 OA
HETATM   28  C   UNL     1      43.877 -20.984   3.755  1.00  0.00     0.210 C 
ENDBRANCH   8  27
TORSDOF 8
ENDMDL
MODEL 7
REMARK VINA RESULT:      -6.4      2.893      4.527
REMARK  8 active torsions:
REMARK  status: ('A' for Active; 'I' for Inactive)
REMARK    1  A    between atoms: C_4  and  C_5 
REMARK    2  A    between atoms: C_5  and  N_6 
REMARK    3  A    between atoms: N_6  and  C_9 
REMARK    4  A    between atoms: C_9  and  C_10 
REMARK    5  A    between atoms: C_10  and  C_11 
REMARK    6  A    between atoms: C_11  and  C_12 
REMARK    7  A    between atoms: C_17  and  O_18 
REMARK    8  A    between atoms: C_21  and  O_22 
ROOT
HETATM    1  C   UNL     1      40.948 -15.459   2.895  1.00  0.00     0.010 A 
HETATM    2  N   UNL     1      41.819 -16.421   2.440  1.00  0.00    -0.359 N 
HETATM    3  H   UNL     1      41.975 -16.670   1.472  1.00  0.00     0.166 HD
HETATM    4  C   UNL     1      42.444 -17.044   3.494  1.00  0.00     0.048 A 
HETATM    5  C   UNL     1      41.976 -16.456   4.667  1.00  0.00     0.026 A 
HETATM    6  C   UNL     1      42.458 -16.913   5.915  1.00  0.00     0.083 A 
HETATM    7  C   UNL     1      43.397 -17.962   5.922  1.00  0.00     0.074 A 
HETATM    8  C   UNL     1      43.843 -18.545   4.733  1.00  0.00     0.073 A 
HETATM    9  C   UNL     1      43.378 -18.083   3.497  1.00  0.00     0.067 A 
HETATM   10  C   UNL     1      41.036 -15.460   4.274  1.00  0.00     0.041 A 
ENDROOT
BRANCH   1  11
HETATM   11  C   UNL     1      40.093 -14.659   1.976  1.00  0.00     0.059 C 
BRANCH  11  12
HETATM   12  C   UNL     1      40.835 -14.293   0.688  1.00  0.00     0.033 C 
BRANCH  12  13
HETATM   13  C   UNL     1      39.929 -14.302  -0.539  1.00  0.00     0.233 C 
BRANCH  13  14
HETATM   14  N   UNL     1      40.499 -13.425  -1.606  1.00  0.00    -0.067 N 
HETATM   15  H   UNL     1      40.459 -13.930  -2.503  1.00  0.00     0.277 HD
HETATM   16  H   UNL     1      41.499 -13.245  -1.448  1.00  0.00     0.277 HD
BRANCH  14  17
HETATM   17  C   UNL     1      39.832 -12.093  -1.827  1.00  0.00     0.223 C 
HETATM   18  C   UNL     1      38.470 -12.071  -1.134  1.00  0.00     0.046 C 
BRANCH  17  19
HETATM   19  C   UNL     1      40.703 -10.977  -1.338  1.00  0.00     0.032 A 
HETATM   20  S   UNL     1      41.230  -9.704  -2.371  1.00  0.00    -0.076 SA
HETATM   21  C   UNL     1      42.081  -8.993  -1.059  1.00  0.00     0.071 A 
HETATM   22  C   UNL     1      42.848  -7.728  -1.238  1.00  0.00     0.078 C 
HETATM   23  N   UNL     1      41.985  -9.642   0.080  1.00  0.00    -0.257 NA
HETATM   24  C   UNL     1      41.218 -10.775  -0.074  1.00  0.00     0.134 A 
ENDBRANCH  17  19
ENDBRANCH  14  17
ENDBRANCH  13  14
ENDBRANCH  12  13
ENDBRANCH  11  12
ENDBRANCH   1  11
BRANCH   6  25
HETATM   25  O   UNL     1      41.964 -16.289   7.031  1.00  0.00    -0.355 OA
HETATM   26  C   UNL     1      42.832 -15.394   7.716  1.00  0.00     0.210 C 
ENDBRANCH   6  25
BRANCH   8  27
HETATM   27  O   UNL     1      44.744 -19.573   4.632  1.00  0.00    -0.356 OA
HETATM   28  C   UNL     1      44.406 -20.798   5.271  1.00  0.00     0.210 C 
ENDBRANCH   8  27
TORSDOF 8
ENDMDL
MODEL 8
REMARK VINA RESULT:      -6.4      2.279      3.995
REMARK  8 active torsions:
REMARK  status: ('A' for Active; 'I' for Inactive)
REMARK    1  A    between atoms: C_4  and  C_5 
REMARK    2  A    between atoms: C_5  and  N_6 
REMARK    3  A    between atoms: N_6  and  C_9 
REMARK    4  A    between atoms: C_9  and  C_10 
REMARK    5  A    between atoms: C_10  and  C_11 
REMARK    6  A    between atoms: C_11  and  C_12 
REMARK    7  A    between atoms: C_17  and  O_18 
REMARK    8  A    between atoms: C_21  and  O_22 
ROOT
HETATM    1  C   UNL     1      40.919 -14.786   3.743  1.00  0.00     0.010 A 
HETATM    2  N   UNL     1      41.475 -15.518   2.720  1.00  0.00    -0.359 N 
HETATM    3  H   UNL     1      41.324 -15.366   1.732  1.00  0.00     0.166 HD
HETATM    4  C   UNL     1      42.257 -16.531   3.222  1.00  0.00     0.048 A 
HETATM    5  C   UNL     1      42.219 -16.444   4.611  1.00  0.00     0.026 A 
HETATM    6  C   UNL     1      42.943 -17.378   5.387  1.00  0.00     0.083 A 
HETATM    7  C   UNL     1      43.674 -18.376   4.716  1.00  0.00     0.074 A 
HETATM    8  C   UNL     1      43.687 -18.452   3.321  1.00  0.00     0.073 A 
HETATM    9  C   UNL     1      42.984 -17.519   2.552  1.00  0.00     0.067 A 
HETATM   10  C   UNL     1      41.375 -15.339   4.925  1.00  0.00     0.041 A 
ENDROOT
BRANCH   1  11
HETATM   11  C   UNL     1      39.983 -13.656   3.498  1.00  0.00     0.059 C 
BRANCH  11  12
HETATM   12  C   UNL     1      40.542 -12.332   4.028  1.00  0.00     0.033 C 
BRANCH  12  13
HETATM   13  C   UNL     1      39.945 -11.935   5.373  1.00  0.00     0.233 C 
BRANCH  13  14
HETATM   14  N   UNL     1      41.028 -11.775   6.390  1.00  0.00    -0.067 N 
HETATM   15  H   UNL     1      41.702 -12.546   6.277  1.00  0.00     0.277 HD
HETATM   16  H   UNL     1      40.662 -11.882   7.345  1.00  0.00     0.277 HD
BRANCH  14  17
HETATM   17  C   UNL     1      41.819 -10.495   6.353  1.00  0.00     0.223 C 
HETATM   18  C   UNL     1      40.906  -9.308   6.659  1.00  0.00     0.046 C 
BRANCH  17  19
HETATM   19  C   UNL     1      42.967 -10.553   7.313  1.00  0.00     0.032 A 
HETATM   20  S   UNL     1      43.168  -9.399   8.575  1.00  0.00    -0.076 SA
HETATM   21  C   UNL     1      44.600 -10.203   9.081  1.00  0.00     0.071 A 
HETATM   22  C   UNL     1      45.386  -9.709  10.246  1.00  0.00     0.078 C 
HETATM   23  N   UNL     1      44.918 -11.265   8.374  1.00  0.00    -0.257 NA
HETATM   24  C   UNL     1      44.005 -11.461   7.362  1.00  0.00     0.134 A 
ENDBRANCH  17  19
ENDBRANCH  14  17
ENDBRANCH  13  14
ENDBRANCH  12  13
ENDBRANCH  11  12
ENDBRANCH   1  11
BRANCH   6  25
HETATM   25  O   UNL     1      42.871 -17.232   6.748  1.00  0.00    -0.355 OA
HETATM   26  C   UNL     1      44.010 -16.693   7.408  1.00  0.00     0.210 C 
ENDBRANCH   6  25
BRANCH   8  27
HETATM   27  O   UNL     1      44.357 -19.386   2.575  1.00  0.00    -0.356 OA
HETATM   28  C   UNL     1      43.576 -20.391   1.939  1.00  0.00     0.210 C 
ENDBRANCH   8  27
TORSDOF 8
ENDMDL
MODEL 9
REMARK VINA RESULT:      -6.3      3.360      5.815
REMARK  8 active torsions:
REMARK  status: ('A' for Active; 'I' for Inactive)
REMARK    1  A    between atoms: C_4  and  C_5 
REMARK    2  A    between atoms: C_5  and  N_6 
REMARK    3  A    between atoms: N_6  and  C_9 
REMARK    4  A    between atoms: C_9  and  C_10 
REMARK    5  A    between atoms: C_10  and  C_11 
REMARK    6  A    between atoms: C_11  and  C_12 
REMARK    7  A    between atoms: C_17  and  O_18 
REMARK    8  A    between atoms: C_21  and  O_22 
ROOT
HETATM    1  C   UNL     1      41.257 -15.346   3.122  1.00  0.00     0.010 A 
HETATM    2  N   UNL     1      42.074 -16.355   2.668  1.00  0.00    -0.359 N 
HETATM    3  H   UNL     1      42.242 -16.592   1.699  1.00  0.00     0.166 HD
HETATM    4  C   UNL     1      42.624 -17.043   3.724  1.00  0.00     0.048 A 
HETATM    5  C   UNL     1      42.162 -16.452   4.897  1.00  0.00     0.026 A 
HETATM    6  C   UNL     1      42.574 -16.970   6.146  1.00  0.00     0.083 A 
HETATM    7  C   UNL     1      43.439 -18.081   6.154  1.00  0.00     0.074 A 
HETATM    8  C   UNL     1      43.880 -18.665   4.963  1.00  0.00     0.073 A 
HETATM    9  C   UNL     1      43.485 -18.143   3.727  1.00  0.00     0.067 A 
HETATM   10  C   UNL     1      41.303 -15.384   4.502  1.00  0.00     0.041 A 
ENDROOT
BRANCH   1  11
HETATM   11  C   UNL     1      40.486 -14.469   2.200  1.00  0.00     0.059 C 
BRANCH  11  12
HETATM   12  C   UNL     1      40.674 -14.881   0.737  1.00  0.00     0.033 C 
BRANCH  12  13
HETATM   13  C   UNL     1      39.876 -14.013  -0.229  1.00  0.00     0.233 C 
BRANCH  13  14
HETATM   14  N   UNL     1      40.593 -13.902  -1.535  1.00  0.00    -0.067 N 
HETATM   15  H   UNL     1      41.222 -14.712  -1.635  1.00  0.00     0.277 HD
HETATM   16  H   UNL     1      41.214 -13.083  -1.552  1.00  0.00     0.277 HD
BRANCH  14  17
HETATM   17  C   UNL     1      39.747 -13.851  -2.779  1.00  0.00     0.223 C 
HETATM   18  C   UNL     1      38.834 -15.075  -2.839  1.00  0.00     0.046 C 
BRANCH  17  19
HETATM   19  C   UNL     1      38.952 -12.582  -2.828  1.00  0.00     0.032 A 
HETATM   20  S   UNL     1      37.249 -12.557  -2.580  1.00  0.00    -0.076 SA
HETATM   21  C   UNL     1      37.242 -10.854  -2.804  1.00  0.00     0.071 A 
HETATM   22  C   UNL     1      35.976 -10.073  -2.716  1.00  0.00     0.078 C 
HETATM   23  N   UNL     1      38.421 -10.322  -3.042  1.00  0.00    -0.257 NA
HETATM   24  C   UNL     1      39.392 -11.297  -3.071  1.00  0.00     0.134 A 
ENDBRANCH  17  19
ENDBRANCH  14  17
ENDBRANCH  13  14
ENDBRANCH  12  13
ENDBRANCH  11  12
ENDBRANCH   1  11
BRANCH   6  25
HETATM   25  O   UNL     1      42.090 -16.338   7.263  1.00  0.00    -0.355 OA
HETATM   26  C   UNL     1      42.946 -15.401   7.905  1.00  0.00     0.210 C 
ENDBRANCH   6  25
BRANCH   8  27
HETATM   27  O   UNL     1      44.712 -19.749   4.863  1.00  0.00    -0.356 OA
HETATM   28  C   UNL     1      44.101 -21.026   4.719  1.00  0.00     0.210 C 
ENDBRANCH   8  27
TORSDOF 8
ENDMDL
MODEL 10
REMARK VINA RESULT:      -6.3      1.965      4.680
REMARK  8 active torsions:
REMARK  status: ('A' for Active; 'I' for Inactive)
REMARK    1  A    between atoms: C_4  and  C_5 
REMARK    2  A    between atoms: C_5  and  N_6 
REMARK    3  A    between atoms: N_6  and  C_9 
REMARK    4  A    between atoms: C_9  and  C_10 
REMARK    5  A    between atoms: C_10  and  C_11 
REMARK    6  A    between atoms: C_11  and  C_12 
REMARK    7  A    between atoms: C_17  and  O_18 
REMARK    8  A    between atoms: C_21  and  O_22 
ROOT
HETATM    1  C   UNL     1      43.285 -14.911   5.876  1.00  0.00     0.010 A 
HETATM    2  N   UNL     1      43.890 -16.146   5.865  1.00  0.00    -0.359 N 
HETATM    3  H   UNL     1      44.469 -16.531   6.600  1.00  0.00     0.166 HD
HETATM    4  C   UNL     1      43.630 -16.800   4.683  1.00  0.00     0.048 A 
HETATM    5  C   UNL     1      42.820 -15.969   3.913  1.00  0.00     0.026 A 
HETATM    6  C   UNL     1      42.400 -16.399   2.633  1.00  0.00     0.083 A 
HETATM    7  C   UNL     1      42.830 -17.660   2.180  1.00  0.00     0.074 A 
HETATM    8  C   UNL     1      43.654 -18.471   2.966  1.00  0.00     0.073 A 
HETATM    9  C   UNL     1      44.056 -18.054   4.239  1.00  0.00     0.067 A 
HETATM   10  C   UNL     1      42.610 -14.785   4.677  1.00  0.00     0.041 A 
ENDROOT
BRANCH   1  11
HETATM   11  C   UNL     1      43.438 -13.960   7.010  1.00  0.00     0.059 C 
BRANCH  11  12
HETATM   12  C   UNL     1      44.363 -12.793   6.650  1.00  0.00     0.033 C 
BRANCH  12  13
HETATM   13  C   UNL     1      44.042 -11.521   7.427  1.00  0.00     0.233 C 
BRANCH  13  14
HETATM   14  N   UNL     1      43.331 -10.546   6.546  1.00  0.00    -0.067 N 
HETATM   15  H   UNL     1      43.686 -10.650   5.585  1.00  0.00     0.277 HD
HETATM   16  H   UNL     1      43.554  -9.577   6.806  1.00  0.00     0.277 HD
BRANCH  14  17
HETATM   17  C   UNL     1      41.831 -10.658   6.470  1.00  0.00     0.223 C 
HETATM   18  C   UNL     1      41.193  -9.295   6.740  1.00  0.00     0.046 C 
BRANCH  17  19
HETATM   19  C   UNL     1      41.406 -11.197   5.139  1.00  0.00     0.032 A 
HETATM   20  S   UNL     1      42.343 -10.968   3.714  1.00  0.00    -0.076 SA
HETATM   21  C   UNL     1      41.175 -11.842   2.807  1.00  0.00     0.071 A 
HETATM   22  C   UNL     1      41.351 -12.066   1.344  1.00  0.00     0.078 C 
HETATM   23  N   UNL     1      40.153 -12.288   3.503  1.00  0.00    -0.257 NA
HETATM   24  C   UNL     1      40.270 -11.914   4.823  1.00  0.00     0.134 A 
ENDBRANCH  17  19
ENDBRANCH  14  17
ENDBRANCH  13  14
ENDBRANCH  12  13
ENDBRANCH  11  12
ENDBRANCH   1  11
BRANCH   6  25
HETATM   25  O   UNL     1      41.598 -15.539   1.929  1.00  0.00    -0.355 OA
HETATM   26  C   UNL     1      40.192 -15.741   2.013  1.00  0.00     0.210 C 
ENDBRANCH   6  25
BRANCH   8  27
HETATM   27  O   UNL     1      44.132 -19.706   2.615  1.00  0.00    -0.356 OA
HETATM   28  C   UNL     1      43.787 -20.800   3.456  1.00  0.00     0.210 C 
ENDBRANCH   8  27
TORSDOF 8
ENDMDL
