MODEL 1
REMARK VINA RESULT:      -6.8      0.000      0.000
REMARK  2 active torsions:
REMARK  status: ('A' for Active; 'I' for Inactive)
REMARK    1  A    between atoms: N_6  and  C_7 
REMARK    2  A    between atoms: C_8  and  N_9 
ROOT
HETATM    1  C   UNL     1      42.792 -16.681   4.781  1.00  0.00     0.066 A 
HETATM    2  C   UNL     1      42.255 -16.782   3.474  1.00  0.00     0.130 A 
HETATM    3  C   UNL     1      42.547 -17.841   2.599  1.00  0.00     0.060 A 
HETATM    4  C   UNL     1      43.418 -18.836   3.020  1.00  0.00     0.052 A 
HETATM    5 BR   UNL     1      43.821 -20.278   1.870  1.00  0.00    -0.048 Br
HETATM    6  C   UNL     1      43.988 -18.758   4.287  1.00  0.00     0.136 A 
HETATM    7  F   UNL     1      44.831 -19.706   4.723  1.00  0.00    -0.205 F 
HETATM    8  C   UNL     1      43.685 -17.699   5.149  1.00  0.00     0.075 A 
ENDROOT
BRANCH   1   9
HETATM    9  N   UNL     1      42.473 -15.684   5.689  1.00  0.00    -0.376 N 
HETATM   10  C   UNL     1      41.306 -15.800   6.578  1.00  0.00     0.150 C 
HETATM   11  C   UNL     1      40.297 -14.665   6.306  1.00  0.00     0.254 C 
HETATM   12  N   UNL     1      40.991 -13.304   6.371  1.00  0.00    -0.072 N 
HETATM   13  C   UNL     1      40.029 -12.176   6.148  1.00  0.00     0.269 C 
HETATM   14  H   UNL     1      41.373 -13.204   7.321  1.00  0.00     0.279 HD
HETATM   15  C   UNL     1      42.176 -13.239   5.407  1.00  0.00     0.254 C 
HETATM   16  C   UNL     1      43.172 -14.387   5.677  1.00  0.00     0.150 C 
ENDBRANCH   1   9
BRANCH   2  17
HETATM   17  N   UNL     1      41.402 -15.731   2.955  1.00  0.00    -0.113 N 
HETATM   18  O   UNL     1      40.180 -15.857   3.112  1.00  0.00    -0.532 OA
HETATM   19  O   UNL     1      41.964 -14.804   2.359  1.00  0.00    -0.532 OA
ENDBRANCH   2  17
TORSDOF 2
ENDMDL
MODEL 2
REMARK VINA RESULT:      -6.4      2.363      3.287
REMARK  2 active torsions:
REMARK  status: ('A' for Active; 'I' for Inactive)
REMARK    1  A    between atoms: N_6  and  C_7 
REMARK    2  A    between atoms: C_8  and  N_9 
ROOT
HETATM    1  C   UNL     1      42.854 -16.776   3.028  1.00  0.00     0.066 A 
HETATM    2  C   UNL     1      42.996 -16.890   4.433  1.00  0.00     0.130 A 
HETATM    3  C   UNL     1      43.470 -18.047   5.071  1.00  0.00     0.060 A 
HETATM    4  C   UNL     1      43.805 -19.149   4.295  1.00  0.00     0.052 A 
HETATM    5 BR   UNL     1      44.455 -20.716   5.123  1.00  0.00    -0.048 Br
HETATM    6  C   UNL     1      43.653 -19.087   2.914  1.00  0.00     0.136 A 
HETATM    7  F   UNL     1      43.969 -20.134   2.138  1.00  0.00    -0.205 F 
HETATM    8  C   UNL     1      43.182 -17.926   2.292  1.00  0.00     0.075 A 
ENDROOT
BRANCH   1   9
HETATM    9  N   UNL     1      42.451 -15.628   2.366  1.00  0.00    -0.376 N 
HETATM   10  C   UNL     1      43.406 -14.562   2.028  1.00  0.00     0.150 C 
HETATM   11  C   UNL     1      43.024 -13.242   2.729  1.00  0.00     0.254 C 
HETATM   12  N   UNL     1      41.566 -12.882   2.437  1.00  0.00    -0.072 N 
HETATM   13  C   UNL     1      41.174 -11.583   3.075  1.00  0.00     0.269 C 
HETATM   14  H   UNL     1      41.482 -12.767   1.419  1.00  0.00     0.279 HD
HETATM   15  C   UNL     1      40.625 -14.018   2.836  1.00  0.00     0.254 C 
HETATM   16  C   UNL     1      41.024 -15.338   2.140  1.00  0.00     0.150 C 
ENDBRANCH   1   9
BRANCH   2  17
HETATM   17  N   UNL     1      42.590 -15.797   5.296  1.00  0.00    -0.113 N 
HETATM   18  O   UNL     1      43.454 -14.973   5.620  1.00  0.00    -0.532 OA
HETATM   19  O   UNL     1      41.411 -15.797   5.670  1.00  0.00    -0.532 OA
ENDBRANCH   2  17
TORSDOF 2
ENDMDL
MODEL 3
REMARK VINA RESULT:      -6.4      2.184      2.909
REMARK  2 active torsions:
REMARK  status: ('A' for Active; 'I' for Inactive)
REMARK    1  A    between atoms: N_6  and  C_7 
REMARK    2  A    between atoms: C_8  and  N_9 
ROOT
HETATM    1  C   UNL     1      42.775 -15.975   4.658  1.00  0.00     0.066 A 
HETATM    2  C   UNL     1      42.692 -16.666   5.892  1.00  0.00     0.130 A 
HETATM    3  C   UNL     1      43.144 -17.984   6.071  1.00  0.00     0.060 A 
HETATM    4  C   UNL     1      43.686 -18.658   4.984  1.00  0.00     0.052 A 
HETATM    5 BR   UNL     1      44.312 -20.426   5.197  1.00  0.00    -0.048 Br
HETATM    6  C   UNL     1      43.759 -18.023   3.749  1.00  0.00     0.136 A 
HETATM    7  F   UNL     1      44.278 -18.648   2.683  1.00  0.00    -0.205 F 
HETATM    8  C   UNL     1      43.308 -16.709   3.587  1.00  0.00     0.075 A 
ENDROOT
BRANCH   1   9
HETATM    9  N   UNL     1      42.397 -14.655   4.467  1.00  0.00    -0.376 N 
HETATM   10  C   UNL     1      43.179 -13.544   5.032  1.00  0.00     0.150 C 
HETATM   11  C   UNL     1      42.330 -12.728   6.028  1.00  0.00     0.254 C 
HETATM   12  N   UNL     1      41.014 -12.294   5.381  1.00  0.00    -0.072 N 
HETATM   13  C   UNL     1      40.180 -11.466   6.313  1.00  0.00     0.269 C 
HETATM   14  H   UNL     1      41.255 -11.704   4.573  1.00  0.00     0.279 HD
HETATM   15  C   UNL     1      40.239 -13.495   4.840  1.00  0.00     0.254 C 
HETATM   16  C   UNL     1      41.102 -14.312   3.854  1.00  0.00     0.150 C 
ENDBRANCH   1   9
BRANCH   2  17
HETATM   17  N   UNL     1      42.066 -16.037   7.038  1.00  0.00    -0.113 N 
HETATM   18  O   UNL     1      42.809 -15.588   7.921  1.00  0.00    -0.532 OA
HETATM   19  O   UNL     1      40.829 -16.031   7.060  1.00  0.00    -0.532 OA
ENDBRANCH   2  17
TORSDOF 2
ENDMDL
MODEL 4
REMARK VINA RESULT:      -6.3      2.631      3.173
REMARK  2 active torsions:
REMARK  status: ('A' for Active; 'I' for Inactive)
REMARK    1  A    between atoms: N_6  and  C_7 
REMARK    2  A    between atoms: C_8  and  N_9 
ROOT
HETATM    1  C   UNL     1      42.563 -15.920   4.653  1.00  0.00     0.066 A 
HETATM    2  C   UNL     1      42.586 -16.639   5.873  1.00  0.00     0.130 A 
HETATM    3  C   UNL     1      43.113 -17.935   5.997  1.00  0.00     0.060 A 
HETATM    4  C   UNL     1      43.626 -18.559   4.867  1.00  0.00     0.052 A 
HETATM    5 BR   UNL     1      44.351 -20.296   5.004  1.00  0.00    -0.048 Br
HETATM    6  C   UNL     1      43.596 -17.897   3.644  1.00  0.00     0.136 A 
HETATM    7  F   UNL     1      44.085 -18.473   2.536  1.00  0.00    -0.205 F 
HETATM    8  C   UNL     1      43.070 -16.605   3.537  1.00  0.00     0.075 A 
ENDROOT
BRANCH   1   9
HETATM    9  N   UNL     1      42.109 -14.619   4.513  1.00  0.00    -0.376 N 
HETATM   10  C   UNL     1      40.745 -14.327   4.046  1.00  0.00     0.150 C 
HETATM   11  C   UNL     1      40.777 -13.531   2.725  1.00  0.00     0.254 C 
HETATM   12  N   UNL     1      41.661 -12.291   2.868  1.00  0.00    -0.072 N 
HETATM   13  C   UNL     1      41.684 -11.475   1.611  1.00  0.00     0.269 C 
HETATM   14  H   UNL     1      41.247 -11.710   3.609  1.00  0.00     0.279 HD
HETATM   15  C   UNL     1      43.069 -12.664   3.329  1.00  0.00     0.254 C 
HETATM   16  C   UNL     1      43.025 -13.472   4.644  1.00  0.00     0.150 C 
ENDBRANCH   1   9
BRANCH   2  17
HETATM   17  N   UNL     1      41.995 -16.066   7.067  1.00  0.00    -0.113 N 
HETATM   18  O   UNL     1      40.760 -16.052   7.143  1.00  0.00    -0.532 OA
HETATM   19  O   UNL     1      42.779 -15.601   7.904  1.00  0.00    -0.532 OA
ENDBRANCH   2  17
TORSDOF 2
ENDMDL
MODEL 5
REMARK VINA RESULT:      -6.3      1.590      2.311
REMARK  2 active torsions:
REMARK  status: ('A' for Active; 'I' for Inactive)
REMARK    1  A    between atoms: N_6  and  C_7 
REMARK    2  A    between atoms: C_8  and  N_9 
ROOT
HETATM    1  C   UNL     1      42.403 -15.523   3.459  1.00  0.00     0.066 A 
HETATM    2  C   UNL     1      41.796 -16.266   2.416  1.00  0.00     0.130 A 
HETATM    3  C   UNL     1      42.147 -17.589   2.104  1.00  0.00     0.060 A 
HETATM    4  C   UNL     1      43.153 -18.205   2.838  1.00  0.00     0.052 A 
HETATM    5 BR   UNL     1      43.639 -19.987   2.448  1.00  0.00    -0.048 Br
HETATM    6  C   UNL     1      43.793 -17.500   3.851  1.00  0.00     0.136 A 
HETATM    7  F   UNL     1      44.766 -18.068   4.578  1.00  0.00    -0.205 F 
HETATM    8  C   UNL     1      43.430 -16.183   4.153  1.00  0.00     0.075 A 
ENDROOT
BRANCH   1   9
HETATM    9  N   UNL     1      42.034 -14.241   3.832  1.00  0.00    -0.376 N 
HETATM   10  C   UNL     1      42.739 -13.058   3.315  1.00  0.00     0.150 C 
HETATM   11  C   UNL     1      43.392 -12.264   4.465  1.00  0.00     0.254 C 
HETATM   12  N   UNL     1      42.362 -11.946   5.549  1.00  0.00    -0.072 N 
HETATM   13  C   UNL     1      42.957 -11.142   6.666  1.00  0.00     0.269 C 
HETATM   14  H   UNL     1      41.628 -11.374   5.111  1.00  0.00     0.279 HD
HETATM   15  C   UNL     1      41.686 -13.217   6.063  1.00  0.00     0.254 C 
HETATM   16  C   UNL     1      41.048 -14.011   4.902  1.00  0.00     0.150 C 
ENDBRANCH   1   9
BRANCH   2  17
HETATM   17  N   UNL     1      40.795 -15.647   1.570  1.00  0.00    -0.113 N 
HETATM   18  O   UNL     1      41.194 -14.990   0.600  1.00  0.00    -0.532 OA
HETATM   19  O   UNL     1      39.614 -15.795   1.909  1.00  0.00    -0.532 OA
ENDBRANCH   2  17
TORSDOF 2
ENDMDL
MODEL 6
REMARK VINA RESULT:      -5.8      3.749      4.629
REMARK  2 active torsions:
REMARK  status: ('A' for Active; 'I' for Inactive)
REMARK    1  A    between atoms: N_6  and  C_7 
REMARK    2  A    between atoms: C_8  and  N_9 
ROOT
HETATM    1  C   UNL     1      41.036 -15.343   3.021  1.00  0.00     0.066 A 
HETATM    2  C   UNL     1      41.216 -13.942   2.912  1.00  0.00     0.130 A 
HETATM    3  C   UNL     1      40.783 -13.191   1.807  1.00  0.00     0.060 A 
HETATM    4  C   UNL     1      40.160 -13.849   0.754  1.00  0.00     0.052 A 
HETATM    5 BR   UNL     1      39.558 -12.865  -0.740  1.00  0.00    -0.048 Br
HETATM    6  C   UNL     1      39.991 -15.228   0.811  1.00  0.00     0.136 A 
HETATM    7  F   UNL     1      39.391 -15.890  -0.189  1.00  0.00    -0.205 F 
HETATM    8  C   UNL     1      40.424 -15.962   1.920  1.00  0.00     0.075 A 
ENDROOT
BRANCH   1   9
HETATM    9  N   UNL     1      41.394 -16.100   4.125  1.00  0.00    -0.376 N 
HETATM   10  C   UNL     1      40.479 -16.278   5.263  1.00  0.00     0.150 C 
HETATM   11  C   UNL     1      41.092 -15.699   6.555  1.00  0.00     0.254 C 
HETATM   12  N   UNL     1      42.490 -16.273   6.789  1.00  0.00    -0.072 N 
HETATM   13  C   UNL     1      43.099 -15.757   8.058  1.00  0.00     0.269 C 
HETATM   14  H   UNL     1      42.385 -17.292   6.886  1.00  0.00     0.279 HD
HETATM   15  C   UNL     1      43.398 -16.032   5.583  1.00  0.00     0.254 C 
HETATM   16  C   UNL     1      42.769 -16.603   4.294  1.00  0.00     0.150 C 
ENDBRANCH   1   9
BRANCH   2  17
HETATM   17  N   UNL     1      41.927 -13.217   3.947  1.00  0.00    -0.113 N 
HETATM   18  O   UNL     1      41.261 -12.754   4.881  1.00  0.00    -0.532 OA
HETATM   19  O   UNL     1      43.148 -13.087   3.793  1.00  0.00    -0.532 OA
ENDBRANCH   2  17
TORSDOF 2
ENDMDL
MODEL 7
REMARK VINA RESULT:      -5.6      5.092      6.367
REMARK  2 active torsions:
REMARK  status: ('A' for Active; 'I' for Inactive)
REMARK    1  A    between atoms: N_6  and  C_7 
REMARK    2  A    between atoms: C_8  and  N_9 
ROOT
HETATM    1  C   UNL     1      40.848 -13.824   1.053  1.00  0.00     0.066 A 
HETATM    2  C   UNL     1      40.460 -12.469   0.906  1.00  0.00     0.130 A 
HETATM    3  C   UNL     1      39.580 -12.022  -0.093  1.00  0.00     0.060 A 
HETATM    4  C   UNL     1      39.071 -12.944  -0.998  1.00  0.00     0.052 A 
HETATM    5 BR   UNL     1      37.877 -12.373  -2.344  1.00  0.00    -0.048 Br
HETATM    6  C   UNL     1      39.450 -14.278  -0.904  1.00  0.00     0.136 A 
HETATM    7  F   UNL     1      38.974 -15.192  -1.763  1.00  0.00    -0.205 F 
HETATM    8  C   UNL     1      40.325 -14.711   0.097  1.00  0.00     0.075 A 
ENDROOT
BRANCH   1   9
HETATM    9  N   UNL     1      41.662 -14.306   2.065  1.00  0.00    -0.376 N 
HETATM   10  C   UNL     1      43.113 -14.462   1.875  1.00  0.00     0.150 C 
HETATM   11  C   UNL     1      43.528 -15.940   2.029  1.00  0.00     0.254 C 
HETATM   12  N   UNL     1      43.012 -16.506   3.353  1.00  0.00    -0.072 N 
HETATM   13  C   UNL     1      43.432 -17.932   3.550  1.00  0.00     0.269 C 
HETATM   14  H   UNL     1      43.438 -15.950   4.106  1.00  0.00     0.279 HD
HETATM   15  C   UNL     1      41.499 -16.337   3.476  1.00  0.00     0.254 C 
HETATM   16  C   UNL     1      41.092 -14.857   3.307  1.00  0.00     0.150 C 
ENDBRANCH   1   9
BRANCH   2  17
HETATM   17  N   UNL     1      41.020 -11.454   1.776  1.00  0.00    -0.113 N 
HETATM   18  O   UNL     1      40.418 -11.207   2.828  1.00  0.00    -0.532 OA
HETATM   19  O   UNL     1      42.044 -10.885   1.376  1.00  0.00    -0.532 OA
ENDBRANCH   2  17
TORSDOF 2
ENDMDL
MODEL 8
REMARK VINA RESULT:      -5.5      3.907      4.927
REMARK  2 active torsions:
REMARK  status: ('A' for Active; 'I' for Inactive)
REMARK    1  A    between atoms: N_6  and  C_7 
REMARK    2  A    between atoms: C_8  and  N_9 
ROOT
HETATM    1  C   UNL     1      40.760 -13.829   3.398  1.00  0.00     0.066 A 
HETATM    2  C   UNL     1      41.300 -14.833   2.557  1.00  0.00     0.130 A 
HETATM    3  C   UNL     1      41.010 -14.932   1.187  1.00  0.00     0.060 A 
HETATM    4  C   UNL     1      40.136 -14.012   0.620  1.00  0.00     0.052 A 
HETATM    5 BR   UNL     1      39.735 -14.114  -1.221  1.00  0.00    -0.048 Br
HETATM    6  C   UNL     1      39.563 -13.028   1.419  1.00  0.00     0.136 A 
HETATM    7  F   UNL     1      38.718 -12.126   0.900  1.00  0.00    -0.205 F 
HETATM    8  C   UNL     1      39.865 -12.940   2.782  1.00  0.00     0.075 A 
ENDROOT
BRANCH   1   9
HETATM    9  N   UNL     1      41.078 -13.667   4.737  1.00  0.00    -0.376 N 
HETATM   10  C   UNL     1      42.360 -13.080   5.156  1.00  0.00     0.150 C 
HETATM   11  C   UNL     1      43.179 -14.091   5.985  1.00  0.00     0.254 C 
HETATM   12  N   UNL     1      42.341 -14.639   7.142  1.00  0.00    -0.072 N 
HETATM   13  C   UNL     1      43.121 -15.598   7.990  1.00  0.00     0.269 C 
HETATM   14  H   UNL     1      42.084 -13.838   7.734  1.00  0.00     0.279 HD
HETATM   15  C   UNL     1      41.038 -15.257   6.638  1.00  0.00     0.254 C 
HETATM   16  C   UNL     1      40.232 -14.242   5.798  1.00  0.00     0.150 C 
ENDBRANCH   1   9
BRANCH   2  17
HETATM   17  N   UNL     1      42.157 -15.863   3.112  1.00  0.00    -0.113 N 
HETATM   18  O   UNL     1      43.379 -15.721   2.982  1.00  0.00    -0.532 OA
HETATM   19  O   UNL     1      41.591 -16.827   3.643  1.00  0.00    -0.532 OA
ENDBRANCH   2  17
TORSDOF 2
ENDMDL
MODEL 9
REMARK VINA RESULT:      -5.5      4.060      5.022
REMARK  2 active torsions:
REMARK  status: ('A' for Active; 'I' for Inactive)
REMARK    1  A    between atoms: N_6  and  C_7 
REMARK    2  A    between atoms: C_8  and  N_9 
ROOT
HETATM    1  C   UNL     1      40.912 -13.585   2.772  1.00  0.00     0.066 A 
HETATM    2  C   UNL     1      40.788 -12.520   1.846  1.00  0.00     0.130 A 
HETATM    3  C   UNL     1      40.275 -12.680   0.549  1.00  0.00     0.060 A 
HETATM    4  C   UNL     1      39.881 -13.946   0.136  1.00  0.00     0.052 A 
HETATM    5 BR   UNL     1      39.179 -14.189  -1.598  1.00  0.00    -0.048 Br
HETATM    6  C   UNL     1      40.013 -15.023   1.007  1.00  0.00     0.136 A 
HETATM    7  F   UNL     1      39.640 -16.257   0.637  1.00  0.00    -0.205 F 
HETATM    8  C   UNL     1      40.523 -14.848   2.298  1.00  0.00     0.075 A 
ENDROOT
BRANCH   1   9
HETATM    9  N   UNL     1      41.352 -13.447   4.079  1.00  0.00    -0.376 N 
HETATM   10  C   UNL     1      42.783 -13.507   4.416  1.00  0.00     0.150 C 
HETATM   11  C   UNL     1      43.072 -14.687   5.367  1.00  0.00     0.254 C 
HETATM   12  N   UNL     1      42.150 -14.632   6.586  1.00  0.00    -0.072 N 
HETATM   13  C   UNL     1      42.431 -15.746   7.549  1.00  0.00     0.269 C 
HETATM   14  H   UNL     1      42.343 -13.746   7.071  1.00  0.00     0.279 HD
HETATM   15  C   UNL     1      40.680 -14.600   6.168  1.00  0.00     0.254 C 
HETATM   16  C   UNL     1      40.404 -13.423   5.206  1.00  0.00     0.150 C 
ENDBRANCH   1   9
BRANCH   2  17
HETATM   17  N   UNL     1      41.255 -11.193   2.198  1.00  0.00    -0.113 N 
HETATM   18  O   UNL     1      42.445 -10.930   1.983  1.00  0.00    -0.532 OA
HETATM   19  O   UNL     1      40.428 -10.436   2.721  1.00  0.00    -0.532 OA
ENDBRANCH   2  17
TORSDOF 2
ENDMDL
MODEL 10
REMARK VINA RESULT:      -5.4      4.061      5.954
REMARK  2 active torsions:
REMARK  status: ('A' for Active; 'I' for Inactive)
REMARK    1  A    between atoms: N_6  and  C_7 
REMARK    2  A    between atoms: C_8  and  N_9 
ROOT
HETATM    1  C   UNL     1      42.273 -13.335   5.535  1.00  0.00     0.066 A 
HETATM    2  C   UNL     1      41.395 -12.247   5.761  1.00  0.00     0.130 A 
HETATM    3  C   UNL     1      41.766 -11.088   6.462  1.00  0.00     0.060 A 
HETATM    4  C   UNL     1      43.052 -11.000   6.977  1.00  0.00     0.052 A 
HETATM    5 BR   UNL     1      43.582  -9.449   7.914  1.00  0.00    -0.048 Br
HETATM    6  C   UNL     1      43.935 -12.060   6.801  1.00  0.00     0.136 A 
HETATM    7  F   UNL     1      45.184 -12.003   7.286  1.00  0.00    -0.205 F 
HETATM    8  C   UNL     1      43.553 -13.207   6.098  1.00  0.00     0.075 A 
ENDROOT
BRANCH   1   9
HETATM    9  N   UNL     1      41.958 -14.462   4.794  1.00  0.00    -0.376 N 
HETATM   10  C   UNL     1      41.511 -15.706   5.440  1.00  0.00     0.150 C 
HETATM   11  C   UNL     1      42.494 -16.858   5.147  1.00  0.00     0.254 C 
HETATM   12  N   UNL     1      42.728 -16.993   3.642  1.00  0.00    -0.072 N 
HETATM   13  C   UNL     1      43.652 -18.130   3.321  1.00  0.00     0.269 C 
HETATM   14  H   UNL     1      41.818 -17.201   3.212  1.00  0.00     0.279 HD
HETATM   15  C   UNL     1      43.216 -15.677   3.037  1.00  0.00     0.254 C 
HETATM   16  C   UNL     1      42.233 -14.527   3.348  1.00  0.00     0.150 C 
ENDBRANCH   1   9
BRANCH   2  17
HETATM   17  N   UNL     1      40.018 -12.317   5.311  1.00  0.00    -0.113 N 
HETATM   18  O   UNL     1      39.195 -12.842   6.071  1.00  0.00    -0.532 OA
HETATM   19  O   UNL     1      39.783 -11.877   4.179  1.00  0.00    -0.532 OA
ENDBRANCH   2  17
TORSDOF 2
ENDMDL
