MODEL 1
REMARK VINA RESULT:      -8.9      0.000      0.000
REMARK  3 active torsions:
REMARK  status: ('A' for Active; 'I' for Inactive)
REMARK    1  A    between atoms: C_5  and  C_6 
REMARK    2  A    between atoms: C_11  and  C_12 
REMARK    3  A    between atoms: C_23  and  O_24 
ROOT
HETATM    1  C   UNL     1      43.351 -10.352   8.449  1.00  0.00     0.031 C 
HETATM    2  C   UNL     1      44.519 -10.615   7.845  1.00  0.00     0.066 A 
HETATM    3  C   UNL     1      45.856 -10.046   8.149  1.00  0.00     0.274 A 
HETATM    4  O   UNL     1      46.204  -9.312   9.050  1.00  0.00    -0.266 OA
HETATM    5  N   UNL     1      46.642 -10.533   7.116  1.00  0.00    -0.242 N 
HETATM    6  C   UNL     1      44.760 -11.456   6.641  1.00  0.00     0.111 A 
HETATM    7  N   UNL     1      46.003 -11.359   6.223  1.00  0.00    -0.170 NA
HETATM    8  H   UNL     1      47.632 -10.328   7.031  1.00  0.00     0.192 HD
ENDROOT
BRANCH   6   9
HETATM    9  C   UNL     1      43.731 -12.273   5.963  1.00  0.00     0.098 C 
HETATM   10  C   UNL     1      43.185 -11.909   4.629  1.00  0.00     0.263 C 
HETATM   11  O   UNL     1      43.496 -10.829   4.126  1.00  0.00    -0.267 OA
HETATM   12  N   UNL     1      42.338 -12.816   4.001  1.00  0.00    -0.317 N 
HETATM   13  C   UNL     1      41.875 -12.508   2.656  1.00  0.00     0.159 C 
HETATM   14  C   UNL     1      41.847 -13.976   4.672  1.00  0.00     0.050 A 
HETATM   15  C   UNL     1      42.277 -14.242   5.984  1.00  0.00     0.025 A 
HETATM   16  C   UNL     1      40.927 -14.848   4.067  1.00  0.00     0.031 A 
HETATM   17  C   UNL     1      41.771 -15.363   6.662  1.00  0.00     0.016 A 
HETATM   18  C   UNL     1      43.258 -13.348   6.620  1.00  0.00     0.096 C 
HETATM   19  C   UNL     1      40.853 -16.218   6.051  1.00  0.00     0.001 A 
HETATM   20  C   UNL     1      40.433 -15.960   4.752  1.00  0.00     0.002 A 
BRANCH  18  21
HETATM   21  O   UNL     1      43.643 -13.714   7.900  1.00  0.00    -0.359 OA
HETATM   22  H   UNL     1      43.016 -13.318   8.544  1.00  0.00     0.218 HD
ENDBRANCH  18  21
ENDBRANCH   6   9
BRANCH   1  23
HETATM   23  C   UNL     1      43.138  -9.533   9.648  1.00  0.00    -0.035 A 
HETATM   24  C   UNL     1      43.283 -10.115  10.912  1.00  0.00     0.012 A 
HETATM   25  C   UNL     1      43.167  -9.339  12.070  1.00  0.00     0.007 A 
HETATM   26  C   UNL     1      42.903  -7.968  11.979  1.00  0.00    -0.062 A 
HETATM   27  C   UNL     1      42.812  -7.119  13.213  1.00  0.00     0.048 C 
HETATM   28  C   UNL     1      42.777  -7.383  10.715  1.00  0.00     0.007 A 
HETATM   29  C   UNL     1      42.898  -8.159   9.559  1.00  0.00     0.012 A 
ENDBRANCH   1  23
TORSDOF 3
ENDMDL
MODEL 2
REMARK VINA RESULT:      -8.8      2.154      7.276
REMARK  3 active torsions:
REMARK  status: ('A' for Active; 'I' for Inactive)
REMARK    1  A    between atoms: C_5  and  C_6 
REMARK    2  A    between atoms: C_11  and  C_12 
REMARK    3  A    between atoms: C_23  and  O_24 
ROOT
HETATM    1  C   UNL     1      43.612 -11.358   7.520  1.00  0.00     0.031 C 
HETATM    2  C   UNL     1      44.719 -10.603   7.574  1.00  0.00     0.066 A 
HETATM    3  C   UNL     1      45.978 -10.768   6.805  1.00  0.00     0.274 A 
HETATM    4  O   UNL     1      46.248 -11.537   5.906  1.00  0.00    -0.266 OA
HETATM    5  N   UNL     1      46.820  -9.830   7.385  1.00  0.00    -0.242 N 
HETATM    6  C   UNL     1      45.017  -9.477   8.500  1.00  0.00     0.111 A 
HETATM    7  N   UNL     1      46.262  -9.072   8.385  1.00  0.00    -0.170 NA
HETATM    8  H   UNL     1      47.775  -9.681   7.079  1.00  0.00     0.192 HD
ENDROOT
BRANCH   6   9
HETATM    9  C   UNL     1      44.055  -8.900   9.463  1.00  0.00     0.098 C 
HETATM   10  C   UNL     1      43.270  -7.673   9.160  1.00  0.00     0.263 C 
HETATM   11  O   UNL     1      43.517  -7.040   8.134  1.00  0.00    -0.267 OA
HETATM   12  N   UNL     1      42.281  -7.293  10.060  1.00  0.00    -0.317 N 
HETATM   13  C   UNL     1      41.447  -6.149   9.723  1.00  0.00     0.159 C 
HETATM   14  C   UNL     1      42.130  -7.932  11.327  1.00  0.00     0.050 A 
HETATM   15  C   UNL     1      42.965  -9.015  11.652  1.00  0.00     0.025 A 
HETATM   16  C   UNL     1      41.184  -7.494  12.269  1.00  0.00     0.031 A 
HETATM   17  C   UNL     1      42.845  -9.626  12.911  1.00  0.00     0.016 A 
HETATM   18  C   UNL     1      43.944  -9.497  10.665  1.00  0.00     0.096 C 
HETATM   19  C   UNL     1      41.905  -9.177  13.840  1.00  0.00     0.001 A 
HETATM   20  C   UNL     1      41.074  -8.112  13.516  1.00  0.00     0.002 A 
BRANCH  18  21
HETATM   21  O   UNL     1      44.697 -10.588  11.067  1.00  0.00    -0.359 OA
HETATM   22  H   UNL     1      44.708 -10.621  12.048  1.00  0.00     0.218 HD
ENDBRANCH  18  21
ENDBRANCH   6   9
BRANCH   1  23
HETATM   23  C   UNL     1      43.332 -12.454   6.585  1.00  0.00    -0.035 A 
HETATM   24  C   UNL     1      42.860 -12.158   5.302  1.00  0.00     0.012 A 
HETATM   25  C   UNL     1      42.663 -13.178   4.365  1.00  0.00     0.007 A 
HETATM   26  C   UNL     1      42.935 -14.509   4.699  1.00  0.00    -0.062 A 
HETATM   27  C   UNL     1      42.762 -15.606   3.690  1.00  0.00     0.048 C 
HETATM   28  C   UNL     1      43.425 -14.801   5.975  1.00  0.00     0.007 A 
HETATM   29  C   UNL     1      43.626 -13.782   6.909  1.00  0.00     0.012 A 
ENDBRANCH   1  23
TORSDOF 3
ENDMDL
MODEL 3
REMARK VINA RESULT:      -8.7      3.344      5.694
REMARK  3 active torsions:
REMARK  status: ('A' for Active; 'I' for Inactive)
REMARK    1  A    between atoms: C_5  and  C_6 
REMARK    2  A    between atoms: C_11  and  C_12 
REMARK    3  A    between atoms: C_23  and  O_24 
ROOT
HETATM    1  C   UNL     1      43.590 -13.707   6.180  1.00  0.00     0.031 C 
HETATM    2  C   UNL     1      42.411 -13.795   5.547  1.00  0.00     0.066 A 
HETATM    3  C   UNL     1      41.405 -12.726   5.331  1.00  0.00     0.274 A 
HETATM    4  O   UNL     1      41.461 -11.540   5.581  1.00  0.00    -0.266 OA
HETATM    5  N   UNL     1      40.332 -13.415   4.786  1.00  0.00    -0.242 N 
HETATM    6  C   UNL     1      41.755 -15.012   4.997  1.00  0.00     0.111 A 
HETATM    7  N   UNL     1      40.529 -14.760   4.592  1.00  0.00    -0.170 NA
HETATM    8  H   UNL     1      39.466 -12.963   4.514  1.00  0.00     0.192 HD
ENDROOT
BRANCH   6   9
HETATM    9  C   UNL     1      42.373 -16.354   4.944  1.00  0.00     0.098 C 
HETATM   10  C   UNL     1      42.776 -17.089   6.173  1.00  0.00     0.263 C 
HETATM   11  O   UNL     1      42.715 -16.518   7.262  1.00  0.00    -0.267 OA
HETATM   12  N   UNL     1      43.206 -18.404   6.035  1.00  0.00    -0.317 N 
HETATM   13  C   UNL     1      43.510 -19.159   7.241  1.00  0.00     0.159 C 
HETATM   14  C   UNL     1      43.439 -18.989   4.754  1.00  0.00     0.050 A 
HETATM   15  C   UNL     1      43.172 -18.235   3.598  1.00  0.00     0.025 A 
HETATM   16  C   UNL     1      43.952 -20.290   4.617  1.00  0.00     0.031 A 
HETATM   17  C   UNL     1      43.432 -18.794   2.335  1.00  0.00     0.016 A 
HETATM   18  C   UNL     1      42.614 -16.881   3.729  1.00  0.00     0.096 C 
HETATM   19  C   UNL     1      43.947 -20.084   2.213  1.00  0.00     0.001 A 
HETATM   20  C   UNL     1      44.205 -20.832   3.355  1.00  0.00     0.002 A 
BRANCH  18  21
HETATM   21  O   UNL     1      42.355 -16.233   2.532  1.00  0.00    -0.359 OA
HETATM   22  H   UNL     1      42.642 -16.809   1.791  1.00  0.00     0.218 HD
ENDBRANCH  18  21
ENDBRANCH   6   9
BRANCH   1  23
HETATM   23  C   UNL     1      44.228 -12.491   6.698  1.00  0.00    -0.035 A 
HETATM   24  C   UNL     1      43.793 -11.953   7.914  1.00  0.00     0.012 A 
HETATM   25  C   UNL     1      44.438 -10.843   8.471  1.00  0.00     0.007 A 
HETATM   26  C   UNL     1      45.526 -10.255   7.818  1.00  0.00    -0.062 A 
HETATM   27  C   UNL     1      46.248  -9.087   8.423  1.00  0.00     0.048 C 
HETATM   28  C   UNL     1      45.972 -10.805   6.612  1.00  0.00     0.007 A 
HETATM   29  C   UNL     1      45.330 -11.917   6.059  1.00  0.00     0.012 A 
ENDBRANCH   1  23
TORSDOF 3
ENDMDL
MODEL 4
REMARK VINA RESULT:      -8.7      0.743      2.542
REMARK  3 active torsions:
REMARK  status: ('A' for Active; 'I' for Inactive)
REMARK    1  A    between atoms: C_5  and  C_6 
REMARK    2  A    between atoms: C_11  and  C_12 
REMARK    3  A    between atoms: C_23  and  O_24 
ROOT
HETATM    1  C   UNL     1      43.536 -10.542   8.479  1.00  0.00     0.031 C 
HETATM    2  C   UNL     1      44.654 -10.785   7.780  1.00  0.00     0.066 A 
HETATM    3  C   UNL     1      46.007 -10.211   7.988  1.00  0.00     0.274 A 
HETATM    4  O   UNL     1      46.421  -9.491   8.872  1.00  0.00    -0.266 OA
HETATM    5  N   UNL     1      46.713 -10.674   6.887  1.00  0.00    -0.242 N 
HETATM    6  C   UNL     1      44.804 -11.603   6.546  1.00  0.00     0.111 A 
HETATM    7  N   UNL     1      46.010 -11.489   6.033  1.00  0.00    -0.170 NA
HETATM    8  H   UNL     1      47.691 -10.461   6.728  1.00  0.00     0.192 HD
ENDROOT
BRANCH   6   9
HETATM    9  C   UNL     1      43.731 -12.416   5.936  1.00  0.00     0.098 C 
HETATM   10  C   UNL     1      43.157 -13.608   6.616  1.00  0.00     0.263 C 
HETATM   11  O   UNL     1      43.674 -14.012   7.657  1.00  0.00    -0.267 OA
HETATM   12  N   UNL     1      42.048 -14.217   6.039  1.00  0.00    -0.317 N 
HETATM   13  C   UNL     1      41.425 -15.325   6.748  1.00  0.00     0.159 C 
HETATM   14  C   UNL     1      41.574 -13.846   4.745  1.00  0.00     0.050 A 
HETATM   15  C   UNL     1      42.208 -12.797   4.058  1.00  0.00     0.025 A 
HETATM   16  C   UNL     1      40.506 -14.518   4.128  1.00  0.00     0.031 A 
HETATM   17  C   UNL     1      41.767 -12.450   2.770  1.00  0.00     0.016 A 
HETATM   18  C   UNL     1      43.313 -12.072   4.704  1.00  0.00     0.096 C 
HETATM   19  C   UNL     1      40.709 -13.129   2.166  1.00  0.00     0.001 A 
HETATM   20  C   UNL     1      40.078 -14.162   2.847  1.00  0.00     0.002 A 
BRANCH  18  21
HETATM   21  O   UNL     1      43.850 -11.033   3.959  1.00  0.00    -0.359 OA
HETATM   22  H   UNL     1      43.341 -10.215   4.145  1.00  0.00     0.218 HD
ENDBRANCH  18  21
ENDBRANCH   6   9
BRANCH   1  23
HETATM   23  C   UNL     1      43.413  -9.747   9.706  1.00  0.00    -0.035 A 
HETATM   24  C   UNL     1      43.158  -8.374   9.611  1.00  0.00     0.012 A 
HETATM   25  C   UNL     1      42.956  -7.608  10.764  1.00  0.00     0.007 A 
HETATM   26  C   UNL     1      43.008  -8.204  12.029  1.00  0.00    -0.062 A 
HETATM   27  C   UNL     1      42.757  -7.400  13.270  1.00  0.00     0.048 C 
HETATM   28  C   UNL     1      43.244  -9.580  12.121  1.00  0.00     0.007 A 
HETATM   29  C   UNL     1      43.441 -10.345  10.969  1.00  0.00     0.012 A 
ENDBRANCH   1  23
TORSDOF 3
ENDMDL
MODEL 5
REMARK VINA RESULT:      -8.6      2.145      7.615
REMARK  3 active torsions:
REMARK  status: ('A' for Active; 'I' for Inactive)
REMARK    1  A    between atoms: C_5  and  C_6 
REMARK    2  A    between atoms: C_11  and  C_12 
REMARK    3  A    between atoms: C_23  and  O_24 
ROOT
HETATM    1  C   UNL     1      43.726 -11.499   7.521  1.00  0.00     0.031 C 
HETATM    2  C   UNL     1      44.818 -10.726   7.615  1.00  0.00     0.066 A 
HETATM    3  C   UNL     1      46.081 -10.829   6.843  1.00  0.00     0.274 A 
HETATM    4  O   UNL     1      46.369 -11.549   5.909  1.00  0.00    -0.266 OA
HETATM    5  N   UNL     1      46.903  -9.903   7.468  1.00  0.00    -0.242 N 
HETATM    6  C   UNL     1      45.091  -9.639   8.593  1.00  0.00     0.111 A 
HETATM    7  N   UNL     1      46.328  -9.204   8.502  1.00  0.00    -0.170 NA
HETATM    8  H   UNL     1      47.856  -9.721   7.173  1.00  0.00     0.192 HD
ENDROOT
BRANCH   6   9
HETATM    9  C   UNL     1      44.116  -9.127   9.580  1.00  0.00     0.098 C 
HETATM   10  C   UNL     1      43.672  -9.936  10.747  1.00  0.00     0.263 C 
HETATM   11  O   UNL     1      44.021 -11.114  10.829  1.00  0.00    -0.267 OA
HETATM   12  N   UNL     1      42.874  -9.318  11.703  1.00  0.00    -0.317 N 
HETATM   13  C   UNL     1      42.515 -10.076  12.893  1.00  0.00     0.159 C 
HETATM   14  C   UNL     1      42.334  -8.013  11.503  1.00  0.00     0.050 A 
HETATM   15  C   UNL     1      42.663  -7.307  10.333  1.00  0.00     0.025 A 
HETATM   16  C   UNL     1      41.461  -7.423  12.432  1.00  0.00     0.031 A 
HETATM   17  C   UNL     1      42.106  -6.036  10.114  1.00  0.00     0.016 A 
HETATM   18  C   UNL     1      43.593  -7.906   9.363  1.00  0.00     0.096 C 
HETATM   19  C   UNL     1      41.236  -5.464  11.042  1.00  0.00     0.001 A 
HETATM   20  C   UNL     1      40.916  -6.158  12.202  1.00  0.00     0.002 A 
BRANCH  18  21
HETATM   21  O   UNL     1      43.880  -7.119   8.259  1.00  0.00    -0.359 OA
HETATM   22  H   UNL     1      43.257  -6.361   8.241  1.00  0.00     0.218 HD
ENDBRANCH  18  21
ENDBRANCH   6   9
BRANCH   1  23
HETATM   23  C   UNL     1      43.470 -12.555   6.535  1.00  0.00    -0.035 A 
HETATM   24  C   UNL     1      43.655 -13.893   6.898  1.00  0.00     0.012 A 
HETATM   25  C   UNL     1      43.341 -14.922   6.004  1.00  0.00     0.007 A 
HETATM   26  C   UNL     1      42.837 -14.627   4.733  1.00  0.00    -0.062 A 
HETATM   27  C   UNL     1      42.462 -15.723   3.780  1.00  0.00     0.048 C 
HETATM   28  C   UNL     1      42.633 -13.289   4.378  1.00  0.00     0.007 A 
HETATM   29  C   UNL     1      42.944 -12.262   5.273  1.00  0.00     0.012 A 
ENDBRANCH   1  23
TORSDOF 3
ENDMDL
MODEL 6
REMARK VINA RESULT:      -8.6      2.227      7.403
REMARK  3 active torsions:
REMARK  status: ('A' for Active; 'I' for Inactive)
REMARK    1  A    between atoms: C_5  and  C_6 
REMARK    2  A    between atoms: C_11  and  C_12 
REMARK    3  A    between atoms: C_23  and  O_24 
ROOT
HETATM    1  C   UNL     1      41.914 -10.584   7.003  1.00  0.00     0.031 C 
HETATM    2  C   UNL     1      43.219 -10.844   7.170  1.00  0.00     0.066 A 
HETATM    3  C   UNL     1      44.095 -11.705   6.337  1.00  0.00     0.274 A 
HETATM    4  O   UNL     1      43.863 -12.273   5.290  1.00  0.00    -0.266 OA
HETATM    5  N   UNL     1      45.275 -11.744   7.065  1.00  0.00    -0.242 N 
HETATM    6  C   UNL     1      44.100 -10.429   8.295  1.00  0.00     0.111 A 
HETATM    7  N   UNL     1      45.283 -11.000   8.220  1.00  0.00    -0.170 NA
HETATM    8  H   UNL     1      46.096 -12.256   6.761  1.00  0.00     0.192 HD
ENDROOT
BRANCH   6   9
HETATM    9  C   UNL     1      43.699  -9.523   9.391  1.00  0.00     0.098 C 
HETATM   10  C   UNL     1      43.645  -8.046   9.218  1.00  0.00     0.263 C 
HETATM   11  O   UNL     1      44.071  -7.548   8.176  1.00  0.00    -0.267 OA
HETATM   12  N   UNL     1      43.110  -7.287  10.253  1.00  0.00    -0.317 N 
HETATM   13  C   UNL     1      42.968  -5.853  10.052  1.00  0.00     0.159 C 
HETATM   14  C   UNL     1      42.788  -7.861  11.519  1.00  0.00     0.050 A 
HETATM   15  C   UNL     1      42.962  -9.243  11.708  1.00  0.00     0.025 A 
HETATM   16  C   UNL     1      42.325  -7.079  12.590  1.00  0.00     0.031 A 
HETATM   17  C   UNL     1      42.680  -9.808  12.964  1.00  0.00     0.016 A 
HETATM   18  C   UNL     1      43.425 -10.075  10.588  1.00  0.00     0.096 C 
HETATM   19  C   UNL     1      42.226  -9.019  14.020  1.00  0.00     0.001 A 
HETATM   20  C   UNL     1      42.047  -7.655  13.832  1.00  0.00     0.002 A 
BRANCH  18  21
HETATM   21  O   UNL     1      43.534 -11.429  10.865  1.00  0.00    -0.359 OA
HETATM   22  H   UNL     1      44.327 -11.574  11.424  1.00  0.00     0.218 HD
ENDBRANCH  18  21
ENDBRANCH   6   9
BRANCH   1  23
HETATM   23  C   UNL     1      41.068 -10.987   5.874  1.00  0.00    -0.035 A 
HETATM   24  C   UNL     1      41.059 -10.210   4.711  1.00  0.00     0.012 A 
HETATM   25  C   UNL     1      40.325 -10.616   3.591  1.00  0.00     0.007 A 
HETATM   26  C   UNL     1      39.588 -11.805   3.620  1.00  0.00    -0.062 A 
HETATM   27  C   UNL     1      38.827 -12.269   2.413  1.00  0.00     0.048 C 
HETATM   28  C   UNL     1      39.614 -12.591   4.776  1.00  0.00     0.007 A 
HETATM   29  C   UNL     1      40.351 -12.187   5.893  1.00  0.00     0.012 A 
ENDBRANCH   1  23
TORSDOF 3
ENDMDL
MODEL 7
REMARK VINA RESULT:      -8.6      6.665      9.294
REMARK  3 active torsions:
REMARK  status: ('A' for Active; 'I' for Inactive)
REMARK    1  A    between atoms: C_5  and  C_6 
REMARK    2  A    between atoms: C_11  and  C_12 
REMARK    3  A    between atoms: C_23  and  O_24 
ROOT
HETATM    1  C   UNL     1      41.913 -15.996   2.183  1.00  0.00     0.031 C 
HETATM    2  C   UNL     1      41.139 -15.138   2.862  1.00  0.00     0.066 A 
HETATM    3  C   UNL     1      40.781 -15.169   4.303  1.00  0.00     0.274 A 
HETATM    4  O   UNL     1      41.177 -15.898   5.189  1.00  0.00    -0.266 OA
HETATM    5  N   UNL     1      39.835 -14.161   4.410  1.00  0.00    -0.242 N 
HETATM    6  C   UNL     1      40.345 -13.998   2.328  1.00  0.00     0.111 A 
HETATM    7  N   UNL     1      39.570 -13.472   3.251  1.00  0.00    -0.170 NA
HETATM    8  H   UNL     1      39.385 -13.916   5.284  1.00  0.00     0.192 HD
ENDROOT
BRANCH   6   9
HETATM    9  C   UNL     1      40.380 -13.529   0.926  1.00  0.00     0.098 C 
HETATM   10  C   UNL     1      39.905 -14.373  -0.203  1.00  0.00     0.263 C 
HETATM   11  O   UNL     1      39.594 -15.545   0.012  1.00  0.00    -0.267 OA
HETATM   12  N   UNL     1      39.832 -13.794  -1.465  1.00  0.00    -0.317 N 
HETATM   13  C   UNL     1      39.280 -14.585  -2.554  1.00  0.00     0.159 C 
HETATM   14  C   UNL     1      40.363 -12.496  -1.729  1.00  0.00     0.050 A 
HETATM   15  C   UNL     1      40.924 -11.758  -0.672  1.00  0.00     0.025 A 
HETATM   16  C   UNL     1      40.364 -11.945  -3.021  1.00  0.00     0.031 A 
HETATM   17  C   UNL     1      41.480 -10.494  -0.932  1.00  0.00     0.016 A 
HETATM   18  C   UNL     1      40.910 -12.315   0.689  1.00  0.00     0.096 C 
HETATM   19  C   UNL     1      41.479  -9.961  -2.221  1.00  0.00     0.001 A 
HETATM   20  C   UNL     1      40.918 -10.686  -3.264  1.00  0.00     0.002 A 
BRANCH  18  21
HETATM   21  O   UNL     1      41.457 -11.498   1.666  1.00  0.00    -0.359 OA
HETATM   22  H   UNL     1      40.765 -11.295   2.332  1.00  0.00     0.218 HD
ENDBRANCH  18  21
ENDBRANCH   6   9
BRANCH   1  23
HETATM   23  C   UNL     1      42.703 -17.104   2.734  1.00  0.00    -0.035 A 
HETATM   24  C   UNL     1      43.484 -16.888   3.875  1.00  0.00     0.012 A 
HETATM   25  C   UNL     1      44.181 -17.946   4.469  1.00  0.00     0.007 A 
HETATM   26  C   UNL     1      44.109 -19.234   3.928  1.00  0.00    -0.062 A 
HETATM   27  C   UNL     1      44.823 -20.383   4.577  1.00  0.00     0.048 C 
HETATM   28  C   UNL     1      43.313 -19.452   2.799  1.00  0.00     0.007 A 
HETATM   29  C   UNL     1      42.613 -18.396   2.209  1.00  0.00     0.012 A 
ENDBRANCH   1  23
TORSDOF 3
ENDMDL
MODEL 8
REMARK VINA RESULT:      -8.4      5.826     10.606
REMARK  3 active torsions:
REMARK  status: ('A' for Active; 'I' for Inactive)
REMARK    1  A    between atoms: C_5  and  C_6 
REMARK    2  A    between atoms: C_11  and  C_12 
REMARK    3  A    between atoms: C_23  and  O_24 
ROOT
HETATM    1  C   UNL     1      42.542  -7.697  11.991  1.00  0.00     0.031 C 
HETATM    2  C   UNL     1      41.263  -8.045  12.194  1.00  0.00     0.066 A 
HETATM    3  C   UNL     1      40.403  -8.907  11.345  1.00  0.00     0.274 A 
HETATM    4  O   UNL     1      40.681  -9.556  10.358  1.00  0.00    -0.266 OA
HETATM    5  N   UNL     1      39.155  -8.778  11.935  1.00  0.00    -0.242 N 
HETATM    6  C   UNL     1      40.340  -7.567  13.258  1.00  0.00     0.111 A 
HETATM    7  N   UNL     1      39.110  -7.987  13.058  1.00  0.00    -0.170 NA
HETATM    8  H   UNL     1      38.329  -9.255  11.592  1.00  0.00     0.192 HD
ENDROOT
BRANCH   6   9
HETATM    9  C   UNL     1      40.732  -6.694  14.385  1.00  0.00     0.098 C 
HETATM   10  C   UNL     1      40.779  -5.212  14.259  1.00  0.00     0.263 C 
HETATM   11  O   UNL     1      40.615  -4.698  13.152  1.00  0.00    -0.267 OA
HETATM   12  N   UNL     1      41.007  -4.466  15.410  1.00  0.00    -0.317 N 
HETATM   13  C   UNL     1      40.961  -3.015  15.310  1.00  0.00     0.159 C 
HETATM   14  C   UNL     1      41.371  -5.081  16.645  1.00  0.00     0.050 A 
HETATM   15  C   UNL     1      41.445  -6.483  16.717  1.00  0.00     0.025 A 
HETATM   16  C   UNL     1      41.682  -4.323  17.786  1.00  0.00     0.031 A 
HETATM   17  C   UNL     1      41.836  -7.093  17.921  1.00  0.00     0.016 A 
HETATM   18  C   UNL     1      41.100  -7.288  15.535  1.00  0.00     0.096 C 
HETATM   19  C   UNL     1      42.148  -6.328  19.044  1.00  0.00     0.001 A 
HETATM   20  C   UNL     1      42.069  -4.943  18.977  1.00  0.00     0.002 A 
BRANCH  18  21
HETATM   21  O   UNL     1      41.171  -8.660  15.716  1.00  0.00    -0.359 OA
HETATM   22  H   UNL     1      42.113  -8.935  15.679  1.00  0.00     0.218 HD
ENDBRANCH  18  21
ENDBRANCH   6   9
BRANCH   1  23
HETATM   23  C   UNL     1      43.441  -8.197  10.944  1.00  0.00    -0.035 A 
HETATM   24  C   UNL     1      43.527  -7.509   9.729  1.00  0.00     0.012 A 
HETATM   25  C   UNL     1      44.436  -7.916   8.746  1.00  0.00     0.007 A 
HETATM   26  C   UNL     1      45.270  -9.018   8.964  1.00  0.00    -0.062 A 
HETATM   27  C   UNL     1      46.272  -9.441   7.931  1.00  0.00     0.048 C 
HETATM   28  C   UNL     1      45.196  -9.692  10.187  1.00  0.00     0.007 A 
HETATM   29  C   UNL     1      44.291  -9.283  11.170  1.00  0.00     0.012 A 
ENDBRANCH   1  23
TORSDOF 3
ENDMDL
MODEL 9
REMARK VINA RESULT:      -8.2      3.275      5.303
REMARK  3 active torsions:
REMARK  status: ('A' for Active; 'I' for Inactive)
REMARK    1  A    between atoms: C_5  and  C_6 
REMARK    2  A    between atoms: C_11  and  C_12 
REMARK    3  A    between atoms: C_23  and  O_24 
ROOT
HETATM    1  C   UNL     1      42.630 -12.396   5.501  1.00  0.00     0.031 C 
HETATM    2  C   UNL     1      42.114 -13.610   5.740  1.00  0.00     0.066 A 
HETATM    3  C   UNL     1      42.449 -14.548   6.841  1.00  0.00     0.274 A 
HETATM    4  O   UNL     1      43.171 -14.393   7.804  1.00  0.00    -0.266 OA
HETATM    5  N   UNL     1      41.751 -15.695   6.496  1.00  0.00    -0.242 N 
HETATM    6  C   UNL     1      41.156 -14.381   4.901  1.00  0.00     0.111 A 
HETATM    7  N   UNL     1      40.993 -15.605   5.353  1.00  0.00    -0.170 NA
HETATM    8  H   UNL     1      41.763 -16.540   7.056  1.00  0.00     0.192 HD
ENDROOT
BRANCH   6   9
HETATM    9  C   UNL     1      40.494 -13.864   3.685  1.00  0.00     0.098 C 
HETATM   10  C   UNL     1      39.584 -12.687   3.719  1.00  0.00     0.263 C 
HETATM   11  O   UNL     1      39.266 -12.205   4.806  1.00  0.00    -0.267 OA
HETATM   12  N   UNL     1      39.130 -12.179   2.507  1.00  0.00    -0.317 N 
HETATM   13  C   UNL     1      38.317 -10.972   2.528  1.00  0.00     0.159 C 
HETATM   14  C   UNL     1      39.363 -12.856   1.272  1.00  0.00     0.050 A 
HETATM   15  C   UNL     1      40.122 -14.039   1.273  1.00  0.00     0.025 A 
HETATM   16  C   UNL     1      38.834 -12.385   0.059  1.00  0.00     0.031 A 
HETATM   17  C   UNL     1      40.326 -14.728   0.065  1.00  0.00     0.016 A 
HETATM   18  C   UNL     1      40.700 -14.529   2.533  1.00  0.00     0.096 C 
HETATM   19  C   UNL     1      39.790 -14.253  -1.132  1.00  0.00     0.001 A 
HETATM   20  C   UNL     1      39.046 -13.080  -1.134  1.00  0.00     0.002 A 
BRANCH  18  21
HETATM   21  O   UNL     1      41.458 -15.684   2.423  1.00  0.00    -0.359 OA
HETATM   22  H   UNL     1      41.548 -16.089   3.313  1.00  0.00     0.218 HD
ENDBRANCH  18  21
ENDBRANCH   6   9
BRANCH   1  23
HETATM   23  C   UNL     1      43.560 -11.646   6.352  1.00  0.00    -0.035 A 
HETATM   24  C   UNL     1      44.937 -11.844   6.205  1.00  0.00     0.012 A 
HETATM   25  C   UNL     1      45.848 -11.083   6.947  1.00  0.00     0.007 A 
HETATM   26  C   UNL     1      45.393 -10.113   7.846  1.00  0.00    -0.062 A 
HETATM   27  C   UNL     1      46.360  -9.266   8.619  1.00  0.00     0.048 C 
HETATM   28  C   UNL     1      44.017  -9.902   7.978  1.00  0.00     0.007 A 
HETATM   29  C   UNL     1      43.108 -10.660   7.234  1.00  0.00     0.012 A 
ENDBRANCH   1  23
TORSDOF 3
ENDMDL
MODEL 10
REMARK VINA RESULT:      -8.2      6.558      9.634
REMARK  3 active torsions:
REMARK  status: ('A' for Active; 'I' for Inactive)
REMARK    1  A    between atoms: C_5  and  C_6 
REMARK    2  A    between atoms: C_11  and  C_12 
REMARK    3  A    between atoms: C_23  and  O_24 
ROOT
HETATM    1  C   UNL     1      41.304 -13.637   1.241  1.00  0.00     0.031 C 
HETATM    2  C   UNL     1      40.655 -12.737   1.995  1.00  0.00     0.066 A 
HETATM    3  C   UNL     1      40.227 -12.865   3.410  1.00  0.00     0.274 A 
HETATM    4  O   UNL     1      40.448 -13.746   4.215  1.00  0.00    -0.266 OA
HETATM    5  N   UNL     1      39.462 -11.725   3.608  1.00  0.00    -0.242 N 
HETATM    6  C   UNL     1      40.094 -11.424   1.575  1.00  0.00     0.111 A 
HETATM    7  N   UNL     1      39.376 -10.876   2.531  1.00  0.00    -0.170 NA
HETATM    8  H   UNL     1      39.018 -11.504   4.492  1.00  0.00     0.192 HD
ENDROOT
BRANCH   6   9
HETATM    9  C   UNL     1      40.277 -10.816   0.241  1.00  0.00     0.098 C 
HETATM   10  C   UNL     1      39.404 -11.161  -0.913  1.00  0.00     0.263 C 
HETATM   11  O   UNL     1      38.587 -12.074  -0.796  1.00  0.00    -0.267 OA
HETATM   12  N   UNL     1      39.552 -10.427  -2.085  1.00  0.00    -0.317 N 
HETATM   13  C   UNL     1      38.637 -10.696  -3.185  1.00  0.00     0.159 C 
HETATM   14  C   UNL     1      40.620  -9.497  -2.262  1.00  0.00     0.050 A 
HETATM   15  C   UNL     1      41.515  -9.273  -1.202  1.00  0.00     0.025 A 
HETATM   16  C   UNL     1      40.817  -8.818  -3.476  1.00  0.00     0.031 A 
HETATM   17  C   UNL     1      42.589  -8.386  -1.381  1.00  0.00     0.016 A 
HETATM   18  C   UNL     1      41.306  -9.962   0.081  1.00  0.00     0.096 C 
HETATM   19  C   UNL     1      42.776  -7.722  -2.594  1.00  0.00     0.001 A 
HETATM   20  C   UNL     1      41.888  -7.937  -3.640  1.00  0.00     0.002 A 
BRANCH  18  21
HETATM   21  O   UNL     1      42.222  -9.650   1.073  1.00  0.00    -0.359 OA
HETATM   22  H   UNL     1      41.754  -9.191   1.803  1.00  0.00     0.218 HD
ENDBRANCH  18  21
ENDBRANCH   6   9
BRANCH   1  23
HETATM   23  C   UNL     1      41.865 -14.920   1.681  1.00  0.00    -0.035 A 
HETATM   24  C   UNL     1      41.014 -16.016   1.861  1.00  0.00     0.012 A 
HETATM   25  C   UNL     1      41.533 -17.270   2.199  1.00  0.00     0.007 A 
HETATM   26  C   UNL     1      42.912 -17.445   2.365  1.00  0.00    -0.062 A 
HETATM   27  C   UNL     1      43.483 -18.793   2.692  1.00  0.00     0.048 C 
HETATM   28  C   UNL     1      43.763 -16.353   2.166  1.00  0.00     0.007 A 
HETATM   29  C   UNL     1      43.244 -15.102   1.823  1.00  0.00     0.012 A 
ENDBRANCH   1  23
TORSDOF 3
ENDMDL
