MODEL 1
REMARK VINA RESULT:      -8.5      0.000      0.000
REMARK  5 active torsions:
REMARK  status: ('A' for Active; 'I' for Inactive)
REMARK    1  A    between atoms: N_3  and  C_4 
REMARK    2  A    between atoms: C_5  and  C_6 
REMARK    3  A    between atoms: C_15  and  C_16 
REMARK       I    between atoms: C_16  and  N_17 
REMARK    4  A    between atoms: N_17  and  N_18 
REMARK       I    between atoms: N_18  and  C_19 
REMARK    5  A    between atoms: C_19  and  C_20 
ROOT
HETATM    1  C   UNL     1      40.493 -16.133   6.130  1.00  0.00     0.070 C 
HETATM    2  C   UNL     1      40.829 -14.967   5.230  1.00  0.00     0.036 A 
HETATM    3  N   UNL     1      41.868 -15.075   4.297  1.00  0.00    -0.237 N 
HETATM    4  N   UNL     1      42.347 -14.019   3.566  1.00  0.00    -0.158 NA
HETATM    5  C   UNL     1      41.759 -12.859   3.676  1.00  0.00     0.196 A 
HETATM    6  C   UNL     1      40.552 -12.689   4.561  1.00  0.00     0.209 A 
HETATM    7  O   UNL     1      39.935 -11.632   4.572  1.00  0.00    -0.286 OA
HETATM    8  C   UNL     1      40.152 -13.823   5.398  1.00  0.00     0.084 A 
ENDROOT
BRANCH   5   9
HETATM    9  C   UNL     1      42.355 -11.701   2.881  1.00  0.00     0.294 C 
HETATM   10  N   UNL     1      41.529 -11.125   1.936  1.00  0.00    -0.261 N 
HETATM   11  H   UNL     1      40.525 -11.336   1.877  1.00  0.00     0.190 HD
HETATM   12  O   UNL     1      43.498 -11.312   3.093  1.00  0.00    -0.264 OA
BRANCH  10  13
HETATM   13  N   UNL     1      41.967  -9.946   1.316  1.00  0.00    -0.262 N 
HETATM   14  C   UNL     1      41.732  -9.766  -0.030  1.00  0.00     0.286 C 
HETATM   15  O   UNL     1      41.248 -10.653  -0.733  1.00  0.00    -0.264 OA
HETATM   16  H   UNL     1      42.275  -9.196   1.930  1.00  0.00     0.190 HD
BRANCH  14  17
HETATM   17  C   UNL     1      42.085  -8.464  -0.557  1.00  0.00     0.102 A 
HETATM   18  N   UNL     1      41.686  -7.305   0.075  1.00  0.00    -0.361 N 
HETATM   19  H   UNL     1      41.134  -7.292   0.925  1.00  0.00     0.165 HD
HETATM   20  C   UNL     1      42.138  -6.210  -0.609  1.00  0.00     0.088 A 
HETATM   21  C   UNL     1      42.846  -6.657  -1.700  1.00  0.00     0.019 A 
HETATM   22  C   UNL     1      42.814  -8.074  -1.670  1.00  0.00     0.036 A 
ENDBRANCH  14  17
ENDBRANCH  10  13
ENDBRANCH   5   9
BRANCH   3  23
HETATM   23  C   UNL     1      42.583 -16.286   4.042  1.00  0.00     0.073 A 
HETATM   24  C   UNL     1      43.637 -16.719   4.875  1.00  0.00     0.076 A 
HETATM   25  C   UNL     1      44.332 -17.903   4.546  1.00  0.00     0.018 A 
HETATM   26  C   UNL     1      43.986 -18.653   3.425  1.00  0.00     0.001 A 
HETATM   27  C   UNL     1      42.949 -18.229   2.603  1.00  0.00     0.002 A 
HETATM   28  C   UNL     1      42.261 -17.053   2.905  1.00  0.00     0.032 A 
BRANCH  24  29
HETATM   29  C   UNL     1      44.043 -15.958   6.115  1.00  0.00     0.419 C 
HETATM   30  F   UNL     1      43.280 -16.217   7.216  1.00  0.00    -0.166 F 
HETATM   31  F   UNL     1      45.320 -16.269   6.507  1.00  0.00    -0.166 F 
HETATM   32  F   UNL     1      44.050 -14.608   5.948  1.00  0.00    -0.166 F 
ENDBRANCH  24  29
ENDBRANCH   3  23
TORSDOF 5
ENDMDL
MODEL 2
REMARK VINA RESULT:      -8.4      1.836      2.305
REMARK  5 active torsions:
REMARK  status: ('A' for Active; 'I' for Inactive)
REMARK    1  A    between atoms: N_3  and  C_4 
REMARK    2  A    between atoms: C_5  and  C_6 
REMARK    3  A    between atoms: C_15  and  C_16 
REMARK       I    between atoms: C_16  and  N_17 
REMARK    4  A    between atoms: N_17  and  N_18 
REMARK       I    between atoms: N_18  and  C_19 
REMARK    5  A    between atoms: C_19  and  C_20 
ROOT
HETATM    1  C   UNL     1      40.323 -15.465   6.409  1.00  0.00     0.070 C 
HETATM    2  C   UNL     1      40.694 -14.413   5.389  1.00  0.00     0.036 A 
HETATM    3  N   UNL     1      41.890 -14.521   4.669  1.00  0.00    -0.237 N 
HETATM    4  N   UNL     1      42.380 -13.532   3.857  1.00  0.00    -0.158 NA
HETATM    5  C   UNL     1      41.664 -12.457   3.670  1.00  0.00     0.196 A 
HETATM    6  C   UNL     1      40.305 -12.318   4.305  1.00  0.00     0.209 A 
HETATM    7  O   UNL     1      39.589 -11.363   4.035  1.00  0.00    -0.286 OA
HETATM    8  C   UNL     1      39.881 -13.356   5.248  1.00  0.00     0.084 A 
ENDROOT
BRANCH   5   9
HETATM    9  C   UNL     1      42.270 -11.363   2.796  1.00  0.00     0.294 C 
HETATM   10  N   UNL     1      41.516 -10.969   1.708  1.00  0.00    -0.261 N 
HETATM   11  H   UNL     1      40.539 -11.260   1.578  1.00  0.00     0.190 HD
HETATM   12  O   UNL     1      43.357 -10.867   3.068  1.00  0.00    -0.264 OA
BRANCH  10  13
HETATM   13  N   UNL     1      41.945  -9.844   0.988  1.00  0.00    -0.262 N 
HETATM   14  C   UNL     1      41.793  -9.823  -0.382  1.00  0.00     0.286 C 
HETATM   15  O   UNL     1      41.394 -10.803  -1.009  1.00  0.00    -0.264 OA
HETATM   16  H   UNL     1      42.180  -9.018   1.532  1.00  0.00     0.190 HD
BRANCH  14  17
HETATM   17  C   UNL     1      42.125  -8.571  -1.028  1.00  0.00     0.102 A 
HETATM   18  N   UNL     1      42.631  -7.507  -0.309  1.00  0.00    -0.361 N 
HETATM   19  H   UNL     1      42.795  -7.535   0.691  1.00  0.00     0.165 HD
HETATM   20  C   UNL     1      42.865  -6.442  -1.135  1.00  0.00     0.088 A 
HETATM   21  C   UNL     1      42.513  -6.814  -2.411  1.00  0.00     0.019 A 
HETATM   22  C   UNL     1      42.047  -8.151  -2.347  1.00  0.00     0.036 A 
ENDBRANCH  14  17
ENDBRANCH  10  13
ENDBRANCH   5   9
BRANCH   3  23
HETATM   23  C   UNL     1      42.762 -15.650   4.745  1.00  0.00     0.073 A 
HETATM   24  C   UNL     1      42.705 -16.701   3.804  1.00  0.00     0.076 A 
HETATM   25  C   UNL     1      43.565 -17.809   3.958  1.00  0.00     0.018 A 
HETATM   26  C   UNL     1      44.476 -17.874   5.010  1.00  0.00     0.001 A 
HETATM   27  C   UNL     1      44.534 -16.842   5.938  1.00  0.00     0.002 A 
HETATM   28  C   UNL     1      43.680 -15.746   5.809  1.00  0.00     0.032 A 
BRANCH  24  29
HETATM   29  C   UNL     1      41.754 -16.677   2.632  1.00  0.00     0.419 C 
HETATM   30  F   UNL     1      42.065 -15.763   1.666  1.00  0.00    -0.166 F 
HETATM   31  F   UNL     1      41.732 -17.876   1.968  1.00  0.00    -0.166 F 
HETATM   32  F   UNL     1      40.459 -16.452   2.984  1.00  0.00    -0.166 F 
ENDBRANCH  24  29
ENDBRANCH   3  23
TORSDOF 5
ENDMDL
MODEL 3
REMARK VINA RESULT:      -8.0      4.937      8.083
REMARK  5 active torsions:
REMARK  status: ('A' for Active; 'I' for Inactive)
REMARK    1  A    between atoms: N_3  and  C_4 
REMARK    2  A    between atoms: C_5  and  C_6 
REMARK    3  A    between atoms: C_15  and  C_16 
REMARK       I    between atoms: C_16  and  N_17 
REMARK    4  A    between atoms: N_17  and  N_18 
REMARK       I    between atoms: N_18  and  C_19 
REMARK    5  A    between atoms: C_19  and  C_20 
ROOT
HETATM    1  C   UNL     1      39.072 -14.788  -1.916  1.00  0.00     0.070 C 
HETATM    2  C   UNL     1      39.667 -14.141  -0.687  1.00  0.00     0.036 A 
HETATM    3  N   UNL     1      39.607 -12.751  -0.524  1.00  0.00    -0.237 N 
HETATM    4  N   UNL     1      40.266 -12.073   0.467  1.00  0.00    -0.158 NA
HETATM    5  C   UNL     1      40.925 -12.753   1.365  1.00  0.00     0.196 A 
HETATM    6  C   UNL     1      40.933 -14.259   1.337  1.00  0.00     0.209 A 
HETATM    7  O   UNL     1      41.455 -14.893   2.244  1.00  0.00    -0.286 OA
HETATM    8  C   UNL     1      40.303 -14.925   0.194  1.00  0.00     0.084 A 
ENDROOT
BRANCH   5   9
HETATM    9  C   UNL     1      41.683 -11.954   2.422  1.00  0.00     0.294 C 
HETATM   10  N   UNL     1      41.444 -12.307   3.736  1.00  0.00    -0.261 N 
HETATM   11  H   UNL     1      40.927 -13.157   3.994  1.00  0.00     0.190 HD
HETATM   12  O   UNL     1      42.463 -11.065   2.102  1.00  0.00    -0.264 OA
BRANCH  10  13
HETATM   13  N   UNL     1      42.253 -11.730   4.725  1.00  0.00    -0.262 N 
HETATM   14  C   UNL     1      43.086 -12.538   5.470  1.00  0.00     0.286 C 
HETATM   15  O   UNL     1      43.063 -13.764   5.372  1.00  0.00    -0.264 OA
HETATM   16  H   UNL     1      42.323 -10.716   4.722  1.00  0.00     0.190 HD
BRANCH  14  17
HETATM   17  C   UNL     1      43.989 -11.847   6.365  1.00  0.00     0.102 A 
HETATM   18  N   UNL     1      43.581 -11.438   7.618  1.00  0.00    -0.361 N 
HETATM   19  H   UNL     1      42.647 -11.591   7.980  1.00  0.00     0.165 HD
HETATM   20  C   UNL     1      44.606 -10.811   8.272  1.00  0.00     0.088 A 
HETATM   21  C   UNL     1      45.700 -10.813   7.440  1.00  0.00     0.019 A 
HETATM   22  C   UNL     1      45.316 -11.463   6.240  1.00  0.00     0.036 A 
ENDBRANCH  14  17
ENDBRANCH  10  13
ENDBRANCH   5   9
BRANCH   3  23
HETATM   23  C   UNL     1      38.897 -11.879  -1.406  1.00  0.00     0.073 A 
HETATM   24  C   UNL     1      39.512 -11.300  -2.537  1.00  0.00     0.076 A 
HETATM   25  C   UNL     1      38.769 -10.413  -3.345  1.00  0.00     0.018 A 
HETATM   26  C   UNL     1      37.440 -10.115  -3.054  1.00  0.00     0.001 A 
HETATM   27  C   UNL     1      36.832 -10.684  -1.942  1.00  0.00     0.002 A 
HETATM   28  C   UNL     1      37.557 -11.551  -1.123  1.00  0.00     0.032 A 
BRANCH  24  29
HETATM   29  C   UNL     1      40.943 -11.602  -2.914  1.00  0.00     0.419 C 
HETATM   30  F   UNL     1      41.173 -12.896  -3.280  1.00  0.00    -0.166 F 
HETATM   31  F   UNL     1      41.350 -10.867  -3.997  1.00  0.00    -0.166 F 
HETATM   32  F   UNL     1      41.840 -11.303  -1.936  1.00  0.00    -0.166 F 
ENDBRANCH  24  29
ENDBRANCH   3  23
TORSDOF 5
ENDMDL
MODEL 4
REMARK VINA RESULT:      -7.9     16.823     19.086
REMARK  5 active torsions:
REMARK  status: ('A' for Active; 'I' for Inactive)
REMARK    1  A    between atoms: N_3  and  C_4 
REMARK    2  A    between atoms: C_5  and  C_6 
REMARK    3  A    between atoms: C_15  and  C_16 
REMARK       I    between atoms: C_16  and  N_17 
REMARK    4  A    between atoms: N_17  and  N_18 
REMARK       I    between atoms: N_18  and  C_19 
REMARK    5  A    between atoms: C_19  and  C_20 
ROOT
HETATM    1  C   UNL     1      47.610 -27.968  -1.952  1.00  0.00     0.070 C 
HETATM    2  C   UNL     1      46.936 -28.656  -0.787  1.00  0.00     0.036 A 
HETATM    3  N   UNL     1      46.229 -29.848  -0.986  1.00  0.00    -0.237 N 
HETATM    4  N   UNL     1      45.453 -30.441  -0.025  1.00  0.00    -0.158 NA
HETATM    5  C   UNL     1      45.426 -29.922   1.172  1.00  0.00     0.196 A 
HETATM    6  C   UNL     1      46.260 -28.713   1.505  1.00  0.00     0.209 A 
HETATM    7  O   UNL     1      46.320 -28.300   2.655  1.00  0.00    -0.286 OA
HETATM    8  C   UNL     1      46.984 -28.059   0.413  1.00  0.00     0.084 A 
ENDROOT
BRANCH   5   9
HETATM    9  C   UNL     1      44.511 -30.587   2.196  1.00  0.00     0.294 C 
HETATM   10  N   UNL     1      43.562 -29.772   2.782  1.00  0.00    -0.261 N 
HETATM   11  H   UNL     1      43.361 -28.825   2.440  1.00  0.00     0.190 HD
HETATM   12  O   UNL     1      44.619 -31.780   2.459  1.00  0.00    -0.264 OA
BRANCH  10  13
HETATM   13  N   UNL     1      42.585 -30.378   3.585  1.00  0.00    -0.262 N 
HETATM   14  C   UNL     1      41.388 -30.760   3.018  1.00  0.00     0.286 C 
HETATM   15  O   UNL     1      41.102 -30.486   1.853  1.00  0.00    -0.264 OA
HETATM   16  H   UNL     1      42.878 -30.677   4.512  1.00  0.00     0.190 HD
BRANCH  14  17
HETATM   17  C   UNL     1      40.498 -31.507   3.880  1.00  0.00     0.102 A 
HETATM   18  N   UNL     1      39.509 -32.315   3.359  1.00  0.00    -0.361 N 
HETATM   19  H   UNL     1      39.348 -32.433   2.365  1.00  0.00     0.165 HD
HETATM   20  C   UNL     1      38.802 -32.913   4.366  1.00  0.00     0.088 A 
HETATM   21  C   UNL     1      39.337 -32.494   5.562  1.00  0.00     0.019 A 
HETATM   22  C   UNL     1      40.402 -31.610   5.260  1.00  0.00     0.036 A 
ENDBRANCH  14  17
ENDBRANCH  10  13
ENDBRANCH   5   9
BRANCH   3  23
HETATM   23  C   UNL     1      46.192 -30.550  -2.230  1.00  0.00     0.073 A 
HETATM   24  C   UNL     1      45.216 -30.277  -3.212  1.00  0.00     0.076 A 
HETATM   25  C   UNL     1      45.208 -31.034  -4.403  1.00  0.00     0.018 A 
HETATM   26  C   UNL     1      46.153 -32.032  -4.629  1.00  0.00     0.001 A 
HETATM   27  C   UNL     1      47.115 -32.304  -3.664  1.00  0.00     0.002 A 
HETATM   28  C   UNL     1      47.128 -31.574  -2.475  1.00  0.00     0.032 A 
BRANCH  24  29
HETATM   29  C   UNL     1      44.179 -29.194  -3.032  1.00  0.00     0.419 C 
HETATM   30  F   UNL     1      44.663 -27.922  -3.132  1.00  0.00    -0.166 F 
HETATM   31  F   UNL     1      43.201 -29.260  -3.991  1.00  0.00    -0.166 F 
HETATM   32  F   UNL     1      43.511 -29.269  -1.850  1.00  0.00    -0.166 F 
ENDBRANCH  24  29
ENDBRANCH   3  23
TORSDOF 5
ENDMDL
MODEL 5
REMARK VINA RESULT:      -7.9      5.039      8.345
REMARK  5 active torsions:
REMARK  status: ('A' for Active; 'I' for Inactive)
REMARK    1  A    between atoms: N_3  and  C_4 
REMARK    2  A    between atoms: C_5  and  C_6 
REMARK    3  A    between atoms: C_15  and  C_16 
REMARK       I    between atoms: C_16  and  N_17 
REMARK    4  A    between atoms: N_17  and  N_18 
REMARK       I    between atoms: N_18  and  C_19 
REMARK    5  A    between atoms: C_19  and  C_20 
ROOT
HETATM    1  C   UNL     1      42.130  -7.341   7.274  1.00  0.00     0.070 C 
HETATM    2  C   UNL     1      42.235  -8.813   6.948  1.00  0.00     0.036 A 
HETATM    3  N   UNL     1      42.568  -9.733   7.950  1.00  0.00    -0.237 N 
HETATM    4  N   UNL     1      42.849 -11.053   7.707  1.00  0.00    -0.158 NA
HETATM    5  C   UNL     1      42.725 -11.509   6.491  1.00  0.00     0.196 A 
HETATM    6  C   UNL     1      42.246 -10.615   5.377  1.00  0.00     0.209 A 
HETATM    7  O   UNL     1      42.022 -11.074   4.266  1.00  0.00    -0.286 OA
HETATM    8  C   UNL     1      42.065  -9.191   5.674  1.00  0.00     0.084 A 
ENDROOT
BRANCH   5   9
HETATM    9  C   UNL     1      43.095 -12.971   6.258  1.00  0.00     0.294 C 
HETATM   10  N   UNL     1      42.124 -13.756   5.667  1.00  0.00    -0.261 N 
HETATM   11  H   UNL     1      41.271 -13.361   5.252  1.00  0.00     0.190 HD
HETATM   12  O   UNL     1      44.199 -13.401   6.572  1.00  0.00    -0.264 OA
BRANCH  10  13
HETATM   13  N   UNL     1      42.483 -15.051   5.267  1.00  0.00    -0.262 N 
HETATM   14  C   UNL     1      42.761 -15.292   3.938  1.00  0.00     0.286 C 
HETATM   15  O   UNL     1      42.597 -14.435   3.071  1.00  0.00    -0.264 OA
HETATM   16  H   UNL     1      42.703 -15.712   6.007  1.00  0.00     0.190 HD
BRANCH  14  17
HETATM   17  C   UNL     1      43.264 -16.616   3.636  1.00  0.00     0.102 A 
HETATM   18  N   UNL     1      43.916 -17.369   4.591  1.00  0.00    -0.361 N 
HETATM   19  H   UNL     1      44.079 -17.050   5.539  1.00  0.00     0.165 HD
HETATM   20  C   UNL     1      44.295 -18.575   4.069  1.00  0.00     0.088 A 
HETATM   21  C   UNL     1      43.883 -18.615   2.758  1.00  0.00     0.019 A 
HETATM   22  C   UNL     1      43.235 -17.385   2.483  1.00  0.00     0.036 A 
ENDBRANCH  14  17
ENDBRANCH  10  13
ENDBRANCH   5   9
BRANCH   3  23
HETATM   23  C   UNL     1      42.707  -9.389   9.329  1.00  0.00     0.073 A 
HETATM   24  C   UNL     1      43.972  -9.219   9.932  1.00  0.00     0.076 A 
HETATM   25  C   UNL     1      44.042  -8.920  11.310  1.00  0.00     0.018 A 
HETATM   26  C   UNL     1      42.888  -8.777  12.076  1.00  0.00     0.001 A 
HETATM   27  C   UNL     1      41.641  -8.944  11.486  1.00  0.00     0.002 A 
HETATM   28  C   UNL     1      41.554  -9.254  10.128  1.00  0.00     0.032 A 
BRANCH  24  29
HETATM   29  C   UNL     1      45.256  -9.342   9.148  1.00  0.00     0.419 C 
HETATM   30  F   UNL     1      45.391  -8.440   8.133  1.00  0.00    -0.166 F 
HETATM   31  F   UNL     1      46.357  -9.130   9.937  1.00  0.00    -0.166 F 
HETATM   32  F   UNL     1      45.450 -10.576   8.608  1.00  0.00    -0.166 F 
ENDBRANCH  24  29
ENDBRANCH   3  23
TORSDOF 5
ENDMDL
MODEL 6
REMARK VINA RESULT:      -7.8      6.578      9.618
REMARK  5 active torsions:
REMARK  status: ('A' for Active; 'I' for Inactive)
REMARK    1  A    between atoms: N_3  and  C_4 
REMARK    2  A    between atoms: C_5  and  C_6 
REMARK    3  A    between atoms: C_15  and  C_16 
REMARK       I    between atoms: C_16  and  N_17 
REMARK    4  A    between atoms: N_17  and  N_18 
REMARK       I    between atoms: N_18  and  C_19 
REMARK    5  A    between atoms: C_19  and  C_20 
ROOT
HETATM    1  C   UNL     1      43.552  -8.267  12.209  1.00  0.00     0.070 C 
HETATM    2  C   UNL     1      43.639  -8.940  10.859  1.00  0.00     0.036 A 
HETATM    3  N   UNL     1      42.545  -8.911   9.985  1.00  0.00    -0.237 N 
HETATM    4  N   UNL     1      42.479  -9.635   8.823  1.00  0.00    -0.158 NA
HETATM    5  C   UNL     1      43.520 -10.332   8.457  1.00  0.00     0.196 A 
HETATM    6  C   UNL     1      44.785 -10.315   9.274  1.00  0.00     0.209 A 
HETATM    7  O   UNL     1      45.793 -10.877   8.868  1.00  0.00    -0.286 OA
HETATM    8  C   UNL     1      44.759  -9.612  10.559  1.00  0.00     0.084 A 
ENDROOT
BRANCH   5   9
HETATM    9  C   UNL     1      43.385 -11.160   7.182  1.00  0.00     0.294 C 
HETATM   10  N   UNL     1      43.594 -12.519   7.317  1.00  0.00    -0.261 N 
HETATM   11  H   UNL     1      43.667 -12.979   8.233  1.00  0.00     0.190 HD
HETATM   12  O   UNL     1      43.095 -10.634   6.114  1.00  0.00    -0.264 OA
BRANCH  10  13
HETATM   13  N   UNL     1      43.300 -13.338   6.217  1.00  0.00    -0.262 N 
HETATM   14  C   UNL     1      42.843 -14.620   6.436  1.00  0.00     0.286 C 
HETATM   15  O   UNL     1      42.789 -15.111   7.563  1.00  0.00    -0.264 OA
HETATM   16  H   UNL     1      43.262 -12.884   5.308  1.00  0.00     0.190 HD
BRANCH  14  17
HETATM   17  C   UNL     1      42.426 -15.345   5.254  1.00  0.00     0.102 A 
HETATM   18  N   UNL     1      41.137 -15.246   4.772  1.00  0.00    -0.361 N 
HETATM   19  H   UNL     1      40.420 -14.675   5.205  1.00  0.00     0.165 HD
HETATM   20  C   UNL     1      40.986 -16.018   3.653  1.00  0.00     0.088 A 
HETATM   21  C   UNL     1      42.192 -16.626   3.395  1.00  0.00     0.019 A 
HETATM   22  C   UNL     1      43.098 -16.206   4.400  1.00  0.00     0.036 A 
ENDBRANCH  14  17
ENDBRANCH  10  13
ENDBRANCH   5   9
BRANCH   3  23
HETATM   23  C   UNL     1      41.351  -8.166  10.234  1.00  0.00     0.073 A 
HETATM   24  C   UNL     1      41.218  -6.816   9.845  1.00  0.00     0.076 A 
HETATM   25  C   UNL     1      40.029  -6.124  10.158  1.00  0.00     0.018 A 
HETATM   26  C   UNL     1      38.983  -6.754  10.829  1.00  0.00     0.001 A 
HETATM   27  C   UNL     1      39.111  -8.083  11.213  1.00  0.00     0.002 A 
HETATM   28  C   UNL     1      40.286  -8.778  10.925  1.00  0.00     0.032 A 
BRANCH  24  29
HETATM   29  C   UNL     1      42.309  -6.087   9.098  1.00  0.00     0.419 C 
HETATM   30  F   UNL     1      42.698  -6.683   7.934  1.00  0.00    -0.166 F 
HETATM   31  F   UNL     1      41.914  -4.830   8.718  1.00  0.00    -0.166 F 
HETATM   32  F   UNL     1      43.436  -5.888   9.834  1.00  0.00    -0.166 F 
ENDBRANCH  24  29
ENDBRANCH   3  23
TORSDOF 5
ENDMDL
MODEL 7
REMARK VINA RESULT:      -7.8      4.523      6.379
REMARK  5 active torsions:
REMARK  status: ('A' for Active; 'I' for Inactive)
REMARK    1  A    between atoms: N_3  and  C_4 
REMARK    2  A    between atoms: C_5  and  C_6 
REMARK    3  A    between atoms: C_15  and  C_16 
REMARK       I    between atoms: C_16  and  N_17 
REMARK    4  A    between atoms: N_17  and  N_18 
REMARK       I    between atoms: N_18  and  C_19 
REMARK    5  A    between atoms: C_19  and  C_20 
ROOT
HETATM    1  C   UNL     1      39.433 -14.208   2.289  1.00  0.00     0.070 C 
HETATM    2  C   UNL     1      40.172 -13.274   3.218  1.00  0.00     0.036 A 
HETATM    3  N   UNL     1      41.429 -13.631   3.722  1.00  0.00    -0.237 N 
HETATM    4  N   UNL     1      42.086 -12.926   4.697  1.00  0.00    -0.158 NA
HETATM    5  C   UNL     1      41.561 -11.813   5.131  1.00  0.00     0.196 A 
HETATM    6  C   UNL     1      40.274 -11.290   4.548  1.00  0.00     0.209 A 
HETATM    7  O   UNL     1      39.847 -10.192   4.876  1.00  0.00    -0.286 OA
HETATM    8  C   UNL     1      39.563 -12.139   3.589  1.00  0.00     0.084 A 
ENDROOT
BRANCH   5   9
HETATM    9  C   UNL     1      42.303 -11.087   6.250  1.00  0.00     0.294 C 
HETATM   10  N   UNL     1      41.514 -10.525   7.235  1.00  0.00    -0.261 N 
HETATM   11  H   UNL     1      40.509 -10.719   7.315  1.00  0.00     0.190 HD
HETATM   12  O   UNL     1      43.527 -11.028   6.262  1.00  0.00    -0.264 OA
BRANCH  10  13
HETATM   13  N   UNL     1      42.155 -10.012   8.372  1.00  0.00    -0.262 N 
HETATM   14  C   UNL     1      41.443  -9.219   9.246  1.00  0.00     0.286 C 
HETATM   15  O   UNL     1      40.293  -8.853   9.006  1.00  0.00    -0.264 OA
HETATM   16  H   UNL     1      43.067 -10.402   8.596  1.00  0.00     0.190 HD
BRANCH  14  17
HETATM   17  C   UNL     1      42.135  -8.853  10.463  1.00  0.00     0.102 A 
HETATM   18  N   UNL     1      41.450  -8.365  11.557  1.00  0.00    -0.361 N 
HETATM   19  H   UNL     1      40.445  -8.236  11.575  1.00  0.00     0.165 HD
HETATM   20  C   UNL     1      42.316  -8.093  12.580  1.00  0.00     0.088 A 
HETATM   21  C   UNL     1      43.584  -8.409  12.153  1.00  0.00     0.019 A 
HETATM   22  C   UNL     1      43.474  -8.887  10.823  1.00  0.00     0.036 A 
ENDBRANCH  14  17
ENDBRANCH  10  13
ENDBRANCH   5   9
BRANCH   3  23
HETATM   23  C   UNL     1      42.142 -14.802   3.318  1.00  0.00     0.073 A 
HETATM   24  C   UNL     1      42.232 -15.943   4.144  1.00  0.00     0.076 A 
HETATM   25  C   UNL     1      42.987 -17.052   3.705  1.00  0.00     0.018 A 
HETATM   26  C   UNL     1      43.630 -17.042   2.469  1.00  0.00     0.001 A 
HETATM   27  C   UNL     1      43.543 -15.920   1.654  1.00  0.00     0.002 A 
HETATM   28  C   UNL     1      42.813 -14.810   2.079  1.00  0.00     0.032 A 
BRANCH  24  29
HETATM   29  C   UNL     1      41.541 -16.019   5.484  1.00  0.00     0.419 C 
HETATM   30  F   UNL     1      40.184 -15.874   5.433  1.00  0.00    -0.166 F 
HETATM   31  F   UNL     1      41.728 -17.237   6.085  1.00  0.00    -0.166 F 
HETATM   32  F   UNL     1      42.000 -15.112   6.388  1.00  0.00    -0.166 F 
ENDBRANCH  24  29
ENDBRANCH   3  23
TORSDOF 5
ENDMDL
MODEL 8
REMARK VINA RESULT:      -7.7      4.659      6.903
REMARK  5 active torsions:
REMARK  status: ('A' for Active; 'I' for Inactive)
REMARK    1  A    between atoms: N_3  and  C_4 
REMARK    2  A    between atoms: C_5  and  C_6 
REMARK    3  A    between atoms: C_15  and  C_16 
REMARK       I    between atoms: C_16  and  N_17 
REMARK    4  A    between atoms: N_17  and  N_18 
REMARK       I    between atoms: N_18  and  C_19 
REMARK    5  A    between atoms: C_19  and  C_20 
ROOT
HETATM    1  C   UNL     1      42.771 -14.517   2.909  1.00  0.00     0.070 C 
HETATM    2  C   UNL     1      42.684 -13.360   3.877  1.00  0.00     0.036 A 
HETATM    3  N   UNL     1      42.742 -13.592   5.257  1.00  0.00    -0.237 N 
HETATM    4  N   UNL     1      42.501 -12.627   6.201  1.00  0.00    -0.158 NA
HETATM    5  C   UNL     1      42.285 -11.402   5.808  1.00  0.00     0.196 A 
HETATM    6  C   UNL     1      42.333 -11.042   4.346  1.00  0.00     0.209 A 
HETATM    7  O   UNL     1      42.244  -9.875   3.991  1.00  0.00    -0.286 OA
HETATM    8  C   UNL     1      42.487 -12.132   3.379  1.00  0.00     0.084 A 
ENDROOT
BRANCH   5   9
HETATM    9  C   UNL     1      41.974 -10.372   6.890  1.00  0.00     0.294 C 
HETATM   10  N   UNL     1      40.696 -10.407   7.412  1.00  0.00    -0.261 N 
HETATM   11  H   UNL     1      40.041 -11.176   7.220  1.00  0.00     0.190 HD
HETATM   12  O   UNL     1      42.826  -9.576   7.268  1.00  0.00    -0.264 OA
BRANCH  10  13
HETATM   13  N   UNL     1      40.424  -9.607   8.532  1.00  0.00    -0.262 N 
HETATM   14  C   UNL     1      39.331  -9.900   9.319  1.00  0.00     0.286 C 
HETATM   15  O   UNL     1      38.520 -10.772   9.011  1.00  0.00    -0.264 OA
HETATM   16  H   UNL     1      41.154  -8.959   8.816  1.00  0.00     0.190 HD
BRANCH  14  17
HETATM   17  C   UNL     1      39.208  -9.118  10.531  1.00  0.00     0.102 A 
HETATM   18  N   UNL     1      38.426  -7.982  10.573  1.00  0.00    -0.361 N 
HETATM   19  H   UNL     1      37.904  -7.633   9.778  1.00  0.00     0.165 HD
HETATM   20  C   UNL     1      38.468  -7.420  11.819  1.00  0.00     0.088 A 
HETATM   21  C   UNL     1      39.284  -8.199  12.605  1.00  0.00     0.019 A 
HETATM   22  C   UNL     1      39.751  -9.267  11.798  1.00  0.00     0.036 A 
ENDBRANCH  14  17
ENDBRANCH  10  13
ENDBRANCH   5   9
BRANCH   3  23
HETATM   23  C   UNL     1      43.003 -14.871   5.837  1.00  0.00     0.073 A 
HETATM   24  C   UNL     1      41.964 -15.769   6.162  1.00  0.00     0.076 A 
HETATM   25  C   UNL     1      42.285 -17.001   6.771  1.00  0.00     0.018 A 
HETATM   26  C   UNL     1      43.607 -17.349   7.041  1.00  0.00     0.001 A 
HETATM   27  C   UNL     1      44.632 -16.468   6.722  1.00  0.00     0.002 A 
HETATM   28  C   UNL     1      44.331 -15.239   6.133  1.00  0.00     0.032 A 
BRANCH  24  29
HETATM   29  C   UNL     1      40.515 -15.456   5.875  1.00  0.00     0.419 C 
HETATM   30  F   UNL     1      40.193 -15.422   4.549  1.00  0.00    -0.166 F 
HETATM   31  F   UNL     1      39.675 -16.402   6.403  1.00  0.00    -0.166 F 
HETATM   32  F   UNL     1      40.094 -14.279   6.413  1.00  0.00    -0.166 F 
ENDBRANCH  24  29
ENDBRANCH   3  23
TORSDOF 5
ENDMDL
MODEL 9
REMARK VINA RESULT:      -7.7      4.399      6.304
REMARK  5 active torsions:
REMARK  status: ('A' for Active; 'I' for Inactive)
REMARK    1  A    between atoms: N_3  and  C_4 
REMARK    2  A    between atoms: C_5  and  C_6 
REMARK    3  A    between atoms: C_15  and  C_16 
REMARK       I    between atoms: C_16  and  N_17 
REMARK    4  A    between atoms: N_17  and  N_18 
REMARK       I    between atoms: N_18  and  C_19 
REMARK    5  A    between atoms: C_19  and  C_20 
ROOT
HETATM    1  C   UNL     1      39.641 -15.526   2.495  1.00  0.00     0.070 C 
HETATM    2  C   UNL     1      40.124 -14.315   3.258  1.00  0.00     0.036 A 
HETATM    3  N   UNL     1      41.261 -14.402   4.072  1.00  0.00    -0.237 N 
HETATM    4  N   UNL     1      41.665 -13.407   4.924  1.00  0.00    -0.158 NA
HETATM    5  C   UNL     1      41.011 -12.278   4.928  1.00  0.00     0.196 A 
HETATM    6  C   UNL     1      39.854 -12.055   3.989  1.00  0.00     0.209 A 
HETATM    7  O   UNL     1      39.319 -10.957   3.915  1.00  0.00    -0.286 OA
HETATM    8  C   UNL     1      39.401 -13.189   3.181  1.00  0.00     0.084 A 
ENDROOT
BRANCH   5   9
HETATM    9  C   UNL     1      41.466 -11.217   5.926  1.00  0.00     0.294 C 
HETATM   10  N   UNL     1      40.524 -10.810   6.850  1.00  0.00    -0.261 N 
HETATM   11  H   UNL     1      39.630 -11.299   6.980  1.00  0.00     0.190 HD
HETATM   12  O   UNL     1      42.609 -10.774   5.900  1.00  0.00    -0.264 OA
BRANCH  10  13
HETATM   13  N   UNL     1      40.951  -9.979   7.896  1.00  0.00    -0.262 N 
HETATM   14  C   UNL     1      40.018  -9.466   8.772  1.00  0.00     0.286 C 
HETATM   15  O   UNL     1      38.809  -9.621   8.602  1.00  0.00    -0.264 OA
HETATM   16  H   UNL     1      41.952  -9.943   8.070  1.00  0.00     0.190 HD
BRANCH  14  17
HETATM   17  C   UNL     1      40.556  -8.740   9.903  1.00  0.00     0.102 A 
HETATM   18  N   UNL     1      41.060  -9.403  11.003  1.00  0.00    -0.361 N 
HETATM   19  H   UNL     1      41.084 -10.413  11.086  1.00  0.00     0.165 HD
HETATM   20  C   UNL     1      41.507  -8.507  11.935  1.00  0.00     0.088 A 
HETATM   21  C   UNL     1      41.297  -7.243  11.438  1.00  0.00     0.019 A 
HETATM   22  C   UNL     1      40.699  -7.386  10.162  1.00  0.00     0.036 A 
ENDBRANCH  14  17
ENDBRANCH  10  13
ENDBRANCH   5   9
BRANCH   3  23
HETATM   23  C   UNL     1      42.095 -15.560   4.148  1.00  0.00     0.073 A 
HETATM   24  C   UNL     1      43.031 -15.872   3.139  1.00  0.00     0.076 A 
HETATM   25  C   UNL     1      43.796 -17.053   3.252  1.00  0.00     0.018 A 
HETATM   26  C   UNL     1      43.650 -17.904   4.346  1.00  0.00     0.001 A 
HETATM   27  C   UNL     1      42.729 -17.600   5.340  1.00  0.00     0.002 A 
HETATM   28  C   UNL     1      41.955 -16.444   5.236  1.00  0.00     0.032 A 
BRANCH  24  29
HETATM   29  C   UNL     1      43.248 -14.979   1.942  1.00  0.00     0.419 C 
HETATM   30  F   UNL     1      44.348 -15.285   1.195  1.00  0.00    -0.166 F 
HETATM   31  F   UNL     1      42.205 -15.054   1.054  1.00  0.00    -0.166 F 
HETATM   32  F   UNL     1      43.340 -13.658   2.256  1.00  0.00    -0.166 F 
ENDBRANCH  24  29
ENDBRANCH   3  23
TORSDOF 5
ENDMDL
MODEL 10
REMARK VINA RESULT:      -7.6      3.952      8.690
REMARK  5 active torsions:
REMARK  status: ('A' for Active; 'I' for Inactive)
REMARK    1  A    between atoms: N_3  and  C_4 
REMARK    2  A    between atoms: C_5  and  C_6 
REMARK    3  A    between atoms: C_15  and  C_16 
REMARK       I    between atoms: C_16  and  N_17 
REMARK    4  A    between atoms: N_17  and  N_18 
REMARK       I    between atoms: N_18  and  C_19 
REMARK    5  A    between atoms: C_19  and  C_20 
ROOT
HETATM    1  C   UNL     1      38.078  -9.703   1.719  1.00  0.00     0.070 C 
HETATM    2  C   UNL     1      38.753 -11.045   1.881  1.00  0.00     0.036 A 
HETATM    3  N   UNL     1      39.118 -11.790   0.753  1.00  0.00    -0.237 N 
HETATM    4  N   UNL     1      39.575 -13.081   0.809  1.00  0.00    -0.158 NA
HETATM    5  C   UNL     1      39.764 -13.632   1.977  1.00  0.00     0.196 A 
HETATM    6  C   UNL     1      39.519 -12.854   3.244  1.00  0.00     0.209 A 
HETATM    7  O   UNL     1      39.807 -13.334   4.332  1.00  0.00    -0.286 OA
HETATM    8  C   UNL     1      38.929 -11.519   3.123  1.00  0.00     0.084 A 
ENDROOT
BRANCH   5   9
HETATM    9  C   UNL     1      40.228 -15.085   1.992  1.00  0.00     0.294 C 
HETATM   10  N   UNL     1      41.410 -15.338   2.660  1.00  0.00    -0.261 N 
HETATM   11  H   UNL     1      41.868 -14.638   3.256  1.00  0.00     0.190 HD
HETATM   12  O   UNL     1      39.570 -15.964   1.447  1.00  0.00    -0.264 OA
BRANCH  10  13
HETATM   13  N   UNL     1      41.776 -16.677   2.858  1.00  0.00    -0.262 N 
HETATM   14  C   UNL     1      43.048 -17.085   2.515  1.00  0.00     0.286 C 
HETATM   15  O   UNL     1      43.839 -16.340   1.938  1.00  0.00    -0.264 OA
HETATM   16  H   UNL     1      41.145 -17.245   3.417  1.00  0.00     0.190 HD
BRANCH  14  17
HETATM   17  C   UNL     1      43.390 -18.442   2.885  1.00  0.00     0.102 A 
HETATM   18  N   UNL     1      43.927 -18.732   4.122  1.00  0.00    -0.361 N 
HETATM   19  H   UNL     1      44.113 -18.031   4.830  1.00  0.00     0.165 HD
HETATM   20  C   UNL     1      44.165 -20.074   4.235  1.00  0.00     0.088 A 
HETATM   21  C   UNL     1      43.773 -20.672   3.061  1.00  0.00     0.019 A 
HETATM   22  C   UNL     1      43.286 -19.649   2.210  1.00  0.00     0.036 A 
ENDBRANCH  14  17
ENDBRANCH  10  13
ENDBRANCH   5   9
BRANCH   3  23
HETATM   23  C   UNL     1      39.001 -11.309  -0.587  1.00  0.00     0.073 A 
HETATM   24  C   UNL     1      39.992 -10.496  -1.177  1.00  0.00     0.076 A 
HETATM   25  C   UNL     1      39.797 -10.018  -2.491  1.00  0.00     0.018 A 
HETATM   26  C   UNL     1      38.654 -10.347  -3.215  1.00  0.00     0.001 A 
HETATM   27  C   UNL     1      37.676 -11.147  -2.637  1.00  0.00     0.002 A 
HETATM   28  C   UNL     1      37.846 -11.616  -1.334  1.00  0.00     0.032 A 
BRANCH  24  29
HETATM   29  C   UNL     1      41.261 -10.124  -0.449  1.00  0.00     0.419 C 
HETATM   30  F   UNL     1      41.110  -9.150   0.496  1.00  0.00    -0.166 F 
HETATM   31  F   UNL     1      41.784 -11.186   0.241  1.00  0.00    -0.166 F 
HETATM   32  F   UNL     1      42.265  -9.719  -1.274  1.00  0.00    -0.166 F 
ENDBRANCH  24  29
ENDBRANCH   3  23
TORSDOF 5
ENDMDL
