MODEL 1
REMARK VINA RESULT:      -8.4      0.000      0.000
REMARK  10 active torsions:
REMARK  status: ('A' for Active; 'I' for Inactive)
REMARK    1  A    between atoms: N_5  and  C_7 
REMARK    2  A    between atoms: C_7  and  C_8 
REMARK    3  A    between atoms: C_8  and  C_9 
REMARK    4  A    between atoms: C_9  and  N_10 
REMARK       I    between atoms: N_10  and  C_11 
REMARK    5  A    between atoms: C_11  and  C_12 
REMARK    6  A    between atoms: C_12  and  C_13 
REMARK    7  A    between atoms: C_13  and  C_14 
REMARK    8  A    between atoms: C_14  and  N_15 
REMARK       I    between atoms: N_15  and  C_16 
REMARK    9  A    between atoms: C_16  and  C_17 
REMARK   10  A    between atoms: C_17  and  N_18 
ROOT
HETATM    1  N   UNL     1      43.714 -11.901   7.452  1.00  0.00    -0.360 N 
HETATM    2  C   UNL     1      44.892 -11.232   7.197  1.00  0.00     0.235 C 
HETATM    3  O   UNL     1      45.357 -11.103   6.066  1.00  0.00    -0.272 OA
HETATM    4  H   UNL     1      43.472 -12.112   8.420  1.00  0.00     0.162 HD
ENDROOT
BRANCH   1   5
HETATM    5  C   UNL     1      42.886 -12.418   6.383  1.00  0.00     0.123 C 
BRANCH   5   6
HETATM    6  C   UNL     1      43.364 -13.784   5.890  1.00  0.00     0.029 C 
BRANCH   6   7
HETATM    7  C   UNL     1      43.290 -14.833   6.997  1.00  0.00     0.104 C 
BRANCH   7   8
HETATM    8  C   UNL     1      42.960 -16.242   6.534  1.00  0.00     0.217 C 
HETATM    9  N   UNL     1      44.014 -17.019   6.113  1.00  0.00    -0.361 N 
HETATM   10  H   UNL     1      44.911 -16.580   5.936  1.00  0.00     0.162 HD
HETATM   11  O   UNL     1      41.831 -16.724   6.653  1.00  0.00    -0.274 OA
BRANCH   9  12
HETATM   12  C   UNL     1      43.818 -18.354   5.588  1.00  0.00     0.124 C 
BRANCH  12  13
HETATM   13  C   UNL     1      44.363 -18.534   4.173  1.00  0.00     0.047 C 
BRANCH  13  14
HETATM   14  C   UNL     1      43.414 -18.205   3.018  1.00  0.00     0.236 C 
BRANCH  14  15
HETATM   15  N   UNL     1      42.979 -16.759   2.954  1.00  0.00    -0.071 N 
HETATM   16  C   UNL     1      43.448 -16.032   1.722  1.00  0.00     0.235 C 
HETATM   17  C   UNL     1      43.012 -14.574   1.760  1.00  0.00     0.032 C 
HETATM   18  C   UNL     1      41.506 -14.398   1.967  1.00  0.00    -0.016 C 
HETATM   19  C   UNL     1      40.708 -14.787   0.719  1.00  0.00     0.010 C 
HETATM   20  C   UNL     1      41.059 -15.188   3.200  1.00  0.00     0.032 C 
HETATM   21  C   UNL     1      41.482 -16.649   3.155  1.00  0.00     0.235 C 
HETATM   22  H   UNL     1      43.383 -16.306   3.804  1.00  0.00     0.279 HD
ENDBRANCH  14  15
ENDBRANCH  13  14
ENDBRANCH  12  13
ENDBRANCH   9  12
ENDBRANCH   7   8
ENDBRANCH   6   7
ENDBRANCH   5   6
ENDBRANCH   1   5
BRANCH   2  23
HETATM   23  C   UNL     1      45.631 -10.739   8.433  1.00  0.00     0.235 C 
BRANCH  23  24
HETATM   24  N   UNL     1      44.879  -9.646   9.020  1.00  0.00    -0.299 N 
HETATM   25  C   UNL     1      44.390  -9.795  10.315  1.00  0.00     0.262 C 
HETATM   26  O   UNL     1      44.666 -10.760  11.026  1.00  0.00    -0.267 OA
HETATM   27  C   UNL     1      43.569  -8.685  10.764  1.00  0.00     0.075 A 
HETATM   28  C   UNL     1      43.491  -7.578   9.945  1.00  0.00     0.115 A 
HETATM   29  C   UNL     1      42.768  -8.547  11.945  1.00  0.00    -0.026 A 
HETATM   30  S   UNL     1      42.498  -6.361  10.609  1.00  0.00    -0.073 SA
HETATM   31  N   UNL     1      44.094  -7.417   8.739  1.00  0.00    -0.235 NA
HETATM   32  C   UNL     1      42.118  -7.326  11.957  1.00  0.00    -0.008 A 
HETATM   33  C   UNL     1      41.180  -6.854  13.026  1.00  0.00     0.047 C 
HETATM   34  C   UNL     1      40.685  -8.046  13.859  1.00  0.00     0.005 C 
HETATM   35  C   UNL     1      41.840  -8.978  14.251  1.00  0.00     0.005 C 
HETATM   36  C   UNL     1      42.547  -9.571  13.020  1.00  0.00     0.041 C 
HETATM   37  C   UNL     1      44.739  -8.460   8.324  1.00  0.00     0.214 C 
ENDBRANCH  23  24
ENDBRANCH   2  23
TORSDOF 10
ENDMDL
MODEL 2
REMARK VINA RESULT:      -8.3      2.913     10.668
REMARK  10 active torsions:
REMARK  status: ('A' for Active; 'I' for Inactive)
REMARK    1  A    between atoms: N_5  and  C_7 
REMARK    2  A    between atoms: C_7  and  C_8 
REMARK    3  A    between atoms: C_8  and  C_9 
REMARK    4  A    between atoms: C_9  and  N_10 
REMARK       I    between atoms: N_10  and  C_11 
REMARK    5  A    between atoms: C_11  and  C_12 
REMARK    6  A    between atoms: C_12  and  C_13 
REMARK    7  A    between atoms: C_13  and  C_14 
REMARK    8  A    between atoms: C_14  and  N_15 
REMARK       I    between atoms: N_15  and  C_16 
REMARK    9  A    between atoms: C_16  and  C_17 
REMARK   10  A    between atoms: C_17  and  N_18 
ROOT
HETATM    1  N   UNL     1      44.587 -12.025   6.329  1.00  0.00    -0.360 N 
HETATM    2  C   UNL     1      43.335 -11.449   6.282  1.00  0.00     0.235 C 
HETATM    3  O   UNL     1      43.159 -10.232   6.271  1.00  0.00    -0.272 OA
HETATM    4  H   UNL     1      44.657 -13.028   6.501  1.00  0.00     0.162 HD
ENDROOT
BRANCH   1   5
HETATM    5  C   UNL     1      45.794 -11.228   6.267  1.00  0.00     0.123 C 
BRANCH   5   6
HETATM    6  C   UNL     1      46.302 -10.839   7.655  1.00  0.00     0.029 C 
BRANCH   6   7
HETATM    7  C   UNL     1      46.387  -9.323   7.814  1.00  0.00     0.104 C 
BRANCH   7   8
HETATM    8  C   UNL     1      45.205  -8.676   8.516  1.00  0.00     0.217 C 
HETATM    9  N   UNL     1      44.417  -9.498   9.287  1.00  0.00    -0.361 N 
HETATM   10  H   UNL     1      44.520 -10.503   9.202  1.00  0.00     0.162 HD
HETATM   11  O   UNL     1      45.030  -7.455   8.515  1.00  0.00    -0.274 OA
BRANCH   9  12
HETATM   12  C   UNL     1      43.226  -9.011   9.951  1.00  0.00     0.124 C 
BRANCH  12  13
HETATM   13  C   UNL     1      43.288  -9.135  11.472  1.00  0.00     0.047 C 
BRANCH  13  14
HETATM   14  C   UNL     1      42.208  -9.988  12.142  1.00  0.00     0.236 C 
BRANCH  14  15
HETATM   15  N   UNL     1      41.363  -9.251  13.156  1.00  0.00    -0.071 N 
HETATM   16  C   UNL     1      42.114  -8.828  14.389  1.00  0.00     0.235 C 
HETATM   17  C   UNL     1      41.183  -8.140  15.377  1.00  0.00     0.032 C 
HETATM   18  C   UNL     1      40.414  -6.965  14.766  1.00  0.00    -0.016 C 
HETATM   19  C   UNL     1      41.321  -5.759  14.512  1.00  0.00     0.010 C 
HETATM   20  C   UNL     1      39.701  -7.423  13.491  1.00  0.00     0.032 C 
HETATM   21  C   UNL     1      40.636  -8.097  12.496  1.00  0.00     0.235 C 
HETATM   22  H   UNL     1      40.600  -9.914  13.419  1.00  0.00     0.279 HD
ENDBRANCH  14  15
ENDBRANCH  13  14
ENDBRANCH  12  13
ENDBRANCH   9  12
ENDBRANCH   7   8
ENDBRANCH   6   7
ENDBRANCH   5   6
ENDBRANCH   1   5
BRANCH   2  23
HETATM   23  C   UNL     1      42.174 -12.431   6.340  1.00  0.00     0.235 C 
BRANCH  23  24
HETATM   24  N   UNL     1      42.392 -13.469   5.349  1.00  0.00    -0.299 N 
HETATM   25  C   UNL     1      42.540 -14.783   5.783  1.00  0.00     0.262 C 
HETATM   26  O   UNL     1      42.377 -15.121   6.955  1.00  0.00    -0.267 OA
HETATM   27  C   UNL     1      42.853 -15.721   4.721  1.00  0.00     0.075 A 
HETATM   28  C   UNL     1      42.821 -15.249   3.425  1.00  0.00     0.115 A 
HETATM   29  C   UNL     1      43.235 -17.101   4.789  1.00  0.00    -0.026 A 
HETATM   30  S   UNL     1      43.204 -16.465   2.293  1.00  0.00    -0.073 SA
HETATM   31  N   UNL     1      42.540 -13.980   3.030  1.00  0.00    -0.235 NA
HETATM   32  C   UNL     1      43.475 -17.607   3.524  1.00  0.00    -0.008 A 
HETATM   33  C   UNL     1      43.916 -19.006   3.220  1.00  0.00     0.047 C 
HETATM   34  C   UNL     1      44.495 -19.664   4.482  1.00  0.00     0.005 C 
HETATM   35  C   UNL     1      43.600 -19.423   5.705  1.00  0.00     0.005 C 
HETATM   36  C   UNL     1      43.449 -17.926   6.025  1.00  0.00     0.041 C 
HETATM   37  C   UNL     1      42.361 -13.148   4.005  1.00  0.00     0.214 C 
ENDBRANCH  23  24
ENDBRANCH   2  23
TORSDOF 10
ENDMDL
MODEL 3
REMARK VINA RESULT:      -8.2      3.500     10.333
REMARK  10 active torsions:
REMARK  status: ('A' for Active; 'I' for Inactive)
REMARK    1  A    between atoms: N_5  and  C_7 
REMARK    2  A    between atoms: C_7  and  C_8 
REMARK    3  A    between atoms: C_8  and  C_9 
REMARK    4  A    between atoms: C_9  and  N_10 
REMARK       I    between atoms: N_10  and  C_11 
REMARK    5  A    between atoms: C_11  and  C_12 
REMARK    6  A    between atoms: C_12  and  C_13 
REMARK    7  A    between atoms: C_13  and  C_14 
REMARK    8  A    between atoms: C_14  and  N_15 
REMARK       I    between atoms: N_15  and  C_16 
REMARK    9  A    between atoms: C_16  and  C_17 
REMARK   10  A    between atoms: C_17  and  N_18 
ROOT
HETATM    1  N   UNL     1      41.475 -11.318   3.866  1.00  0.00    -0.360 N 
HETATM    2  C   UNL     1      42.451 -11.989   3.160  1.00  0.00     0.235 C 
HETATM    3  O   UNL     1      43.573 -11.526   2.963  1.00  0.00    -0.272 OA
HETATM    4  H   UNL     1      40.523 -11.684   3.851  1.00  0.00     0.162 HD
ENDROOT
BRANCH   1   5
HETATM    5  C   UNL     1      41.741 -10.051   4.514  1.00  0.00     0.123 C 
BRANCH   5   6
HETATM    6  C   UNL     1      41.372 -10.072   5.997  1.00  0.00     0.029 C 
BRANCH   6   7
HETATM    7  C   UNL     1      39.885  -9.799   6.206  1.00  0.00     0.104 C 
BRANCH   7   8
HETATM    8  C   UNL     1      39.385  -9.983   7.629  1.00  0.00     0.217 C 
HETATM    9  N   UNL     1      39.607  -8.946   8.503  1.00  0.00    -0.361 N 
HETATM   10  H   UNL     1      40.252  -8.208   8.241  1.00  0.00     0.162 HD
HETATM   11  O   UNL     1      38.692 -10.949   7.960  1.00  0.00    -0.274 OA
BRANCH   9  12
HETATM   12  C   UNL     1      39.235  -9.031   9.900  1.00  0.00     0.124 C 
BRANCH  12  13
HETATM   13  C   UNL     1      40.351  -8.600  10.850  1.00  0.00     0.047 C 
BRANCH  13  14
HETATM   14  C   UNL     1      41.415  -9.647  11.188  1.00  0.00     0.236 C 
BRANCH  14  15
HETATM   15  N   UNL     1      42.819  -9.274  10.772  1.00  0.00    -0.071 N 
HETATM   16  C   UNL     1      43.809 -10.404  10.871  1.00  0.00     0.235 C 
HETATM   17  C   UNL     1      45.203  -9.932  10.483  1.00  0.00     0.032 C 
HETATM   18  C   UNL     1      45.257  -9.268   9.105  1.00  0.00    -0.016 C 
HETATM   19  C   UNL     1      45.096 -10.285   7.973  1.00  0.00     0.010 C 
HETATM   20  C   UNL     1      44.207  -8.155   9.028  1.00  0.00     0.032 C 
HETATM   21  C   UNL     1      42.809  -8.631   9.401  1.00  0.00     0.235 C 
HETATM   22  H   UNL     1      43.105  -8.500  11.413  1.00  0.00     0.279 HD
ENDBRANCH  14  15
ENDBRANCH  13  14
ENDBRANCH  12  13
ENDBRANCH   9  12
ENDBRANCH   7   8
ENDBRANCH   6   7
ENDBRANCH   5   6
ENDBRANCH   1   5
BRANCH   2  23
HETATM   23  C   UNL     1      42.010 -13.316   2.557  1.00  0.00     0.235 C 
BRANCH  23  24
HETATM   24  N   UNL     1      42.549 -14.396   3.363  1.00  0.00    -0.299 N 
HETATM   25  C   UNL     1      42.860 -15.601   2.739  1.00  0.00     0.262 C 
HETATM   26  O   UNL     1      42.809 -15.753   1.519  1.00  0.00    -0.267 OA
HETATM   27  C   UNL     1      43.296 -16.641   3.653  1.00  0.00     0.075 A 
HETATM   28  C   UNL     1      43.492 -16.287   4.973  1.00  0.00     0.115 A 
HETATM   29  C   UNL     1      43.538 -18.035   3.420  1.00  0.00    -0.026 A 
HETATM   30  S   UNL     1      44.007 -17.610   5.917  1.00  0.00    -0.073 SA
HETATM   31  N   UNL     1      43.303 -15.059   5.520  1.00  0.00    -0.235 NA
HETATM   32  C   UNL     1      43.910 -18.670   4.591  1.00  0.00    -0.008 A 
HETATM   33  C   UNL     1      44.216 -20.131   4.724  1.00  0.00     0.047 C 
HETATM   34  C   UNL     1      43.640 -20.903   3.527  1.00  0.00     0.005 C 
HETATM   35  C   UNL     1      43.956 -20.202   2.198  1.00  0.00     0.005 C 
HETATM   36  C   UNL     1      43.353 -18.787   2.135  1.00  0.00     0.041 C 
HETATM   37  C   UNL     1      42.823 -14.180   4.701  1.00  0.00     0.214 C 
ENDBRANCH  23  24
ENDBRANCH   2  23
TORSDOF 10
ENDMDL
MODEL 4
REMARK VINA RESULT:      -8.2      3.314      9.666
REMARK  10 active torsions:
REMARK  status: ('A' for Active; 'I' for Inactive)
REMARK    1  A    between atoms: N_5  and  C_7 
REMARK    2  A    between atoms: C_7  and  C_8 
REMARK    3  A    between atoms: C_8  and  C_9 
REMARK    4  A    between atoms: C_9  and  N_10 
REMARK       I    between atoms: N_10  and  C_11 
REMARK    5  A    between atoms: C_11  and  C_12 
REMARK    6  A    between atoms: C_12  and  C_13 
REMARK    7  A    between atoms: C_13  and  C_14 
REMARK    8  A    between atoms: C_14  and  N_15 
REMARK       I    between atoms: N_15  and  C_16 
REMARK    9  A    between atoms: C_16  and  C_17 
REMARK   10  A    between atoms: C_17  and  N_18 
ROOT
HETATM    1  N   UNL     1      42.341 -11.415   6.811  1.00  0.00    -0.360 N 
HETATM    2  C   UNL     1      41.232 -11.135   6.041  1.00  0.00     0.235 C 
HETATM    3  O   UNL     1      41.116 -10.103   5.384  1.00  0.00    -0.272 OA
HETATM    4  H   UNL     1      42.301 -12.205   7.455  1.00  0.00     0.162 HD
ENDROOT
BRANCH   1   5
HETATM    5  C   UNL     1      43.499 -10.546   6.820  1.00  0.00     0.123 C 
BRANCH   5   6
HETATM    6  C   UNL     1      44.711 -11.191   6.148  1.00  0.00     0.029 C 
BRANCH   6   7
HETATM    7  C   UNL     1      45.959 -11.075   7.020  1.00  0.00     0.104 C 
BRANCH   7   8
HETATM    8  C   UNL     1      45.910  -9.989   8.082  1.00  0.00     0.217 C 
HETATM    9  N   UNL     1      45.483 -10.364   9.333  1.00  0.00    -0.361 N 
HETATM   10  H   UNL     1      45.036 -11.267   9.453  1.00  0.00     0.162 HD
HETATM   11  O   UNL     1      46.357  -8.856   7.882  1.00  0.00    -0.274 OA
BRANCH   9  12
HETATM   12  C   UNL     1      45.332  -9.406  10.408  1.00  0.00     0.124 C 
BRANCH  12  13
HETATM   13  C   UNL     1      43.893  -8.929  10.595  1.00  0.00     0.047 C 
BRANCH  13  14
HETATM   14  C   UNL     1      42.804 -10.004  10.620  1.00  0.00     0.236 C 
BRANCH  14  15
HETATM   15  N   UNL     1      41.538  -9.635   9.882  1.00  0.00    -0.071 N 
HETATM   16  C   UNL     1      40.312  -9.586  10.754  1.00  0.00     0.235 C 
HETATM   17  C   UNL     1      39.077  -9.257   9.927  1.00  0.00     0.032 C 
HETATM   18  C   UNL     1      39.223  -7.975   9.104  1.00  0.00    -0.016 C 
HETATM   19  C   UNL     1      39.182  -6.723   9.985  1.00  0.00     0.010 C 
HETATM   20  C   UNL     1      40.503  -8.043   8.266  1.00  0.00     0.032 C 
HETATM   21  C   UNL     1      41.740  -8.356   9.096  1.00  0.00     0.235 C 
HETATM   22  H   UNL     1      41.417 -10.367   9.147  1.00  0.00     0.279 HD
ENDBRANCH  14  15
ENDBRANCH  13  14
ENDBRANCH  12  13
ENDBRANCH   9  12
ENDBRANCH   7   8
ENDBRANCH   6   7
ENDBRANCH   5   6
ENDBRANCH   1   5
BRANCH   2  23
HETATM   23  C   UNL     1      40.111 -12.161   6.133  1.00  0.00     0.235 C 
BRANCH  23  24
HETATM   24  N   UNL     1      40.309 -13.162   5.101  1.00  0.00    -0.299 N 
HETATM   25  C   UNL     1      41.073 -14.287   5.403  1.00  0.00     0.262 C 
HETATM   26  O   UNL     1      41.486 -14.528   6.536  1.00  0.00    -0.267 OA
HETATM   27  C   UNL     1      41.290 -15.170   4.271  1.00  0.00     0.075 A 
HETATM   28  C   UNL     1      40.614 -14.885   3.103  1.00  0.00     0.115 A 
HETATM   29  C   UNL     1      42.142 -16.316   4.144  1.00  0.00    -0.026 A 
HETATM   30  S   UNL     1      40.966 -16.012   1.872  1.00  0.00    -0.073 SA
HETATM   31  N   UNL     1      39.769 -13.845   2.887  1.00  0.00    -0.235 NA
HETATM   32  C   UNL     1      42.065 -16.844   2.868  1.00  0.00    -0.008 A 
HETATM   33  C   UNL     1      42.838 -18.029   2.373  1.00  0.00     0.047 C 
HETATM   34  C   UNL     1      44.037 -18.300   3.295  1.00  0.00     0.005 C 
HETATM   35  C   UNL     1      43.633 -18.250   4.775  1.00  0.00     0.005 C 
HETATM   36  C   UNL     1      43.079 -16.872   5.176  1.00  0.00     0.041 C 
HETATM   37  C   UNL     1      39.672 -13.023   3.882  1.00  0.00     0.214 C 
ENDBRANCH  23  24
ENDBRANCH   2  23
TORSDOF 10
ENDMDL
MODEL 5
REMARK VINA RESULT:      -8.1      6.430     10.047
REMARK  10 active torsions:
REMARK  status: ('A' for Active; 'I' for Inactive)
REMARK    1  A    between atoms: N_5  and  C_7 
REMARK    2  A    between atoms: C_7  and  C_8 
REMARK    3  A    between atoms: C_8  and  C_9 
REMARK    4  A    between atoms: C_9  and  N_10 
REMARK       I    between atoms: N_10  and  C_11 
REMARK    5  A    between atoms: C_11  and  C_12 
REMARK    6  A    between atoms: C_12  and  C_13 
REMARK    7  A    between atoms: C_13  and  C_14 
REMARK    8  A    between atoms: C_14  and  N_15 
REMARK       I    between atoms: N_15  and  C_16 
REMARK    9  A    between atoms: C_16  and  C_17 
REMARK   10  A    between atoms: C_17  and  N_18 
ROOT
HETATM    1  N   UNL     1      40.436 -11.891   3.337  1.00  0.00    -0.360 N 
HETATM    2  C   UNL     1      40.785 -13.132   2.846  1.00  0.00     0.235 C 
HETATM    3  O   UNL     1      39.973 -14.040   2.683  1.00  0.00    -0.272 OA
HETATM    4  H   UNL     1      41.178 -11.244   3.600  1.00  0.00     0.162 HD
ENDROOT
BRANCH   1   5
HETATM    5  C   UNL     1      39.057 -11.541   3.604  1.00  0.00     0.123 C 
BRANCH   5   6
HETATM    6  C   UNL     1      38.648 -10.238   2.917  1.00  0.00     0.029 C 
BRANCH   6   7
HETATM    7  C   UNL     1      38.466 -10.435   1.414  1.00  0.00     0.104 C 
BRANCH   7   8
HETATM    8  C   UNL     1      39.605  -9.921   0.549  1.00  0.00     0.217 C 
HETATM    9  N   UNL     1      39.259  -9.197  -0.567  1.00  0.00    -0.361 N 
HETATM   10  H   UNL     1      38.293  -9.203  -0.880  1.00  0.00     0.162 HD
HETATM   11  O   UNL     1      40.786 -10.024   0.892  1.00  0.00    -0.274 OA
BRANCH   9  12
HETATM   12  C   UNL     1      40.252  -8.712  -1.503  1.00  0.00     0.124 C 
BRANCH  12  13
HETATM   13  C   UNL     1      40.228  -9.444  -2.843  1.00  0.00     0.047 C 
BRANCH  13  14
HETATM   14  C   UNL     1      38.930 -10.164  -3.216  1.00  0.00     0.236 C 
BRANCH  14  15
HETATM   15  N   UNL     1      39.037 -11.671  -3.261  1.00  0.00    -0.071 N 
HETATM   16  C   UNL     1      40.407 -12.199  -2.927  1.00  0.00     0.235 C 
HETATM   17  C   UNL     1      40.442 -13.716  -3.044  1.00  0.00     0.032 C 
HETATM   18  C   UNL     1      39.362 -14.412  -2.211  1.00  0.00    -0.016 C 
HETATM   19  C   UNL     1      39.665 -14.345  -0.712  1.00  0.00     0.010 C 
HETATM   20  C   UNL     1      37.991 -13.818  -2.545  1.00  0.00     0.032 C 
HETATM   21  C   UNL     1      37.952 -12.302  -2.413  1.00  0.00     0.235 C 
HETATM   22  H   UNL     1      38.785 -11.942  -4.238  1.00  0.00     0.279 HD
ENDBRANCH  14  15
ENDBRANCH  13  14
ENDBRANCH  12  13
ENDBRANCH   9  12
ENDBRANCH   7   8
ENDBRANCH   6   7
ENDBRANCH   5   6
ENDBRANCH   1   5
BRANCH   2  23
HETATM   23  C   UNL     1      42.275 -13.330   2.603  1.00  0.00     0.235 C 
BRANCH  23  24
HETATM   24  N   UNL     1      42.740 -14.426   3.431  1.00  0.00    -0.299 N 
HETATM   25  C   UNL     1      43.049 -15.638   2.820  1.00  0.00     0.262 C 
HETATM   26  O   UNL     1      43.060 -15.786   1.598  1.00  0.00    -0.267 OA
HETATM   27  C   UNL     1      43.406 -16.693   3.752  1.00  0.00     0.075 A 
HETATM   28  C   UNL     1      43.542 -16.348   5.081  1.00  0.00     0.115 A 
HETATM   29  C   UNL     1      43.622 -18.092   3.526  1.00  0.00    -0.026 A 
HETATM   30  S   UNL     1      43.969 -17.687   6.046  1.00  0.00    -0.073 SA
HETATM   31  N   UNL     1      43.359 -15.117   5.623  1.00  0.00    -0.235 NA
HETATM   32  C   UNL     1      43.913 -18.741   4.712  1.00  0.00    -0.008 A 
HETATM   33  C   UNL     1      44.171 -20.210   4.855  1.00  0.00     0.047 C 
HETATM   34  C   UNL     1      43.638 -20.962   3.626  1.00  0.00     0.005 C 
HETATM   35  C   UNL     1      44.043 -20.266   2.319  1.00  0.00     0.005 C 
HETATM   36  C   UNL     1      43.485 -18.836   2.229  1.00  0.00     0.041 C 
HETATM   37  C   UNL     1      42.948 -14.222   4.783  1.00  0.00     0.214 C 
ENDBRANCH  23  24
ENDBRANCH   2  23
TORSDOF 10
ENDMDL
MODEL 6
REMARK VINA RESULT:      -8.0      3.968     10.905
REMARK  10 active torsions:
REMARK  status: ('A' for Active; 'I' for Inactive)
REMARK    1  A    between atoms: N_5  and  C_7 
REMARK    2  A    between atoms: C_7  and  C_8 
REMARK    3  A    between atoms: C_8  and  C_9 
REMARK    4  A    between atoms: C_9  and  N_10 
REMARK       I    between atoms: N_10  and  C_11 
REMARK    5  A    between atoms: C_11  and  C_12 
REMARK    6  A    between atoms: C_12  and  C_13 
REMARK    7  A    between atoms: C_13  and  C_14 
REMARK    8  A    between atoms: C_14  and  N_15 
REMARK       I    between atoms: N_15  and  C_16 
REMARK    9  A    between atoms: C_16  and  C_17 
REMARK   10  A    between atoms: C_17  and  N_18 
ROOT
HETATM    1  N   UNL     1      40.313 -12.196   2.808  1.00  0.00    -0.360 N 
HETATM    2  C   UNL     1      40.700 -13.372   2.201  1.00  0.00     0.235 C 
HETATM    3  O   UNL     1      39.906 -14.259   1.893  1.00  0.00    -0.272 OA
HETATM    4  H   UNL     1      41.034 -11.580   3.183  1.00  0.00     0.162 HD
ENDROOT
BRANCH   1   5
HETATM    5  C   UNL     1      38.919 -11.882   3.037  1.00  0.00     0.123 C 
BRANCH   5   6
HETATM    6  C   UNL     1      38.734 -10.509   3.685  1.00  0.00     0.029 C 
BRANCH   6   7
HETATM    7  C   UNL     1      39.146 -10.528   5.154  1.00  0.00     0.104 C 
BRANCH   7   8
HETATM    8  C   UNL     1      38.716  -9.315   5.964  1.00  0.00     0.217 C 
HETATM    9  N   UNL     1      39.607  -8.846   6.899  1.00  0.00    -0.361 N 
HETATM   10  H   UNL     1      40.404  -9.421   7.155  1.00  0.00     0.162 HD
HETATM   11  O   UNL     1      37.682  -8.692   5.711  1.00  0.00    -0.274 OA
BRANCH   9  12
HETATM   12  C   UNL     1      39.285  -7.739   7.775  1.00  0.00     0.124 C 
BRANCH  12  13
HETATM   13  C   UNL     1      39.451  -8.072   9.257  1.00  0.00     0.047 C 
BRANCH  13  14
HETATM   14  C   UNL     1      39.824  -9.516   9.605  1.00  0.00     0.236 C 
BRANCH  14  15
HETATM   15  N   UNL     1      41.136  -9.667  10.339  1.00  0.00    -0.071 N 
HETATM   16  C   UNL     1      42.154  -8.613   9.998  1.00  0.00     0.235 C 
HETATM   17  C   UNL     1      43.459  -8.867  10.740  1.00  0.00     0.032 C 
HETATM   18  C   UNL     1      43.280  -8.995  12.255  1.00  0.00    -0.016 C 
HETATM   19  C   UNL     1      42.966  -7.647  12.910  1.00  0.00     0.010 C 
HETATM   20  C   UNL     1      42.205 -10.043  12.560  1.00  0.00     0.032 C 
HETATM   21  C   UNL     1      40.895  -9.779  11.830  1.00  0.00     0.235 C 
HETATM   22  H   UNL     1      41.500 -10.608  10.070  1.00  0.00     0.279 HD
ENDBRANCH  14  15
ENDBRANCH  13  14
ENDBRANCH  12  13
ENDBRANCH   9  12
ENDBRANCH   7   8
ENDBRANCH   6   7
ENDBRANCH   5   6
ENDBRANCH   1   5
BRANCH   2  23
HETATM   23  C   UNL     1      42.202 -13.538   2.021  1.00  0.00     0.235 C 
BRANCH  23  24
HETATM   24  N   UNL     1      42.676 -14.542   2.956  1.00  0.00    -0.299 N 
HETATM   25  C   UNL     1      43.004 -15.804   2.467  1.00  0.00     0.262 C 
HETATM   26  O   UNL     1      43.024 -16.070   1.266  1.00  0.00    -0.267 OA
HETATM   27  C   UNL     1      43.368 -16.757   3.500  1.00  0.00     0.075 A 
HETATM   28  C   UNL     1      43.491 -16.282   4.790  1.00  0.00     0.115 A 
HETATM   29  C   UNL     1      43.602 -18.169   3.413  1.00  0.00    -0.026 A 
HETATM   30  S   UNL     1      43.928 -17.515   5.884  1.00  0.00    -0.073 SA
HETATM   31  N   UNL     1      43.290 -15.006   5.207  1.00  0.00    -0.235 NA
HETATM   32  C   UNL     1      43.894 -18.695   4.659  1.00  0.00    -0.008 A 
HETATM   33  C   UNL     1      44.169 -20.139   4.946  1.00  0.00     0.047 C 
HETATM   34  C   UNL     1      43.652 -21.015   3.795  1.00  0.00     0.005 C 
HETATM   35  C   UNL     1      44.057 -20.446   2.428  1.00  0.00     0.005 C 
HETATM   36  C   UNL     1      43.482 -19.038   2.195  1.00  0.00     0.041 C 
HETATM   37  C   UNL     1      42.873 -14.203   4.281  1.00  0.00     0.214 C 
ENDBRANCH  23  24
ENDBRANCH   2  23
TORSDOF 10
ENDMDL
MODEL 7
REMARK VINA RESULT:      -8.0      3.012     11.021
REMARK  10 active torsions:
REMARK  status: ('A' for Active; 'I' for Inactive)
REMARK    1  A    between atoms: N_5  and  C_7 
REMARK    2  A    between atoms: C_7  and  C_8 
REMARK    3  A    between atoms: C_8  and  C_9 
REMARK    4  A    between atoms: C_9  and  N_10 
REMARK       I    between atoms: N_10  and  C_11 
REMARK    5  A    between atoms: C_11  and  C_12 
REMARK    6  A    between atoms: C_12  and  C_13 
REMARK    7  A    between atoms: C_13  and  C_14 
REMARK    8  A    between atoms: C_14  and  N_15 
REMARK       I    between atoms: N_15  and  C_16 
REMARK    9  A    between atoms: C_16  and  C_17 
REMARK   10  A    between atoms: C_17  and  N_18 
ROOT
HETATM    1  N   UNL     1      44.893 -11.220   7.177  1.00  0.00    -0.360 N 
HETATM    2  C   UNL     1      44.134 -11.491   6.058  1.00  0.00     0.235 C 
HETATM    3  O   UNL     1      44.503 -11.222   4.917  1.00  0.00    -0.272 OA
HETATM    4  H   UNL     1      44.461 -11.317   8.095  1.00  0.00     0.162 HD
ENDROOT
BRANCH   1   5
HETATM    5  C   UNL     1      46.234 -10.684   7.073  1.00  0.00     0.123 C 
BRANCH   5   6
HETATM    6  C   UNL     1      46.495  -9.579   8.098  1.00  0.00     0.029 C 
BRANCH   6   7
HETATM    7  C   UNL     1      45.190  -9.008   8.646  1.00  0.00     0.104 C 
BRANCH   7   8
HETATM    8  C   UNL     1      44.755  -9.561   9.994  1.00  0.00     0.217 C 
HETATM    9  N   UNL     1      43.801  -8.846  10.678  1.00  0.00    -0.361 N 
HETATM   10  H   UNL     1      43.577  -7.905  10.374  1.00  0.00     0.162 HD
HETATM   11  O   UNL     1      45.129 -10.664  10.401  1.00  0.00    -0.274 OA
BRANCH   9  12
HETATM   12  C   UNL     1      43.355  -9.237  11.999  1.00  0.00     0.124 C 
BRANCH  12  13
HETATM   13  C   UNL     1      42.870  -8.062  12.846  1.00  0.00     0.047 C 
BRANCH  13  14
HETATM   14  C   UNL     1      42.206  -8.399  14.183  1.00  0.00     0.236 C 
BRANCH  14  15
HETATM   15  N   UNL     1      40.790  -7.892  14.328  1.00  0.00    -0.071 N 
HETATM   16  C   UNL     1      40.676  -6.605  15.100  1.00  0.00     0.235 C 
HETATM   17  C   UNL     1      39.218  -6.191  15.243  1.00  0.00     0.032 C 
HETATM   18  C   UNL     1      38.480  -6.101  13.905  1.00  0.00    -0.016 C 
HETATM   19  C   UNL     1      38.927  -4.887  13.086  1.00  0.00     0.010 C 
HETATM   20  C   UNL     1      38.657  -7.410  13.130  1.00  0.00     0.032 C 
HETATM   21  C   UNL     1      40.116  -7.815  12.974  1.00  0.00     0.235 C 
HETATM   22  H   UNL     1      40.271  -8.648  14.828  1.00  0.00     0.279 HD
ENDBRANCH  14  15
ENDBRANCH  13  14
ENDBRANCH  12  13
ENDBRANCH   9  12
ENDBRANCH   7   8
ENDBRANCH   6   7
ENDBRANCH   5   6
ENDBRANCH   1   5
BRANCH   2  23
HETATM   23  C   UNL     1      42.754 -12.069   6.344  1.00  0.00     0.235 C 
BRANCH  23  24
HETATM   24  N   UNL     1      42.453 -13.072   5.340  1.00  0.00    -0.299 N 
HETATM   25  C   UNL     1      42.958 -14.358   5.511  1.00  0.00     0.262 C 
HETATM   26  O   UNL     1      43.547 -14.713   6.531  1.00  0.00    -0.267 OA
HETATM   27  C   UNL     1      42.680 -15.251   4.401  1.00  0.00     0.075 A 
HETATM   28  C   UNL     1      41.848 -14.787   3.403  1.00  0.00     0.115 A 
HETATM   29  C   UNL     1      43.166 -16.574   4.135  1.00  0.00    -0.026 A 
HETATM   30  S   UNL     1      41.614 -15.948   2.176  1.00  0.00    -0.073 SA
HETATM   31  N   UNL     1      41.264 -13.563   3.338  1.00  0.00    -0.235 NA
HETATM   32  C   UNL     1      42.667 -17.047   2.934  1.00  0.00    -0.008 A 
HETATM   33  C   UNL     1      42.983 -18.382   2.331  1.00  0.00     0.047 C 
HETATM   34  C   UNL     1      44.254 -18.962   2.969  1.00  0.00     0.005 C 
HETATM   35  C   UNL     1      44.227 -18.833   4.499  1.00  0.00     0.005 C 
HETATM   36  C   UNL     1      44.144 -17.365   4.953  1.00  0.00     0.041 C 
HETATM   37  C   UNL     1      41.608 -12.758   4.291  1.00  0.00     0.214 C 
ENDBRANCH  23  24
ENDBRANCH   2  23
TORSDOF 10
ENDMDL
MODEL 8
REMARK VINA RESULT:      -8.0      3.694     10.293
REMARK  10 active torsions:
REMARK  status: ('A' for Active; 'I' for Inactive)
REMARK    1  A    between atoms: N_5  and  C_7 
REMARK    2  A    between atoms: C_7  and  C_8 
REMARK    3  A    between atoms: C_8  and  C_9 
REMARK    4  A    between atoms: C_9  and  N_10 
REMARK       I    between atoms: N_10  and  C_11 
REMARK    5  A    between atoms: C_11  and  C_12 
REMARK    6  A    between atoms: C_12  and  C_13 
REMARK    7  A    between atoms: C_13  and  C_14 
REMARK    8  A    between atoms: C_14  and  N_15 
REMARK       I    between atoms: N_15  and  C_16 
REMARK    9  A    between atoms: C_16  and  C_17 
REMARK   10  A    between atoms: C_17  and  N_18 
ROOT
HETATM    1  N   UNL     1      40.534 -11.815   3.591  1.00  0.00    -0.360 N 
HETATM    2  C   UNL     1      40.790 -12.994   2.925  1.00  0.00     0.235 C 
HETATM    3  O   UNL     1      39.917 -13.818   2.661  1.00  0.00    -0.272 OA
HETATM    4  H   UNL     1      41.323 -11.258   3.920  1.00  0.00     0.162 HD
ENDROOT
BRANCH   1   5
HETATM    5  C   UNL     1      39.187 -11.418   3.942  1.00  0.00     0.123 C 
BRANCH   5   6
HETATM    6  C   UNL     1      39.027  -9.898   3.993  1.00  0.00     0.029 C 
BRANCH   6   7
HETATM    7  C   UNL     1      40.368  -9.204   4.213  1.00  0.00     0.104 C 
BRANCH   7   8
HETATM    8  C   UNL     1      40.556  -8.575   5.584  1.00  0.00     0.217 C 
HETATM    9  N   UNL     1      39.696  -8.982   6.576  1.00  0.00    -0.361 N 
HETATM   10  H   UNL     1      38.867  -9.510   6.325  1.00  0.00     0.162 HD
HETATM   11  O   UNL     1      41.513  -7.840   5.842  1.00  0.00    -0.274 OA
BRANCH   9  12
HETATM   12  C   UNL     1      39.734  -8.407   7.904  1.00  0.00     0.124 C 
BRANCH  12  13
HETATM   13  C   UNL     1      40.317  -9.350   8.955  1.00  0.00     0.047 C 
BRANCH  13  14
HETATM   14  C   UNL     1      41.544  -8.856   9.725  1.00  0.00     0.236 C 
BRANCH  14  15
HETATM   15  N   UNL     1      42.774  -9.720   9.570  1.00  0.00    -0.071 N 
HETATM   16  C   UNL     1      43.123 -10.040   8.142  1.00  0.00     0.235 C 
HETATM   17  C   UNL     1      44.339 -10.953   8.077  1.00  0.00     0.032 C 
HETATM   18  C   UNL     1      45.551 -10.401   8.832  1.00  0.00    -0.016 C 
HETATM   19  C   UNL     1      46.185  -9.212   8.106  1.00  0.00     0.010 C 
HETATM   20  C   UNL     1      45.146 -10.045  10.266  1.00  0.00     0.032 C 
HETATM   21  C   UNL     1      43.939  -9.120  10.330  1.00  0.00     0.235 C 
HETATM   22  H   UNL     1      42.563 -10.603  10.087  1.00  0.00     0.279 HD
ENDBRANCH  14  15
ENDBRANCH  13  14
ENDBRANCH  12  13
ENDBRANCH   9  12
ENDBRANCH   7   8
ENDBRANCH   6   7
ENDBRANCH   5   6
ENDBRANCH   1   5
BRANCH   2  23
HETATM   23  C   UNL     1      42.259 -13.251   2.616  1.00  0.00     0.235 C 
BRANCH  23  24
HETATM   24  N   UNL     1      42.722 -14.352   3.439  1.00  0.00    -0.299 N 
HETATM   25  C   UNL     1      43.027 -15.563   2.823  1.00  0.00     0.262 C 
HETATM   26  O   UNL     1      43.035 -15.706   1.601  1.00  0.00    -0.267 OA
HETATM   27  C   UNL     1      43.383 -16.621   3.750  1.00  0.00     0.075 A 
HETATM   28  C   UNL     1      43.522 -16.283   5.080  1.00  0.00     0.115 A 
HETATM   29  C   UNL     1      43.594 -18.020   3.518  1.00  0.00    -0.026 A 
HETATM   30  S   UNL     1      43.946 -17.627   6.039  1.00  0.00    -0.073 SA
HETATM   31  N   UNL     1      43.343 -15.053   5.627  1.00  0.00    -0.235 NA
HETATM   32  C   UNL     1      43.886 -18.675   4.701  1.00  0.00    -0.008 A 
HETATM   33  C   UNL     1      44.140 -20.145   4.838  1.00  0.00     0.047 C 
HETATM   34  C   UNL     1      43.602 -20.891   3.607  1.00  0.00     0.005 C 
HETATM   35  C   UNL     1      44.007 -20.192   2.302  1.00  0.00     0.005 C 
HETATM   36  C   UNL     1      43.453 -18.759   2.219  1.00  0.00     0.041 C 
HETATM   37  C   UNL     1      42.933 -14.154   4.791  1.00  0.00     0.214 C 
ENDBRANCH  23  24
ENDBRANCH   2  23
TORSDOF 10
ENDMDL
MODEL 9
REMARK VINA RESULT:      -8.0      6.715     10.160
REMARK  10 active torsions:
REMARK  status: ('A' for Active; 'I' for Inactive)
REMARK    1  A    between atoms: N_5  and  C_7 
REMARK    2  A    between atoms: C_7  and  C_8 
REMARK    3  A    between atoms: C_8  and  C_9 
REMARK    4  A    between atoms: C_9  and  N_10 
REMARK       I    between atoms: N_10  and  C_11 
REMARK    5  A    between atoms: C_11  and  C_12 
REMARK    6  A    between atoms: C_12  and  C_13 
REMARK    7  A    between atoms: C_13  and  C_14 
REMARK    8  A    between atoms: C_14  and  N_15 
REMARK       I    between atoms: N_15  and  C_16 
REMARK    9  A    between atoms: C_16  and  C_17 
REMARK   10  A    between atoms: C_17  and  N_18 
ROOT
HETATM    1  N   UNL     1      40.401 -11.981   2.641  1.00  0.00    -0.360 N 
HETATM    2  C   UNL     1      40.680 -13.272   2.245  1.00  0.00     0.235 C 
HETATM    3  O   UNL     1      39.826 -14.154   2.188  1.00  0.00    -0.272 OA
HETATM    4  H   UNL     1      41.179 -11.347   2.823  1.00  0.00     0.162 HD
ENDROOT
BRANCH   1   5
HETATM    5  C   UNL     1      39.049 -11.548   2.924  1.00  0.00     0.123 C 
BRANCH   5   6
HETATM    6  C   UNL     1      38.514 -10.589   1.860  1.00  0.00     0.029 C 
BRANCH   6   7
HETATM    7  C   UNL     1      37.342 -11.200   1.097  1.00  0.00     0.104 C 
BRANCH   7   8
HETATM    8  C   UNL     1      37.661 -11.671  -0.313  1.00  0.00     0.217 C 
HETATM    9  N   UNL     1      38.407 -12.819  -0.429  1.00  0.00    -0.361 N 
HETATM   10  H   UNL     1      38.878 -13.188   0.391  1.00  0.00     0.162 HD
HETATM   11  O   UNL     1      37.166 -11.137  -1.309  1.00  0.00    -0.274 OA
BRANCH   9  12
HETATM   12  C   UNL     1      38.829 -13.330  -1.717  1.00  0.00     0.124 C 
BRANCH  12  13
HETATM   13  C   UNL     1      40.321 -13.141  -1.983  1.00  0.00     0.047 C 
BRANCH  13  14
HETATM   14  C   UNL     1      41.031 -12.039  -1.192  1.00  0.00     0.236 C 
BRANCH  14  15
HETATM   15  N   UNL     1      41.272 -10.764  -1.967  1.00  0.00    -0.071 N 
HETATM   16  C   UNL     1      40.509 -10.680  -3.262  1.00  0.00     0.235 C 
HETATM   17  C   UNL     1      40.846  -9.393  -4.002  1.00  0.00     0.032 C 
HETATM   18  C   UNL     1      40.639  -8.136  -3.154  1.00  0.00    -0.016 C 
HETATM   19  C   UNL     1      39.155  -7.829  -2.938  1.00  0.00     0.010 C 
HETATM   20  C   UNL     1      41.393  -8.278  -1.829  1.00  0.00     0.032 C 
HETATM   21  C   UNL     1      41.043  -9.558  -1.081  1.00  0.00     0.235 C 
HETATM   22  H   UNL     1      42.298 -10.745  -2.163  1.00  0.00     0.279 HD
ENDBRANCH  14  15
ENDBRANCH  13  14
ENDBRANCH  12  13
ENDBRANCH   9  12
ENDBRANCH   7   8
ENDBRANCH   6   7
ENDBRANCH   5   6
ENDBRANCH   1   5
BRANCH   2  23
HETATM   23  C   UNL     1      42.150 -13.555   1.970  1.00  0.00     0.235 C 
BRANCH  23  24
HETATM   24  N   UNL     1      42.621 -14.541   2.925  1.00  0.00    -0.299 N 
HETATM   25  C   UNL     1      42.976 -15.804   2.458  1.00  0.00     0.262 C 
HETATM   26  O   UNL     1      43.022 -16.084   1.261  1.00  0.00    -0.267 OA
HETATM   27  C   UNL     1      43.335 -16.739   3.509  1.00  0.00     0.075 A 
HETATM   28  C   UNL     1      43.428 -16.248   4.795  1.00  0.00     0.115 A 
HETATM   29  C   UNL     1      43.591 -18.148   3.443  1.00  0.00    -0.026 A 
HETATM   30  S   UNL     1      43.862 -17.461   5.911  1.00  0.00    -0.073 SA
HETATM   31  N   UNL     1      43.200 -14.970   5.193  1.00  0.00    -0.235 NA
HETATM   32  C   UNL     1      43.868 -18.655   4.701  1.00  0.00    -0.008 A 
HETATM   33  C   UNL     1      44.159 -20.092   5.010  1.00  0.00     0.047 C 
HETATM   34  C   UNL     1      43.676 -20.989   3.860  1.00  0.00     0.005 C 
HETATM   35  C   UNL     1      44.098 -20.429   2.494  1.00  0.00     0.005 C 
HETATM   36  C   UNL     1      43.507 -19.033   2.234  1.00  0.00     0.041 C 
HETATM   37  C   UNL     1      42.788 -14.184   4.250  1.00  0.00     0.214 C 
ENDBRANCH  23  24
ENDBRANCH   2  23
TORSDOF 10
ENDMDL
MODEL 10
REMARK VINA RESULT:      -8.0      1.541      3.269
REMARK  10 active torsions:
REMARK  status: ('A' for Active; 'I' for Inactive)
REMARK    1  A    between atoms: N_5  and  C_7 
REMARK    2  A    between atoms: C_7  and  C_8 
REMARK    3  A    between atoms: C_8  and  C_9 
REMARK    4  A    between atoms: C_9  and  N_10 
REMARK       I    between atoms: N_10  and  C_11 
REMARK    5  A    between atoms: C_11  and  C_12 
REMARK    6  A    between atoms: C_12  and  C_13 
REMARK    7  A    between atoms: C_13  and  C_14 
REMARK    8  A    between atoms: C_14  and  N_15 
REMARK       I    between atoms: N_15  and  C_16 
REMARK    9  A    between atoms: C_16  and  C_17 
REMARK   10  A    between atoms: C_17  and  N_18 
ROOT
HETATM    1  N   UNL     1      43.735 -11.913   7.467  1.00  0.00    -0.360 N 
HETATM    2  C   UNL     1      44.957 -11.330   7.207  1.00  0.00     0.235 C 
HETATM    3  O   UNL     1      45.460 -11.301   6.086  1.00  0.00    -0.272 OA
HETATM    4  H   UNL     1      43.454 -12.046   8.438  1.00  0.00     0.162 HD
ENDROOT
BRANCH   1   5
HETATM    5  C   UNL     1      42.909 -12.451   6.407  1.00  0.00     0.123 C 
BRANCH   5   6
HETATM    6  C   UNL     1      41.777 -11.501   6.018  1.00  0.00     0.029 C 
BRANCH   6   7
HETATM    7  C   UNL     1      42.157 -10.645   4.813  1.00  0.00     0.104 C 
BRANCH   7   8
HETATM    8  C   UNL     1      42.564 -11.419   3.569  1.00  0.00     0.217 C 
HETATM    9  N   UNL     1      41.563 -12.072   2.890  1.00  0.00    -0.361 N 
HETATM   10  H   UNL     1      40.657 -12.185   3.334  1.00  0.00     0.162 HD
HETATM   11  O   UNL     1      43.706 -11.360   3.105  1.00  0.00    -0.274 OA
BRANCH   9  12
HETATM   12  C   UNL     1      41.836 -12.895   1.731  1.00  0.00     0.124 C 
BRANCH  12  13
HETATM   13  C   UNL     1      41.983 -14.378   2.063  1.00  0.00     0.047 C 
BRANCH  13  14
HETATM   14  C   UNL     1      41.182 -14.903   3.257  1.00  0.00     0.236 C 
BRANCH  14  15
HETATM   15  N   UNL     1      41.834 -16.047   3.998  1.00  0.00    -0.071 N 
HETATM   16  C   UNL     1      43.248 -16.330   3.567  1.00  0.00     0.235 C 
HETATM   17  C   UNL     1      43.813 -17.524   4.324  1.00  0.00     0.032 C 
HETATM   18  C   UNL     1      43.716 -17.378   5.845  1.00  0.00    -0.016 C 
HETATM   19  C   UNL     1      44.708 -16.345   6.384  1.00  0.00     0.010 C 
HETATM   20  C   UNL     1      42.274 -17.047   6.240  1.00  0.00     0.032 C 
HETATM   21  C   UNL     1      41.716 -15.842   5.494  1.00  0.00     0.235 C 
HETATM   22  H   UNL     1      41.236 -16.882   3.808  1.00  0.00     0.279 HD
ENDBRANCH  14  15
ENDBRANCH  13  14
ENDBRANCH  12  13
ENDBRANCH   9  12
ENDBRANCH   7   8
ENDBRANCH   6   7
ENDBRANCH   5   6
ENDBRANCH   1   5
BRANCH   2  23
HETATM   23  C   UNL     1      45.688 -10.799   8.432  1.00  0.00     0.235 C 
BRANCH  23  24
HETATM   24  N   UNL     1      44.919  -9.705   8.996  1.00  0.00    -0.299 N 
HETATM   25  C   UNL     1      44.442  -9.829  10.298  1.00  0.00     0.262 C 
HETATM   26  O   UNL     1      44.743 -10.769  11.033  1.00  0.00    -0.267 OA
HETATM   27  C   UNL     1      43.603  -8.724  10.725  1.00  0.00     0.075 A 
HETATM   28  C   UNL     1      43.498  -7.640   9.877  1.00  0.00     0.115 A 
HETATM   29  C   UNL     1      42.808  -8.570  11.908  1.00  0.00    -0.026 A 
HETATM   30  S   UNL     1      42.486  -6.426  10.516  1.00  0.00    -0.073 SA
HETATM   31  N   UNL     1      44.089  -7.500   8.662  1.00  0.00    -0.235 NA
HETATM   32  C   UNL     1      42.135  -7.361  11.892  1.00  0.00    -0.008 A 
HETATM   33  C   UNL     1      41.195  -6.879  12.955  1.00  0.00     0.047 C 
HETATM   34  C   UNL     1      40.730  -8.058  13.823  1.00  0.00     0.005 C 
HETATM   35  C   UNL     1      41.906  -8.957  14.231  1.00  0.00     0.005 C 
HETATM   36  C   UNL     1      42.615  -9.569  13.011  1.00  0.00     0.041 C 
HETATM   37  C   UNL     1      44.751  -8.541   8.270  1.00  0.00     0.214 C 
ENDBRANCH  23  24
ENDBRANCH   2  23
TORSDOF 10
ENDMDL
