MODEL 1
REMARK VINA RESULT:      -9.4      0.000      0.000
REMARK  8 active torsions:
REMARK  status: ('A' for Active; 'I' for Inactive)
REMARK    1  A    between atoms: C_6  and  N_7 
REMARK    2  A    between atoms: C_6  and  C_26 
REMARK       I    between atoms: N_7  and  C_8 
REMARK    3  A    between atoms: N_7  and  C_23 
REMARK    4  A    between atoms: C_8  and  C_9 
REMARK    5  A    between atoms: C_9  and  N_10 
REMARK    6  A    between atoms: C_14  and  C_15 
REMARK       I    between atoms: C_26  and  N_27 
REMARK    7  A    between atoms: N_27  and  C_28 
REMARK    8  A    between atoms: C_31  and  N_32 
ROOT
HETATM    1  C   UNL     1      39.055  -8.111   6.589  1.00  0.00     0.269 C 
HETATM    2  N   UNL     1      39.888  -9.357   6.765  1.00  0.00    -0.075 N 
HETATM    3  H   UNL     1      39.918  -9.530   7.783  1.00  0.00     0.279 HD
HETATM    4  C   UNL     1      39.234 -10.542   6.104  1.00  0.00     0.237 C 
HETATM    5  C   UNL     1      40.073 -11.807   6.276  1.00  0.00     0.069 C 
HETATM    6  C   UNL     1      41.571 -11.645   5.919  1.00  0.00     0.120 C 
HETATM    7  C   UNL     1      42.118 -10.372   6.609  1.00  0.00     0.069 C 
HETATM    8  C   UNL     1      41.302  -9.126   6.294  1.00  0.00     0.237 C 
ENDROOT
BRANCH   6   9
HETATM    9  N   UNL     1      42.346 -12.903   6.269  1.00  0.00    -0.328 N 
HETATM   10  C   UNL     1      42.114 -14.229   5.872  1.00  0.00     0.239 C 
HETATM   11  O   UNL     1      42.637 -15.163   6.497  1.00  0.00    -0.271 OA
BRANCH  10  12
HETATM   12  C   UNL     1      41.189 -14.582   4.705  1.00  0.00     0.228 C 
BRANCH  12  13
HETATM   13  N   UNL     1      41.809 -15.435   3.693  1.00  0.00    -0.347 N 
HETATM   14  C   UNL     1      41.245 -15.819   2.472  1.00  0.00     0.171 C 
HETATM   15  S   UNL     1      39.676 -15.670   1.961  1.00  0.00    -0.041 SA
HETATM   16  N   UNL     1      42.231 -16.436   1.724  1.00  0.00    -0.357 N 
HETATM   17  C   UNL     1      43.448 -16.628   2.489  1.00  0.00     0.135 C 
HETATM   18  H   UNL     1      42.067 -16.816   0.800  1.00  0.00     0.162 HD
HETATM   19  C   UNL     1      43.260 -15.589   3.613  1.00  0.00     0.155 C 
BRANCH  17  20
HETATM   20  C   UNL     1      43.597 -18.054   3.015  1.00  0.00    -0.034 A 
HETATM   21  C   UNL     1      43.320 -19.183   2.225  1.00  0.00     0.009 A 
HETATM   22  C   UNL     1      43.498 -20.477   2.726  1.00  0.00     0.001 A 
HETATM   23  C   UNL     1      43.962 -20.666   4.024  1.00  0.00     0.000 A 
HETATM   24  C   UNL     1      44.261 -19.563   4.818  1.00  0.00     0.001 A 
HETATM   25  C   UNL     1      44.092 -18.271   4.315  1.00  0.00     0.009 A 
ENDBRANCH  17  20
ENDBRANCH  12  13
ENDBRANCH  10  12
BRANCH   9  26
HETATM   26  C   UNL     1      43.582 -12.743   7.052  1.00  0.00     0.088 A 
HETATM   27  C   UNL     1      44.896 -12.604   6.312  1.00  0.00     0.027 A 
HETATM   28  C   UNL     1      44.415 -11.495   7.189  1.00  0.00     0.027 A 
ENDBRANCH   9  26
ENDBRANCH   6   9
BRANCH   6  29
HETATM   29  C   UNL     1      41.749 -11.310   4.394  1.00  0.00     0.251 C 
HETATM   30  N   UNL     1      40.569 -11.392   3.669  1.00  0.00    -0.325 N 
HETATM   31  H   UNL     1      39.702 -11.327   4.193  1.00  0.00     0.169 HD
HETATM   32  O   UNL     1      42.875 -11.222   3.911  1.00  0.00    -0.270 OA
BRANCH  30  33
HETATM   33  C   UNL     1      40.437 -11.610   2.282  1.00  0.00     0.034 A 
HETATM   34  C   UNL     1      41.321 -12.370   1.525  1.00  0.00     0.032 A 
HETATM   35  C   UNL     1      41.068 -12.614   0.167  1.00  0.00     0.031 A 
HETATM   36  C   UNL     1      39.927 -12.124  -0.486  1.00  0.00     0.030 A 
HETATM   37  C   UNL     1      39.073 -11.327   0.285  1.00  0.00     0.031 A 
HETATM   38  C   UNL     1      39.316 -11.077   1.646  1.00  0.00     0.032 A 
BRANCH  36  39
HETATM   39  N   UNL     1      39.726 -12.393  -1.835  1.00  0.00    -0.377 N 
HETATM   40  C   UNL     1      40.245 -13.673  -2.377  1.00  0.00     0.149 C 
HETATM   41  C   UNL     1      39.143 -14.747  -2.340  1.00  0.00     0.187 C 
HETATM   42  O   UNL     1      37.970 -14.328  -3.057  1.00  0.00    -0.388 OA
HETATM   43  C   UNL     1      37.447 -13.107  -2.508  1.00  0.00     0.187 C 
HETATM   44  C   UNL     1      38.492 -11.980  -2.537  1.00  0.00     0.149 C 
ENDBRANCH  36  39
ENDBRANCH  30  33
ENDBRANCH   6  29
TORSDOF 8
ENDMDL
MODEL 2
REMARK VINA RESULT:      -9.2      2.689      7.238
REMARK  8 active torsions:
REMARK  status: ('A' for Active; 'I' for Inactive)
REMARK    1  A    between atoms: C_6  and  N_7 
REMARK    2  A    between atoms: C_6  and  C_26 
REMARK       I    between atoms: N_7  and  C_8 
REMARK    3  A    between atoms: N_7  and  C_23 
REMARK    4  A    between atoms: C_8  and  C_9 
REMARK    5  A    between atoms: C_9  and  N_10 
REMARK    6  A    between atoms: C_14  and  C_15 
REMARK       I    between atoms: C_26  and  N_27 
REMARK    7  A    between atoms: N_27  and  C_28 
REMARK    8  A    between atoms: C_31  and  N_32 
ROOT
HETATM    1  C   UNL     1      42.694  -6.340  -1.595  1.00  0.00     0.269 C 
HETATM    2  N   UNL     1      41.723  -7.495  -1.595  1.00  0.00    -0.075 N 
HETATM    3  H   UNL     1      41.374  -7.564  -2.565  1.00  0.00     0.279 HD
HETATM    4  C   UNL     1      42.419  -8.786  -1.249  1.00  0.00     0.237 C 
HETATM    5  C   UNL     1      41.440  -9.960  -1.245  1.00  0.00     0.069 C 
HETATM    6  C   UNL     1      40.142  -9.718  -0.438  1.00  0.00     0.120 C 
HETATM    7  C   UNL     1      39.548  -8.346  -0.838  1.00  0.00     0.069 C 
HETATM    8  C   UNL     1      40.544  -7.203  -0.701  1.00  0.00     0.237 C 
ENDROOT
BRANCH   6   9
HETATM    9  N   UNL     1      39.172 -10.873  -0.622  1.00  0.00    -0.328 N 
HETATM   10  C   UNL     1      39.398 -12.252  -0.494  1.00  0.00     0.239 C 
HETATM   11  O   UNL     1      38.597 -13.059  -0.987  1.00  0.00    -0.271 OA
BRANCH  10  12
HETATM   12  C   UNL     1      40.639 -12.814   0.203  1.00  0.00     0.228 C 
BRANCH  12  13
HETATM   13  N   UNL     1      40.352 -13.882   1.159  1.00  0.00    -0.347 N 
HETATM   14  C   UNL     1      39.570 -13.776   2.313  1.00  0.00     0.171 C 
HETATM   15  S   UNL     1      39.006 -12.410   3.062  1.00  0.00    -0.041 SA
HETATM   16  N   UNL     1      39.372 -15.051   2.811  1.00  0.00    -0.357 N 
HETATM   17  C   UNL     1      40.153 -16.039   2.090  1.00  0.00     0.135 C 
HETATM   18  H   UNL     1      38.844 -15.239   3.654  1.00  0.00     0.162 HD
HETATM   19  C   UNL     1      40.438 -15.289   0.773  1.00  0.00     0.155 C 
BRANCH  17  20
HETATM   20  C   UNL     1      41.424 -16.443   2.834  1.00  0.00    -0.034 A 
HETATM   21  C   UNL     1      41.742 -15.950   4.111  1.00  0.00     0.009 A 
HETATM   22  C   UNL     1      42.898 -16.366   4.779  1.00  0.00     0.001 A 
HETATM   23  C   UNL     1      43.755 -17.288   4.186  1.00  0.00     0.000 A 
HETATM   24  C   UNL     1      43.450 -17.805   2.931  1.00  0.00     0.001 A 
HETATM   25  C   UNL     1      42.291 -17.397   2.267  1.00  0.00     0.009 A 
ENDBRANCH  17  20
ENDBRANCH  12  13
ENDBRANCH  10  12
BRANCH   9  26
HETATM   26  C   UNL     1      37.760 -10.540  -0.873  1.00  0.00     0.088 A 
HETATM   27  C   UNL     1      36.766 -10.701   0.259  1.00  0.00     0.027 A 
HETATM   28  C   UNL     1      36.999  -9.353  -0.342  1.00  0.00     0.027 A 
ENDBRANCH   9  26
ENDBRANCH   6   9
BRANCH   6  29
HETATM   29  C   UNL     1      40.460  -9.521   1.089  1.00  0.00     0.251 C 
HETATM   30  N   UNL     1      41.692 -10.033   1.466  1.00  0.00    -0.325 N 
HETATM   31  H   UNL     1      42.379 -10.171   0.730  1.00  0.00     0.169 HD
HETATM   32  O   UNL     1      39.576  -9.156   1.859  1.00  0.00    -0.270 OA
BRANCH  30  33
HETATM   33  C   UNL     1      42.085 -10.437   2.759  1.00  0.00     0.034 A 
HETATM   34  C   UNL     1      42.889 -11.540   3.020  1.00  0.00     0.032 A 
HETATM   35  C   UNL     1      43.310 -11.820   4.328  1.00  0.00     0.031 A 
HETATM   36  C   UNL     1      42.960 -11.014   5.421  1.00  0.00     0.030 A 
HETATM   37  C   UNL     1      42.115  -9.933   5.141  1.00  0.00     0.031 A 
HETATM   38  C   UNL     1      41.689  -9.641   3.834  1.00  0.00     0.032 A 
BRANCH  36  39
HETATM   39  N   UNL     1      43.401 -11.339   6.699  1.00  0.00    -0.377 N 
HETATM   40  C   UNL     1      44.651 -12.129   6.826  1.00  0.00     0.149 C 
HETATM   41  C   UNL     1      45.854 -11.187   7.010  1.00  0.00     0.187 C 
HETATM   42  O   UNL     1      45.681 -10.321   8.144  1.00  0.00    -0.388 OA
HETATM   43  C   UNL     1      44.489  -9.531   8.003  1.00  0.00     0.187 C 
HETATM   44  C   UNL     1      43.241 -10.412   7.839  1.00  0.00     0.149 C 
ENDBRANCH  36  39
ENDBRANCH  30  33
ENDBRANCH   6  29
TORSDOF 8
ENDMDL
MODEL 3
REMARK VINA RESULT:      -9.2      3.366      7.609
REMARK  8 active torsions:
REMARK  status: ('A' for Active; 'I' for Inactive)
REMARK    1  A    between atoms: C_6  and  N_7 
REMARK    2  A    between atoms: C_6  and  C_26 
REMARK       I    between atoms: N_7  and  C_8 
REMARK    3  A    between atoms: N_7  and  C_23 
REMARK    4  A    between atoms: C_8  and  C_9 
REMARK    5  A    between atoms: C_9  and  N_10 
REMARK    6  A    between atoms: C_14  and  C_15 
REMARK       I    between atoms: C_26  and  N_27 
REMARK    7  A    between atoms: N_27  and  C_28 
REMARK    8  A    between atoms: C_31  and  N_32 
ROOT
HETATM    1  C   UNL     1      39.122  -9.051   2.183  1.00  0.00     0.269 C 
HETATM    2  N   UNL     1      40.140  -9.965   2.819  1.00  0.00    -0.075 N 
HETATM    3  H   UNL     1      40.709 -10.334   2.039  1.00  0.00     0.279 HD
HETATM    4  C   UNL     1      41.048  -9.200   3.746  1.00  0.00     0.237 C 
HETATM    5  C   UNL     1      42.081 -10.120   4.397  1.00  0.00     0.069 C 
HETATM    6  C   UNL     1      41.496 -11.409   5.023  1.00  0.00     0.120 C 
HETATM    7  C   UNL     1      40.542 -12.077   4.004  1.00  0.00     0.069 C 
HETATM    8  C   UNL     1      39.464 -11.134   3.490  1.00  0.00     0.237 C 
ENDROOT
BRANCH   6   9
HETATM    9  N   UNL     1      42.608 -12.326   5.502  1.00  0.00    -0.328 N 
HETATM   10  C   UNL     1      42.599 -13.718   5.673  1.00  0.00     0.239 C 
HETATM   11  O   UNL     1      43.469 -14.263   6.369  1.00  0.00    -0.271 OA
BRANCH  10  12
HETATM   12  C   UNL     1      41.514 -14.609   5.063  1.00  0.00     0.228 C 
BRANCH  12  13
HETATM   13  N   UNL     1      41.977 -15.430   3.946  1.00  0.00    -0.347 N 
HETATM   14  C   UNL     1      41.265 -15.724   2.779  1.00  0.00     0.171 C 
HETATM   15  S   UNL     1      39.657 -15.485   2.457  1.00  0.00    -0.041 SA
HETATM   16  N   UNL     1      42.133 -16.338   1.895  1.00  0.00    -0.357 N 
HETATM   17  C   UNL     1      43.417 -16.620   2.507  1.00  0.00     0.135 C 
HETATM   18  H   UNL     1      41.850 -16.660   0.977  1.00  0.00     0.162 HD
HETATM   19  C   UNL     1      43.402 -15.636   3.695  1.00  0.00     0.155 C 
BRANCH  17  20
HETATM   20  C   UNL     1      43.558 -18.077   2.941  1.00  0.00    -0.034 A 
HETATM   21  C   UNL     1      43.275 -19.152   2.081  1.00  0.00     0.009 A 
HETATM   22  C   UNL     1      43.446 -20.476   2.499  1.00  0.00     0.001 A 
HETATM   23  C   UNL     1      43.909 -20.750   3.782  1.00  0.00     0.000 A 
HETATM   24  C   UNL     1      44.214 -19.701   4.644  1.00  0.00     0.001 A 
HETATM   25  C   UNL     1      44.052 -18.379   4.224  1.00  0.00     0.009 A 
ENDBRANCH  17  20
ENDBRANCH  12  13
ENDBRANCH  10  12
BRANCH   9  26
HETATM   26  C   UNL     1      43.931 -11.724   5.736  1.00  0.00     0.088 A 
HETATM   27  C   UNL     1      44.180 -11.008   7.047  1.00  0.00     0.027 A 
HETATM   28  C   UNL     1      44.993 -12.209   6.689  1.00  0.00     0.027 A 
ENDBRANCH   9  26
ENDBRANCH   6   9
BRANCH   6  29
HETATM   29  C   UNL     1      40.532 -11.063   6.217  1.00  0.00     0.251 C 
HETATM   30  N   UNL     1      40.905  -9.925   6.916  1.00  0.00    -0.325 N 
HETATM   31  H   UNL     1      41.515  -9.268   6.435  1.00  0.00     0.169 HD
HETATM   32  O   UNL     1      39.692 -11.880   6.585  1.00  0.00    -0.270 OA
BRANCH  30  33
HETATM   33  C   UNL     1      40.576  -9.599   8.248  1.00  0.00     0.034 A 
HETATM   34  C   UNL     1      39.278  -9.567   8.743  1.00  0.00     0.032 A 
HETATM   35  C   UNL     1      39.041  -9.322  10.104  1.00  0.00     0.031 A 
HETATM   36  C   UNL     1      40.080  -9.112  11.023  1.00  0.00     0.030 A 
HETATM   37  C   UNL     1      41.377  -9.107  10.494  1.00  0.00     0.031 A 
HETATM   38  C   UNL     1      41.625  -9.352   9.133  1.00  0.00     0.032 A 
BRANCH  36  39
HETATM   39  N   UNL     1      39.790  -8.871  12.361  1.00  0.00    -0.377 N 
HETATM   40  C   UNL     1      40.523  -9.654  13.386  1.00  0.00     0.149 C 
HETATM   41  C   UNL     1      41.764  -8.876  13.858  1.00  0.00     0.187 C 
HETATM   42  O   UNL     1      41.415  -7.577  14.363  1.00  0.00    -0.388 OA
HETATM   43  C   UNL     1      40.737  -6.806  13.358  1.00  0.00     0.187 C 
HETATM   44  C   UNL     1      39.469  -7.516  12.858  1.00  0.00     0.149 C 
ENDBRANCH  36  39
ENDBRANCH  30  33
ENDBRANCH   6  29
TORSDOF 8
ENDMDL
MODEL 4
REMARK VINA RESULT:      -8.9      2.540      5.959
REMARK  8 active torsions:
REMARK  status: ('A' for Active; 'I' for Inactive)
REMARK    1  A    between atoms: C_6  and  N_7 
REMARK    2  A    between atoms: C_6  and  C_26 
REMARK       I    between atoms: N_7  and  C_8 
REMARK    3  A    between atoms: N_7  and  C_23 
REMARK    4  A    between atoms: C_8  and  C_9 
REMARK    5  A    between atoms: C_9  and  N_10 
REMARK    6  A    between atoms: C_14  and  C_15 
REMARK       I    between atoms: C_26  and  N_27 
REMARK    7  A    between atoms: N_27  and  C_28 
REMARK    8  A    between atoms: C_31  and  N_32 
ROOT
HETATM    1  C   UNL     1      39.767 -11.483   0.287  1.00  0.00     0.269 C 
HETATM    2  N   UNL     1      40.268 -12.102   1.568  1.00  0.00    -0.075 N 
HETATM    3  H   UNL     1      40.192 -13.124   1.431  1.00  0.00     0.279 HD
HETATM    4  C   UNL     1      41.717 -11.764   1.801  1.00  0.00     0.237 C 
HETATM    5  C   UNL     1      42.231 -12.386   3.099  1.00  0.00     0.069 C 
HETATM    6  C   UNL     1      41.330 -12.146   4.334  1.00  0.00     0.120 C 
HETATM    7  C   UNL     1      39.865 -12.475   3.961  1.00  0.00     0.069 C 
HETATM    8  C   UNL     1      39.381 -11.725   2.727  1.00  0.00     0.237 C 
ENDROOT
BRANCH   6   9
HETATM    9  N   UNL     1      41.839 -12.929   5.532  1.00  0.00    -0.328 N 
HETATM   10  C   UNL     1      41.511 -14.228   5.948  1.00  0.00     0.239 C 
HETATM   11  O   UNL     1      41.765 -14.590   7.107  1.00  0.00    -0.271 OA
BRANCH  10  12
HETATM   12  C   UNL     1      40.797 -15.224   5.031  1.00  0.00     0.228 C 
BRANCH  12  13
HETATM   13  N   UNL     1      41.662 -15.822   4.016  1.00  0.00    -0.347 N 
HETATM   14  C   UNL     1      41.382 -15.939   2.651  1.00  0.00     0.171 C 
HETATM   15  S   UNL     1      39.942 -15.714   1.863  1.00  0.00    -0.041 SA
HETATM   16  N   UNL     1      42.537 -16.358   2.015  1.00  0.00    -0.357 N 
HETATM   17  C   UNL     1      43.585 -16.688   2.962  1.00  0.00     0.135 C 
HETATM   18  H   UNL     1      42.588 -16.529   1.018  1.00  0.00     0.162 HD
HETATM   19  C   UNL     1      43.106 -15.925   4.213  1.00  0.00     0.155 C 
BRANCH  17  20
HETATM   20  C   UNL     1      43.717 -18.192   3.194  1.00  0.00    -0.034 A 
HETATM   21  C   UNL     1      44.125 -18.734   4.426  1.00  0.00     0.009 A 
HETATM   22  C   UNL     1      44.204 -20.117   4.616  1.00  0.00     0.001 A 
HETATM   23  C   UNL     1      43.870 -20.985   3.581  1.00  0.00     0.000 A 
HETATM   24  C   UNL     1      43.444 -20.472   2.360  1.00  0.00     0.001 A 
HETATM   25  C   UNL     1      43.357 -19.091   2.172  1.00  0.00     0.009 A 
ENDBRANCH  17  20
ENDBRANCH  12  13
ENDBRANCH  10  12
BRANCH   9  26
HETATM   26  C   UNL     1      42.905 -12.315   6.341  1.00  0.00     0.088 A 
HETATM   27  C   UNL     1      44.245 -13.015   6.424  1.00  0.00     0.027 A 
HETATM   28  C   UNL     1      44.156 -11.645   5.836  1.00  0.00     0.027 A 
ENDBRANCH   9  26
ENDBRANCH   6   9
BRANCH   6  29
HETATM   29  C   UNL     1      41.258 -10.615   4.684  1.00  0.00     0.251 C 
HETATM   30  N   UNL     1      40.170 -10.281   5.478  1.00  0.00    -0.325 N 
HETATM   31  H   UNL     1      39.741 -11.033   6.010  1.00  0.00     0.169 HD
HETATM   32  O   UNL     1      41.981  -9.815   4.097  1.00  0.00    -0.270 OA
BRANCH  30  33
HETATM   33  C   UNL     1      39.556  -9.016   5.590  1.00  0.00     0.034 A 
HETATM   34  C   UNL     1      40.131  -7.925   6.230  1.00  0.00     0.032 A 
HETATM   35  C   UNL     1      39.494  -6.676   6.218  1.00  0.00     0.031 A 
HETATM   36  C   UNL     1      38.272  -6.460   5.563  1.00  0.00     0.030 A 
HETATM   37  C   UNL     1      37.691  -7.583   4.962  1.00  0.00     0.031 A 
HETATM   38  C   UNL     1      38.321  -8.839   4.966  1.00  0.00     0.032 A 
BRANCH  36  39
HETATM   39  N   UNL     1      37.681  -5.202   5.585  1.00  0.00    -0.377 N 
HETATM   40  C   UNL     1      36.269  -5.087   5.143  1.00  0.00     0.149 C 
HETATM   41  C   UNL     1      35.327  -5.184   6.356  1.00  0.00     0.187 C 
HETATM   42  O   UNL     1      35.633  -4.190   7.348  1.00  0.00    -0.388 OA
HETATM   43  C   UNL     1      36.991  -4.325   7.801  1.00  0.00     0.187 C 
HETATM   44  C   UNL     1      37.990  -4.213   6.639  1.00  0.00     0.149 C 
ENDBRANCH  36  39
ENDBRANCH  30  33
ENDBRANCH   6  29
TORSDOF 8
ENDMDL
MODEL 5
REMARK VINA RESULT:      -8.8      2.869      7.115
REMARK  8 active torsions:
REMARK  status: ('A' for Active; 'I' for Inactive)
REMARK    1  A    between atoms: C_6  and  N_7 
REMARK    2  A    between atoms: C_6  and  C_26 
REMARK       I    between atoms: N_7  and  C_8 
REMARK    3  A    between atoms: N_7  and  C_23 
REMARK    4  A    between atoms: C_8  and  C_9 
REMARK    5  A    between atoms: C_9  and  N_10 
REMARK    6  A    between atoms: C_14  and  C_15 
REMARK       I    between atoms: C_26  and  N_27 
REMARK    7  A    between atoms: N_27  and  C_28 
REMARK    8  A    between atoms: C_31  and  N_32 
ROOT
HETATM    1  C   UNL     1      39.648 -10.383   1.148  1.00  0.00     0.269 C 
HETATM    2  N   UNL     1      40.270 -11.227   2.233  1.00  0.00    -0.075 N 
HETATM    3  H   UNL     1      40.493 -12.132   1.787  1.00  0.00     0.279 HD
HETATM    4  C   UNL     1      41.556 -10.613   2.724  1.00  0.00     0.237 C 
HETATM    5  C   UNL     1      42.192 -11.462   3.824  1.00  0.00     0.069 C 
HETATM    6  C   UNL     1      41.227 -11.876   4.961  1.00  0.00     0.120 C 
HETATM    7  C   UNL     1      39.927 -12.441   4.339  1.00  0.00     0.069 C 
HETATM    8  C   UNL     1      39.282 -11.489   3.341  1.00  0.00     0.237 C 
ENDROOT
BRANCH   6   9
HETATM    9  N   UNL     1      41.907 -12.840   5.918  1.00  0.00    -0.328 N 
HETATM   10  C   UNL     1      41.660 -14.205   6.129  1.00  0.00     0.239 C 
HETATM   11  O   UNL     1      42.074 -14.758   7.158  1.00  0.00    -0.271 OA
BRANCH  10  12
HETATM   12  C   UNL     1      40.846 -15.049   5.145  1.00  0.00     0.228 C 
BRANCH  12  13
HETATM   13  N   UNL     1      41.643 -15.657   4.082  1.00  0.00    -0.347 N 
HETATM   14  C   UNL     1      41.296 -15.745   2.730  1.00  0.00     0.171 C 
HETATM   15  S   UNL     1      39.828 -15.465   2.015  1.00  0.00    -0.041 SA
HETATM   16  N   UNL     1      42.407 -16.188   2.035  1.00  0.00    -0.357 N 
HETATM   17  C   UNL     1      43.487 -16.564   2.926  1.00  0.00     0.135 C 
HETATM   18  H   UNL     1      42.406 -16.345   1.034  1.00  0.00     0.162 HD
HETATM   19  C   UNL     1      43.091 -15.806   4.209  1.00  0.00     0.155 C 
BRANCH  17  20
HETATM   20  C   UNL     1      43.584 -18.074   3.131  1.00  0.00    -0.034 A 
HETATM   21  C   UNL     1      43.299 -18.996   2.109  1.00  0.00     0.009 A 
HETATM   22  C   UNL     1      43.430 -20.373   2.321  1.00  0.00     0.001 A 
HETATM   23  C   UNL     1      43.854 -20.854   3.555  1.00  0.00     0.000 A 
HETATM   24  C   UNL     1      44.161 -19.959   4.576  1.00  0.00     0.001 A 
HETATM   25  C   UNL     1      44.039 -18.584   4.362  1.00  0.00     0.009 A 
ENDBRANCH  17  20
ENDBRANCH  12  13
ENDBRANCH  10  12
BRANCH   9  26
HETATM   26  C   UNL     1      43.061 -12.338   6.681  1.00  0.00     0.088 A 
HETATM   27  C   UNL     1      44.416 -12.971   6.445  1.00  0.00     0.027 A 
HETATM   28  C   UNL     1      44.212 -11.520   6.154  1.00  0.00     0.027 A 
ENDBRANCH   9  26
ENDBRANCH   6   9
BRANCH   6  29
HETATM   29  C   UNL     1      40.710 -10.615   5.745  1.00  0.00     0.251 C 
HETATM   30  N   UNL     1      41.491  -9.486   5.549  1.00  0.00    -0.325 N 
HETATM   31  H   UNL     1      42.079  -9.470   4.720  1.00  0.00     0.169 HD
HETATM   32  O   UNL     1      39.841 -10.738   6.604  1.00  0.00    -0.270 OA
BRANCH  30  33
HETATM   33  C   UNL     1      41.603  -8.371   6.405  1.00  0.00     0.034 A 
HETATM   34  C   UNL     1      40.746  -7.277   6.376  1.00  0.00     0.032 A 
HETATM   35  C   UNL     1      40.870  -6.250   7.323  1.00  0.00     0.031 A 
HETATM   36  C   UNL     1      41.838  -6.275   8.338  1.00  0.00     0.030 A 
HETATM   37  C   UNL     1      42.716  -7.365   8.323  1.00  0.00     0.031 A 
HETATM   38  C   UNL     1      42.601  -8.400   7.380  1.00  0.00     0.032 A 
BRANCH  36  39
HETATM   39  N   UNL     1      41.920  -5.228   9.251  1.00  0.00    -0.377 N 
HETATM   40  C   UNL     1      40.732  -4.355   9.419  1.00  0.00     0.149 C 
HETATM   41  C   UNL     1      39.865  -4.863  10.585  1.00  0.00     0.187 C 
HETATM   42  O   UNL     1      40.614  -4.946  11.808  1.00  0.00    -0.388 OA
HETATM   43  C   UNL     1      41.744  -5.820  11.653  1.00  0.00     0.187 C 
HETATM   44  C   UNL     1      42.670  -5.356  10.518  1.00  0.00     0.149 C 
ENDBRANCH  36  39
ENDBRANCH  30  33
ENDBRANCH   6  29
TORSDOF 8
ENDMDL
MODEL 6
REMARK VINA RESULT:      -8.8      4.394      8.682
REMARK  8 active torsions:
REMARK  status: ('A' for Active; 'I' for Inactive)
REMARK    1  A    between atoms: C_6  and  N_7 
REMARK    2  A    between atoms: C_6  and  C_26 
REMARK       I    between atoms: N_7  and  C_8 
REMARK    3  A    between atoms: N_7  and  C_23 
REMARK    4  A    between atoms: C_8  and  C_9 
REMARK    5  A    between atoms: C_9  and  N_10 
REMARK    6  A    between atoms: C_14  and  C_15 
REMARK       I    between atoms: C_26  and  N_27 
REMARK    7  A    between atoms: N_27  and  C_28 
REMARK    8  A    between atoms: C_31  and  N_32 
ROOT
HETATM    1  C   UNL     1      38.826  -7.773   5.703  1.00  0.00     0.269 C 
HETATM    2  N   UNL     1      39.841  -8.888   5.754  1.00  0.00    -0.075 N 
HETATM    3  H   UNL     1      39.487  -9.616   5.111  1.00  0.00     0.279 HD
HETATM    4  C   UNL     1      41.181  -8.422   5.246  1.00  0.00     0.237 C 
HETATM    5  C   UNL     1      42.216  -9.545   5.297  1.00  0.00     0.069 C 
HETATM    6  C   UNL     1      42.290 -10.298   6.647  1.00  0.00     0.120 C 
HETATM    7  C   UNL     1      40.857 -10.678   7.092  1.00  0.00     0.069 C 
HETATM    8  C   UNL     1      39.910  -9.487   7.136  1.00  0.00     0.237 C 
ENDROOT
BRANCH   6   9
HETATM    9  N   UNL     1      43.228 -11.488   6.549  1.00  0.00    -0.328 N 
HETATM   10  C   UNL     1      43.127 -12.634   5.746  1.00  0.00     0.239 C 
HETATM   11  O   UNL     1      43.795 -13.642   6.019  1.00  0.00    -0.271 OA
BRANCH  10  12
HETATM   12  C   UNL     1      42.176 -12.712   4.550  1.00  0.00     0.228 C 
BRANCH  12  13
HETATM   13  N   UNL     1      41.708 -14.065   4.249  1.00  0.00    -0.347 N 
HETATM   14  C   UNL     1      40.725 -14.777   4.942  1.00  0.00     0.171 C 
HETATM   15  S   UNL     1      40.038 -14.437   6.411  1.00  0.00    -0.041 SA
HETATM   16  N   UNL     1      40.429 -15.914   4.211  1.00  0.00    -0.357 N 
HETATM   17  C   UNL     1      41.325 -16.078   3.082  1.00  0.00     0.135 C 
HETATM   18  H   UNL     1      39.751 -16.603   4.512  1.00  0.00     0.162 HD
HETATM   19  C   UNL     1      41.857 -14.640   2.914  1.00  0.00     0.155 C 
BRANCH  17  20
HETATM   20  C   UNL     1      42.432 -17.095   3.350  1.00  0.00    -0.034 A 
HETATM   21  C   UNL     1      42.817 -18.061   2.404  1.00  0.00     0.009 A 
HETATM   22  C   UNL     1      43.857 -18.957   2.669  1.00  0.00     0.001 A 
HETATM   23  C   UNL     1      44.538 -18.901   3.881  1.00  0.00     0.000 A 
HETATM   24  C   UNL     1      44.187 -17.940   4.825  1.00  0.00     0.001 A 
HETATM   25  C   UNL     1      43.154 -17.039   4.558  1.00  0.00     0.009 A 
ENDBRANCH  17  20
ENDBRANCH  12  13
ENDBRANCH  10  12
BRANCH   9  26
HETATM   26  C   UNL     1      44.485 -11.426   7.311  1.00  0.00     0.088 A 
HETATM   27  C   UNL     1      45.796 -11.470   6.554  1.00  0.00     0.027 A 
HETATM   28  C   UNL     1      45.452 -10.272   7.378  1.00  0.00     0.027 A 
ENDBRANCH   9  26
ENDBRANCH   6   9
BRANCH   6  29
HETATM   29  C   UNL     1      42.760  -9.336   7.799  1.00  0.00     0.251 C 
HETATM   30  N   UNL     1      42.556  -9.854   9.069  1.00  0.00    -0.325 N 
HETATM   31  H   UNL     1      42.450 -10.862   9.143  1.00  0.00     0.169 HD
HETATM   32  O   UNL     1      43.053  -8.170   7.545  1.00  0.00    -0.270 OA
BRANCH  30  33
HETATM   33  C   UNL     1      42.425  -9.130  10.272  1.00  0.00     0.034 A 
HETATM   34  C   UNL     1      43.394  -9.089  11.266  1.00  0.00     0.032 A 
HETATM   35  C   UNL     1      43.224  -8.271  12.393  1.00  0.00     0.031 A 
HETATM   36  C   UNL     1      42.096  -7.456  12.568  1.00  0.00     0.030 A 
HETATM   37  C   UNL     1      41.114  -7.545  11.574  1.00  0.00     0.031 A 
HETATM   38  C   UNL     1      41.274  -8.360  10.441  1.00  0.00     0.032 A 
BRANCH  36  39
HETATM   39  N   UNL     1      41.976  -6.665  13.706  1.00  0.00    -0.377 N 
HETATM   40  C   UNL     1      40.731  -5.877  13.879  1.00  0.00     0.149 C 
HETATM   41  C   UNL     1      39.719  -6.668  14.727  1.00  0.00     0.187 C 
HETATM   42  O   UNL     1      40.269  -7.039  16.001  1.00  0.00    -0.388 OA
HETATM   43  C   UNL     1      41.455  -7.833  15.832  1.00  0.00     0.187 C 
HETATM   44  C   UNL     1      42.522  -7.090  15.012  1.00  0.00     0.149 C 
ENDBRANCH  36  39
ENDBRANCH  30  33
ENDBRANCH   6  29
TORSDOF 8
ENDMDL
MODEL 7
REMARK VINA RESULT:      -8.7      4.371      6.625
REMARK  8 active torsions:
REMARK  status: ('A' for Active; 'I' for Inactive)
REMARK    1  A    between atoms: C_6  and  N_7 
REMARK    2  A    between atoms: C_6  and  C_26 
REMARK       I    between atoms: N_7  and  C_8 
REMARK    3  A    between atoms: N_7  and  C_23 
REMARK    4  A    between atoms: C_8  and  C_9 
REMARK    5  A    between atoms: C_9  and  N_10 
REMARK    6  A    between atoms: C_14  and  C_15 
REMARK       I    between atoms: C_26  and  N_27 
REMARK    7  A    between atoms: N_27  and  C_28 
REMARK    8  A    between atoms: C_31  and  N_32 
ROOT
HETATM    1  C   UNL     1      36.547  -8.486   1.815  1.00  0.00     0.269 C 
HETATM    2  N   UNL     1      37.284  -9.763   1.495  1.00  0.00    -0.075 N 
HETATM    3  H   UNL     1      36.940 -10.460   2.177  1.00  0.00     0.279 HD
HETATM    4  C   UNL     1      36.945 -10.250   0.110  1.00  0.00     0.237 C 
HETATM    5  C   UNL     1      37.690 -11.543  -0.221  1.00  0.00     0.069 C 
HETATM    6  C   UNL     1      39.209 -11.509   0.072  1.00  0.00     0.120 C 
HETATM    7  C   UNL     1      39.436 -10.945   1.495  1.00  0.00     0.069 C 
HETATM    8  C   UNL     1      38.766  -9.596   1.715  1.00  0.00     0.237 C 
ENDROOT
BRANCH   6   9
HETATM    9  N   UNL     1      39.828 -12.880  -0.141  1.00  0.00    -0.328 N 
HETATM   10  C   UNL     1      40.290 -13.803   0.810  1.00  0.00     0.239 C 
HETATM   11  O   UNL     1      41.051 -14.719   0.465  1.00  0.00    -0.271 OA
BRANCH  10  12
HETATM   12  C   UNL     1      39.923 -13.701   2.292  1.00  0.00     0.228 C 
BRANCH  12  13
HETATM   13  N   UNL     1      40.938 -14.242   3.195  1.00  0.00    -0.347 N 
HETATM   14  C   UNL     1      42.114 -13.604   3.601  1.00  0.00     0.171 C 
HETATM   15  S   UNL     1      42.818 -12.236   2.985  1.00  0.00    -0.041 SA
HETATM   16  N   UNL     1      42.678 -14.357   4.614  1.00  0.00    -0.357 N 
HETATM   17  C   UNL     1      41.977 -15.613   4.808  1.00  0.00     0.135 C 
HETATM   18  H   UNL     1      43.548 -14.109   5.069  1.00  0.00     0.162 HD
HETATM   19  C   UNL     1      40.617 -15.297   4.154  1.00  0.00     0.155 C 
BRANCH  17  20
HETATM   20  C   UNL     1      42.692 -16.794   4.157  1.00  0.00    -0.034 A 
HETATM   21  C   UNL     1      42.425 -17.207   2.840  1.00  0.00     0.009 A 
HETATM   22  C   UNL     1      43.122 -18.273   2.262  1.00  0.00     0.001 A 
HETATM   23  C   UNL     1      44.103 -18.943   2.986  1.00  0.00     0.000 A 
HETATM   24  C   UNL     1      44.398 -18.539   4.285  1.00  0.00     0.001 A 
HETATM   25  C   UNL     1      43.709 -17.469   4.859  1.00  0.00     0.009 A 
ENDBRANCH  17  20
ENDBRANCH  12  13
ENDBRANCH  10  12
BRANCH   9  26
HETATM   26  C   UNL     1      39.880 -13.395  -1.518  1.00  0.00     0.088 A 
HETATM   27  C   UNL     1      39.014 -14.583  -1.880  1.00  0.00     0.027 A 
HETATM   28  C   UNL     1      38.810 -13.276  -2.573  1.00  0.00     0.027 A 
ENDBRANCH   9  26
ENDBRANCH   6   9
BRANCH   6  29
HETATM   29  C   UNL     1      39.931 -10.446  -0.835  1.00  0.00     0.251 C 
HETATM   30  N   UNL     1      41.130  -9.992  -0.306  1.00  0.00    -0.325 N 
HETATM   31  H   UNL     1      41.578 -10.581   0.391  1.00  0.00     0.169 HD
HETATM   32  O   UNL     1      39.335  -9.941  -1.782  1.00  0.00    -0.270 OA
BRANCH  30  33
HETATM   33  C   UNL     1      41.775  -8.770  -0.588  1.00  0.00     0.034 A 
HETATM   34  C   UNL     1      42.833  -8.636  -1.478  1.00  0.00     0.032 A 
HETATM   35  C   UNL     1      43.360  -7.369  -1.772  1.00  0.00     0.031 A 
HETATM   36  C   UNL     1      42.850  -6.192  -1.205  1.00  0.00     0.030 A 
HETATM   37  C   UNL     1      41.812  -6.355  -0.280  1.00  0.00     0.031 A 
HETATM   38  C   UNL     1      41.276  -7.619   0.022  1.00  0.00     0.032 A 
BRANCH  36  39
HETATM   39  N   UNL     1      43.411  -4.962  -1.528  1.00  0.00    -0.377 N 
HETATM   40  C   UNL     1      42.499  -3.806  -1.716  1.00  0.00     0.149 C 
HETATM   41  C   UNL     1      42.361  -3.024  -0.399  1.00  0.00     0.187 C 
HETATM   42  O   UNL     1      43.637  -2.589   0.097  1.00  0.00    -0.388 OA
HETATM   43  C   UNL     1      44.508  -3.712   0.313  1.00  0.00     0.187 C 
HETATM   44  C   UNL     1      44.711  -4.527  -0.974  1.00  0.00     0.149 C 
ENDBRANCH  36  39
ENDBRANCH  30  33
ENDBRANCH   6  29
TORSDOF 8
ENDMDL
MODEL 8
REMARK VINA RESULT:      -8.5      4.222      6.214
REMARK  8 active torsions:
REMARK  status: ('A' for Active; 'I' for Inactive)
REMARK    1  A    between atoms: C_6  and  N_7 
REMARK    2  A    between atoms: C_6  and  C_26 
REMARK       I    between atoms: N_7  and  C_8 
REMARK    3  A    between atoms: N_7  and  C_23 
REMARK    4  A    between atoms: C_8  and  C_9 
REMARK    5  A    between atoms: C_9  and  N_10 
REMARK    6  A    between atoms: C_14  and  C_15 
REMARK       I    between atoms: C_26  and  N_27 
REMARK    7  A    between atoms: N_27  and  C_28 
REMARK    8  A    between atoms: C_31  and  N_32 
ROOT
HETATM    1  C   UNL     1      37.131  -8.220   2.036  1.00  0.00     0.269 C 
HETATM    2  N   UNL     1      37.822  -9.527   1.738  1.00  0.00    -0.075 N 
HETATM    3  H   UNL     1      37.850 -10.038   2.636  1.00  0.00     0.279 HD
HETATM    4  C   UNL     1      37.028 -10.346   0.754  1.00  0.00     0.237 C 
HETATM    5  C   UNL     1      37.724 -11.671   0.445  1.00  0.00     0.069 C 
HETATM    6  C   UNL     1      39.223 -11.547   0.083  1.00  0.00     0.120 C 
HETATM    7  C   UNL     1      39.921 -10.645   1.130  1.00  0.00     0.069 C 
HETATM    8  C   UNL     1      39.244  -9.292   1.297  1.00  0.00     0.237 C 
ENDROOT
BRANCH   6   9
HETATM    9  N   UNL     1      39.859 -12.920  -0.052  1.00  0.00    -0.328 N 
HETATM   10  C   UNL     1      40.400 -13.750   0.941  1.00  0.00     0.239 C 
HETATM   11  O   UNL     1      41.159 -14.678   0.627  1.00  0.00    -0.271 OA
BRANCH  10  12
HETATM   12  C   UNL     1      40.125 -13.528   2.430  1.00  0.00     0.228 C 
BRANCH  12  13
HETATM   13  N   UNL     1      41.117 -14.136   3.316  1.00  0.00    -0.347 N 
HETATM   14  C   UNL     1      42.316 -13.557   3.741  1.00  0.00     0.171 C 
HETATM   15  S   UNL     1      43.075 -12.200   3.167  1.00  0.00    -0.041 SA
HETATM   16  N   UNL     1      42.849 -14.362   4.731  1.00  0.00    -0.357 N 
HETATM   17  C   UNL     1      42.099 -15.594   4.887  1.00  0.00     0.135 C 
HETATM   18  H   UNL     1      43.728 -14.162   5.193  1.00  0.00     0.162 HD
HETATM   19  C   UNL     1      40.753 -15.205   4.243  1.00  0.00     0.155 C 
BRANCH  17  20
HETATM   20  C   UNL     1      42.767 -16.783   4.200  1.00  0.00    -0.034 A 
HETATM   21  C   UNL     1      42.423 -17.198   2.902  1.00  0.00     0.009 A 
HETATM   22  C   UNL     1      43.078 -18.271   2.289  1.00  0.00     0.001 A 
HETATM   23  C   UNL     1      44.094 -18.945   2.959  1.00  0.00     0.000 A 
HETATM   24  C   UNL     1      44.465 -18.539   4.237  1.00  0.00     0.001 A 
HETATM   25  C   UNL     1      43.817 -17.462   4.847  1.00  0.00     0.009 A 
ENDBRANCH  17  20
ENDBRANCH  12  13
ENDBRANCH  10  12
BRANCH   9  26
HETATM   26  C   UNL     1      39.836 -13.550  -1.382  1.00  0.00     0.088 A 
HETATM   27  C   UNL     1      39.092 -14.858  -1.550  1.00  0.00     0.027 A 
HETATM   28  C   UNL     1      38.660 -13.652  -2.318  1.00  0.00     0.027 A 
ENDBRANCH   9  26
ENDBRANCH   6   9
BRANCH   6  29
HETATM   29  C   UNL     1      39.412 -10.733  -1.249  1.00  0.00     0.251 C 
HETATM   30  N   UNL     1      40.735 -10.410  -1.515  1.00  0.00    -0.325 N 
HETATM   31  H   UNL     1      41.447 -10.970  -1.055  1.00  0.00     0.169 HD
HETATM   32  O   UNL     1      38.435 -10.263  -1.826  1.00  0.00    -0.270 OA
BRANCH  30  33
HETATM   33  C   UNL     1      41.206  -9.349  -2.317  1.00  0.00     0.034 A 
HETATM   34  C   UNL     1      41.042  -9.283  -3.695  1.00  0.00     0.032 A 
HETATM   35  C   UNL     1      41.460  -8.150  -4.408  1.00  0.00     0.031 A 
HETATM   36  C   UNL     1      42.042  -7.039  -3.781  1.00  0.00     0.030 A 
HETATM   37  C   UNL     1      42.235  -7.144  -2.398  1.00  0.00     0.031 A 
HETATM   38  C   UNL     1      41.820  -8.275  -1.674  1.00  0.00     0.032 A 
BRANCH  36  39
HETATM   39  N   UNL     1      42.442  -5.941  -4.535  1.00  0.00    -0.377 N 
HETATM   40  C   UNL     1      43.075  -6.192  -5.853  1.00  0.00     0.149 C 
HETATM   41  C   UNL     1      42.012  -6.150  -6.965  1.00  0.00     0.187 C 
HETATM   42  O   UNL     1      41.300  -4.903  -6.973  1.00  0.00    -0.388 OA
HETATM   43  C   UNL     1      40.657  -4.677  -5.707  1.00  0.00     0.187 C 
HETATM   44  C   UNL     1      41.668  -4.681  -4.549  1.00  0.00     0.149 C 
ENDBRANCH  36  39
ENDBRANCH  30  33
ENDBRANCH   6  29
TORSDOF 8
ENDMDL
MODEL 9
REMARK VINA RESULT:      -8.4      5.584      9.961
REMARK  8 active torsions:
REMARK  status: ('A' for Active; 'I' for Inactive)
REMARK    1  A    between atoms: C_6  and  N_7 
REMARK    2  A    between atoms: C_6  and  C_26 
REMARK       I    between atoms: N_7  and  C_8 
REMARK    3  A    between atoms: N_7  and  C_23 
REMARK    4  A    between atoms: C_8  and  C_9 
REMARK    5  A    between atoms: C_9  and  N_10 
REMARK    6  A    between atoms: C_14  and  C_15 
REMARK       I    between atoms: C_26  and  N_27 
REMARK    7  A    between atoms: N_27  and  C_28 
REMARK    8  A    between atoms: C_31  and  N_32 
ROOT
HETATM    1  C   UNL     1      39.582  -5.875   7.670  1.00  0.00     0.269 C 
HETATM    2  N   UNL     1      40.488  -7.077   7.561  1.00  0.00    -0.075 N 
HETATM    3  H   UNL     1      40.270  -7.507   6.647  1.00  0.00     0.279 HD
HETATM    4  C   UNL     1      41.936  -6.663   7.555  1.00  0.00     0.237 C 
HETATM    5  C   UNL     1      42.860  -7.876   7.447  1.00  0.00     0.069 C 
HETATM    6  C   UNL     1      42.545  -9.020   8.440  1.00  0.00     0.120 C 
HETATM    7  C   UNL     1      41.027  -9.321   8.398  1.00  0.00     0.069 C 
HETATM    8  C   UNL     1      40.168  -8.087   8.634  1.00  0.00     0.237 C 
ENDROOT
BRANCH   6   9
HETATM    9  N   UNL     1      43.410 -10.235   8.152  1.00  0.00    -0.328 N 
HETATM   10  C   UNL     1      43.274 -11.205   7.147  1.00  0.00     0.239 C 
HETATM   11  O   UNL     1      43.864 -12.290   7.249  1.00  0.00    -0.271 OA
BRANCH  10  12
HETATM   12  C   UNL     1      42.374 -10.995   5.927  1.00  0.00     0.228 C 
BRANCH  12  13
HETATM   13  N   UNL     1      42.101 -12.217   5.173  1.00  0.00    -0.347 N 
HETATM   14  C   UNL     1      40.849 -12.810   4.976  1.00  0.00     0.171 C 
HETATM   15  S   UNL     1      39.416 -12.486   5.741  1.00  0.00    -0.041 SA
HETATM   16  N   UNL     1      40.998 -13.812   4.035  1.00  0.00    -0.357 N 
HETATM   17  C   UNL     1      42.391 -14.028   3.690  1.00  0.00     0.135 C 
HETATM   18  H   UNL     1      40.232 -14.400   3.728  1.00  0.00     0.162 HD
HETATM   19  C   UNL     1      43.017 -12.692   4.138  1.00  0.00     0.155 C 
BRANCH  17  20
HETATM   20  C   UNL     1      42.994 -15.237   4.401  1.00  0.00    -0.034 A 
HETATM   21  C   UNL     1      43.110 -16.496   3.785  1.00  0.00     0.009 A 
HETATM   22  C   UNL     1      43.698 -17.575   4.453  1.00  0.00     0.001 A 
HETATM   23  C   UNL     1      44.187 -17.416   5.745  1.00  0.00     0.000 A 
HETATM   24  C   UNL     1      44.100 -16.174   6.368  1.00  0.00     0.001 A 
HETATM   25  C   UNL     1      43.521 -15.094   5.698  1.00  0.00     0.009 A 
ENDBRANCH  17  20
ENDBRANCH  12  13
ENDBRANCH  10  12
BRANCH   9  26
HETATM   26  C   UNL     1      44.633 -10.403   8.954  1.00  0.00     0.088 A 
HETATM   27  C   UNL     1      45.966 -10.467   8.237  1.00  0.00     0.027 A 
HETATM   28  C   UNL     1      45.698  -9.368   9.213  1.00  0.00     0.027 A 
ENDBRANCH   9  26
ENDBRANCH   6   9
BRANCH   6  29
HETATM   29  C   UNL     1      42.758  -8.548   9.925  1.00  0.00     0.251 C 
HETATM   30  N   UNL     1      42.041  -9.293  10.849  1.00  0.00    -0.325 N 
HETATM   31  H   UNL     1      41.736 -10.218  10.558  1.00  0.00     0.169 HD
HETATM   32  O   UNL     1      43.324  -7.483  10.156  1.00  0.00    -0.270 OA
BRANCH  30  33
HETATM   33  C   UNL     1      41.639  -8.889  12.139  1.00  0.00     0.034 A 
HETATM   34  C   UNL     1      42.416  -9.039  13.280  1.00  0.00     0.032 A 
HETATM   35  C   UNL     1      41.980  -8.527  14.511  1.00  0.00     0.031 A 
HETATM   36  C   UNL     1      40.767  -7.838  14.653  1.00  0.00     0.030 A 
HETATM   37  C   UNL     1      39.981  -7.735  13.498  1.00  0.00     0.031 A 
HETATM   38  C   UNL     1      40.408  -8.243  12.260  1.00  0.00     0.032 A 
BRANCH  36  39
HETATM   39  N   UNL     1      40.380  -7.353  15.897  1.00  0.00    -0.377 N 
HETATM   40  C   UNL     1      41.198  -7.726  17.077  1.00  0.00     0.149 C 
HETATM   41  C   UNL     1      42.254  -6.640  17.352  1.00  0.00     0.187 C 
HETATM   42  O   UNL     1      41.652  -5.349  17.537  1.00  0.00    -0.388 OA
HETATM   43  C   UNL     1      40.888  -4.973  16.380  1.00  0.00     0.187 C 
HETATM   44  C   UNL     1      39.795  -6.005  16.061  1.00  0.00     0.149 C 
ENDBRANCH  36  39
ENDBRANCH  30  33
ENDBRANCH   6  29
TORSDOF 8
ENDMDL
MODEL 10
REMARK VINA RESULT:      -8.3      5.100      7.499
REMARK  8 active torsions:
REMARK  status: ('A' for Active; 'I' for Inactive)
REMARK    1  A    between atoms: C_6  and  N_7 
REMARK    2  A    between atoms: C_6  and  C_26 
REMARK       I    between atoms: N_7  and  C_8 
REMARK    3  A    between atoms: N_7  and  C_23 
REMARK    4  A    between atoms: C_8  and  C_9 
REMARK    5  A    between atoms: C_9  and  N_10 
REMARK    6  A    between atoms: C_14  and  C_15 
REMARK       I    between atoms: C_26  and  N_27 
REMARK    7  A    between atoms: N_27  and  C_28 
REMARK    8  A    between atoms: C_31  and  N_32 
ROOT
HETATM    1  C   UNL     1      40.419  -6.892   1.682  1.00  0.00     0.269 C 
HETATM    2  N   UNL     1      40.266  -8.245   1.034  1.00  0.00    -0.075 N 
HETATM    3  H   UNL     1      40.447  -8.934   1.782  1.00  0.00     0.279 HD
HETATM    4  C   UNL     1      38.860  -8.449   0.534  1.00  0.00     0.237 C 
HETATM    5  C   UNL     1      38.698  -9.818  -0.126  1.00  0.00     0.069 C 
HETATM    6  C   UNL     1      39.785 -10.166  -1.171  1.00  0.00     0.120 C 
HETATM    7  C   UNL     1      41.178  -9.868  -0.567  1.00  0.00     0.069 C 
HETATM    8  C   UNL     1      41.307  -8.446  -0.039  1.00  0.00     0.237 C 
ENDROOT
BRANCH   6   9
HETATM    9  N   UNL     1      39.629 -11.598  -1.653  1.00  0.00    -0.328 N 
HETATM   10  C   UNL     1      40.284 -12.759  -1.214  1.00  0.00     0.239 C 
HETATM   11  O   UNL     1      40.279 -13.778  -1.921  1.00  0.00    -0.271 OA
BRANCH  10  12
HETATM   12  C   UNL     1      41.058 -12.811   0.104  1.00  0.00     0.228 C 
BRANCH  12  13
HETATM   13  N   UNL     1      40.523 -13.769   1.071  1.00  0.00    -0.347 N 
HETATM   14  C   UNL     1      39.651 -13.484   2.126  1.00  0.00     0.171 C 
HETATM   15  S   UNL     1      39.217 -12.010   2.746  1.00  0.00    -0.041 SA
HETATM   16  N   UNL     1      39.221 -14.687   2.657  1.00  0.00    -0.357 N 
HETATM   17  C   UNL     1      39.920 -15.816   2.073  1.00  0.00     0.135 C 
HETATM   18  H   UNL     1      38.588 -14.748   3.445  1.00  0.00     0.162 HD
HETATM   19  C   UNL     1      40.444 -15.195   0.763  1.00  0.00     0.155 C 
BRANCH  17  20
HETATM   20  C   UNL     1      41.036 -16.347   2.970  1.00  0.00    -0.034 A 
HETATM   21  C   UNL     1      42.128 -17.077   2.467  1.00  0.00     0.009 A 
HETATM   22  C   UNL     1      43.151 -17.520   3.311  1.00  0.00     0.001 A 
HETATM   23  C   UNL     1      43.106 -17.237   4.672  1.00  0.00     0.000 A 
HETATM   24  C   UNL     1      42.046 -16.498   5.189  1.00  0.00     0.001 A 
HETATM   25  C   UNL     1      41.029 -16.048   4.346  1.00  0.00     0.009 A 
ENDBRANCH  17  20
ENDBRANCH  12  13
ENDBRANCH  10  12
BRANCH   9  26
HETATM   26  C   UNL     1      38.581 -11.868  -2.651  1.00  0.00     0.088 A 
HETATM   27  C   UNL     1      37.365 -12.665  -2.227  1.00  0.00     0.027 A 
HETATM   28  C   UNL     1      37.204 -11.260  -2.708  1.00  0.00     0.027 A 
ENDBRANCH   9  26
ENDBRANCH   6   9
BRANCH   6  29
HETATM   29  C   UNL     1      39.724  -9.178  -2.392  1.00  0.00     0.251 C 
HETATM   30  N   UNL     1      40.779  -9.332  -3.280  1.00  0.00    -0.325 N 
HETATM   31  H   UNL     1      41.273 -10.219  -3.258  1.00  0.00     0.169 HD
HETATM   32  O   UNL     1      38.932  -8.239  -2.385  1.00  0.00    -0.270 OA
BRANCH  30  33
HETATM   33  C   UNL     1      41.280  -8.368  -4.179  1.00  0.00     0.034 A 
HETATM   34  C   UNL     1      40.662  -8.021  -5.374  1.00  0.00     0.032 A 
HETATM   35  C   UNL     1      41.177  -6.986  -6.169  1.00  0.00     0.031 A 
HETATM   36  C   UNL     1      42.314  -6.252  -5.803  1.00  0.00     0.030 A 
HETATM   37  C   UNL     1      42.945  -6.646  -4.616  1.00  0.00     0.031 A 
HETATM   38  C   UNL     1      42.437  -7.680  -3.812  1.00  0.00     0.032 A 
BRANCH  36  39
HETATM   39  N   UNL     1      42.786  -5.237  -6.629  1.00  0.00    -0.377 N 
HETATM   40  C   UNL     1      44.110  -5.420  -7.273  1.00  0.00     0.149 C 
HETATM   41  C   UNL     1      43.935  -6.028  -8.676  1.00  0.00     0.187 C 
HETATM   42  O   UNL     1      43.076  -5.223  -9.499  1.00  0.00    -0.388 OA
HETATM   43  C   UNL     1      41.782  -5.076  -8.892  1.00  0.00     0.187 C 
HETATM   44  C   UNL     1      41.881  -4.449  -7.492  1.00  0.00     0.149 C 
ENDBRANCH  36  39
ENDBRANCH  30  33
ENDBRANCH   6  29
TORSDOF 8
ENDMDL
