MODEL 1
REMARK VINA RESULT:      -8.1      0.000      0.000
REMARK  2 active torsions:
REMARK  status: ('A' for Active; 'I' for Inactive)
REMARK    1  A    between atoms: S_2  and  N_3 
REMARK    2  A    between atoms: C_10  and  N_11 
ROOT
HETATM    1  N   UNL     1      40.809 -14.058   4.258  1.00  0.00    -0.311 N 
HETATM    2  C   UNL     1      42.105 -13.838   3.586  1.00  0.00     0.138 C 
HETATM    3  C   UNL     1      43.215 -14.458   4.422  1.00  0.00     0.059 C 
HETATM    4  C   UNL     1      42.982 -15.965   4.693  1.00  0.00     0.073 C 
HETATM    5  O   UNL     1      43.127 -16.641   3.433  1.00  0.00    -0.339 OA
HETATM    6  C   UNL     1      43.363 -17.987   3.463  1.00  0.00     0.078 A 
HETATM    7  C   UNL     1      43.852 -18.669   4.581  1.00  0.00     0.005 A 
HETATM    8  C   UNL     1      44.160 -17.935   5.849  1.00  0.00     0.222 C 
HETATM    9  C   UNL     1      44.082 -16.423   5.673  1.00  0.00     0.076 C 
HETATM   10  C   UNL     1      43.113 -18.664   2.271  1.00  0.00     0.037 A 
HETATM   11  C   UNL     1      43.330 -20.038   2.187  1.00  0.00     0.003 A 
HETATM   12  C   UNL     1      43.813 -20.733   3.292  1.00  0.00     0.001 A 
HETATM   13  C   UNL     1      44.079 -20.054   4.483  1.00  0.00     0.012 A 
HETATM   14  C   UNL     1      41.549 -16.204   5.223  1.00  0.00     0.059 C 
HETATM   15  C   UNL     1      40.478 -15.486   4.394  1.00  0.00     0.138 C 
ENDROOT
BRANCH   8  16
HETATM   16  N   UNL     1      43.282 -18.365   6.974  1.00  0.00    -0.071 N 
HETATM   17  H   UNL     1      43.364 -17.747   7.789  1.00  0.00     0.275 HD
HETATM   18  H   UNL     1      42.295 -18.340   6.688  1.00  0.00     0.275 HD
HETATM   19  H   UNL     1      43.486 -19.325   7.278  1.00  0.00     0.275 HD
ENDBRANCH   8  16
BRANCH   1  20
HETATM   20  S   UNL     1      40.359 -13.000   5.506  1.00  0.00     0.224 S 
HETATM   21  C   UNL     1      39.294 -11.873   4.633  1.00  0.00     0.186 C 
HETATM   22  O   UNL     1      41.534 -12.272   5.932  1.00  0.00    -0.206 OA
HETATM   23  O   UNL     1      39.570 -13.761   6.453  1.00  0.00    -0.206 OA
ENDBRANCH   1  20
TORSDOF 2
ENDMDL
MODEL 2
REMARK VINA RESULT:      -7.2      2.235      3.363
REMARK  2 active torsions:
REMARK  status: ('A' for Active; 'I' for Inactive)
REMARK    1  A    between atoms: S_2  and  N_3 
REMARK    2  A    between atoms: C_10  and  N_11 
ROOT
HETATM    1  N   UNL     1      41.991 -12.355   5.673  1.00  0.00    -0.311 N 
HETATM    2  C   UNL     1      40.896 -13.285   6.012  1.00  0.00     0.138 C 
HETATM    3  C   UNL     1      40.443 -14.007   4.751  1.00  0.00     0.059 C 
HETATM    4  C   UNL     1      41.603 -14.752   4.045  1.00  0.00     0.073 C 
HETATM    5  O   UNL     1      41.983 -15.839   4.905  1.00  0.00    -0.339 OA
HETATM    6  C   UNL     1      42.692 -16.866   4.348  1.00  0.00     0.078 A 
HETATM    7  C   UNL     1      42.738 -17.130   2.976  1.00  0.00     0.005 A 
HETATM    8  C   UNL     1      41.980 -16.275   2.009  1.00  0.00     0.222 C 
HETATM    9  C   UNL     1      41.046 -15.297   2.713  1.00  0.00     0.076 C 
HETATM   10  C   UNL     1      43.367 -17.685   5.251  1.00  0.00     0.037 A 
HETATM   11  C   UNL     1      44.113 -18.768   4.793  1.00  0.00     0.003 A 
HETATM   12  C   UNL     1      44.172 -19.043   3.429  1.00  0.00     0.001 A 
HETATM   13  C   UNL     1      43.484 -18.233   2.523  1.00  0.00     0.012 A 
HETATM   14  C   UNL     1      42.819 -13.813   3.864  1.00  0.00     0.059 C 
HETATM   15  C   UNL     1      43.177 -13.047   5.142  1.00  0.00     0.138 C 
ENDROOT
BRANCH   8  16
HETATM   16  N   UNL     1      42.884 -15.541   1.080  1.00  0.00    -0.071 N 
HETATM   17  H   UNL     1      43.303 -16.158   0.376  1.00  0.00     0.275 HD
HETATM   18  H   UNL     1      42.359 -14.824   0.562  1.00  0.00     0.275 HD
HETATM   19  H   UNL     1      43.644 -15.061   1.578  1.00  0.00     0.275 HD
ENDBRANCH   8  16
BRANCH   1  20
HETATM   20  S   UNL     1      41.589 -10.835   5.037  1.00  0.00     0.224 S 
HETATM   21  C   UNL     1      41.551  -9.844   6.515  1.00  0.00     0.186 C 
HETATM   22  O   UNL     1      40.246 -10.904   4.505  1.00  0.00    -0.206 OA
HETATM   23  O   UNL     1      42.698 -10.407   4.208  1.00  0.00    -0.206 OA
ENDBRANCH   1  20
TORSDOF 2
ENDMDL
MODEL 3
REMARK VINA RESULT:      -7.2      1.751      2.165
REMARK  2 active torsions:
REMARK  status: ('A' for Active; 'I' for Inactive)
REMARK    1  A    between atoms: S_2  and  N_3 
REMARK    2  A    between atoms: C_10  and  N_11 
ROOT
HETATM    1  N   UNL     1      40.528 -12.036   4.880  1.00  0.00    -0.311 N 
HETATM    2  C   UNL     1      41.880 -11.733   4.372  1.00  0.00     0.138 C 
HETATM    3  C   UNL     1      42.914 -12.393   5.273  1.00  0.00     0.059 C 
HETATM    4  C   UNL     1      42.701 -13.922   5.400  1.00  0.00     0.073 C 
HETATM    5  O   UNL     1      43.000 -14.491   4.114  1.00  0.00    -0.339 OA
HETATM    6  C   UNL     1      43.274 -15.829   4.066  1.00  0.00     0.078 A 
HETATM    7  C   UNL     1      43.662 -16.588   5.174  1.00  0.00     0.005 A 
HETATM    8  C   UNL     1      43.810 -15.951   6.520  1.00  0.00     0.222 C 
HETATM    9  C   UNL     1      43.705 -14.432   6.455  1.00  0.00     0.076 C 
HETATM   10  C   UNL     1      43.174 -16.414   2.805  1.00  0.00     0.037 A 
HETATM   11  C   UNL     1      43.442 -17.772   2.639  1.00  0.00     0.003 A 
HETATM   12  C   UNL     1      43.825 -18.542   3.733  1.00  0.00     0.001 A 
HETATM   13  C   UNL     1      43.942 -17.955   4.995  1.00  0.00     0.012 A 
HETATM   14  C   UNL     1      41.228 -14.235   5.751  1.00  0.00     0.059 C 
HETATM   15  C   UNL     1      40.229 -13.478   4.869  1.00  0.00     0.138 C 
ENDROOT
BRANCH   8  16
HETATM   16  N   UNL     1      42.832 -16.490   7.507  1.00  0.00    -0.071 N 
HETATM   17  H   UNL     1      42.835 -15.961   8.386  1.00  0.00     0.275 HD
HETATM   18  H   UNL     1      41.876 -16.427   7.135  1.00  0.00     0.275 HD
HETATM   19  H   UNL     1      43.009 -17.478   7.727  1.00  0.00     0.275 HD
ENDBRANCH   8  16
BRANCH   1  20
HETATM   20  S   UNL     1      39.915 -11.092   6.150  1.00  0.00     0.224 S 
HETATM   21  C   UNL     1      39.081  -9.805   5.248  1.00  0.00     0.186 C 
HETATM   22  O   UNL     1      41.029 -10.500   6.856  1.00  0.00    -0.206 OA
HETATM   23  O   UNL     1      38.931 -11.896   6.848  1.00  0.00    -0.206 OA
ENDBRANCH   1  20
TORSDOF 2
ENDMDL
MODEL 4
REMARK VINA RESULT:      -6.4      4.738      7.462
REMARK  2 active torsions:
REMARK  status: ('A' for Active; 'I' for Inactive)
REMARK    1  A    between atoms: S_2  and  N_3 
REMARK    2  A    between atoms: C_10  and  N_11 
ROOT
HETATM    1  N   UNL     1      41.421 -12.412   3.700  1.00  0.00    -0.311 N 
HETATM    2  C   UNL     1      40.993 -12.910   5.022  1.00  0.00     0.138 C 
HETATM    3  C   UNL     1      42.222 -13.249   5.852  1.00  0.00     0.059 C 
HETATM    4  C   UNL     1      43.188 -12.047   6.001  1.00  0.00     0.073 C 
HETATM    5  O   UNL     1      42.519 -11.074   6.820  1.00  0.00    -0.339 OA
HETATM    6  C   UNL     1      43.289 -10.119   7.421  1.00  0.00     0.078 A 
HETATM    7  C   UNL     1      44.668 -10.238   7.619  1.00  0.00     0.005 A 
HETATM    8  C   UNL     1      45.400 -11.465   7.173  1.00  0.00     0.222 C 
HETATM    9  C   UNL     1      44.452 -12.568   6.717  1.00  0.00     0.076 C 
HETATM   10  C   UNL     1      42.602  -8.993   7.871  1.00  0.00     0.037 A 
HETATM   11  C   UNL     1      43.288  -7.961   8.508  1.00  0.00     0.003 A 
HETATM   12  C   UNL     1      44.661  -8.063   8.710  1.00  0.00     0.001 A 
HETATM   13  C   UNL     1      45.350  -9.197   8.274  1.00  0.00     0.012 A 
HETATM   14  C   UNL     1      43.481 -11.415   4.619  1.00  0.00     0.059 C 
HETATM   15  C   UNL     1      42.214 -11.175   3.791  1.00  0.00     0.138 C 
ENDROOT
BRANCH   8  16
HETATM   16  N   UNL     1      46.393 -11.169   6.103  1.00  0.00    -0.071 N 
HETATM   17  H   UNL     1      45.953 -10.784   5.260  1.00  0.00     0.275 HD
HETATM   18  H   UNL     1      47.068 -10.464   6.425  1.00  0.00     0.275 HD
HETATM   19  H   UNL     1      46.930 -12.003   5.832  1.00  0.00     0.275 HD
ENDBRANCH   8  16
BRANCH   1  20
HETATM   20  S   UNL     1      41.823 -13.546   2.504  1.00  0.00     0.224 S 
HETATM   21  C   UNL     1      41.155 -12.764   1.052  1.00  0.00     0.186 C 
HETATM   22  O   UNL     1      41.072 -14.756   2.752  1.00  0.00    -0.206 OA
HETATM   23  O   UNL     1      43.269 -13.572   2.405  1.00  0.00    -0.206 OA
ENDBRANCH   1  20
TORSDOF 2
ENDMDL
MODEL 5
REMARK VINA RESULT:      -6.4      2.871      4.315
REMARK  2 active torsions:
REMARK  status: ('A' for Active; 'I' for Inactive)
REMARK    1  A    between atoms: S_2  and  N_3 
REMARK    2  A    between atoms: C_10  and  N_11 
ROOT
HETATM    1  N   UNL     1      41.291 -11.108   3.091  1.00  0.00    -0.311 N 
HETATM    2  C   UNL     1      40.239 -11.874   3.789  1.00  0.00     0.138 C 
HETATM    3  C   UNL     1      40.056 -13.218   3.099  1.00  0.00     0.059 C 
HETATM    4  C   UNL     1      41.374 -14.030   3.023  1.00  0.00     0.073 C 
HETATM    5  O   UNL     1      41.704 -14.413   4.368  1.00  0.00    -0.339 OA
HETATM    6  C   UNL     1      42.577 -15.451   4.532  1.00  0.00     0.078 A 
HETATM    7  C   UNL     1      42.864 -16.395   3.541  1.00  0.00     0.005 A 
HETATM    8  C   UNL     1      42.199 -16.321   2.203  1.00  0.00     0.222 C 
HETATM    9  C   UNL     1      41.085 -15.281   2.168  1.00  0.00     0.076 C 
HETATM   10  C   UNL     1      43.168 -15.542   5.792  1.00  0.00     0.037 A 
HETATM   11  C   UNL     1      44.067 -16.569   6.071  1.00  0.00     0.003 A 
HETATM   12  C   UNL     1      44.366 -17.514   5.094  1.00  0.00     0.001 A 
HETATM   13  C   UNL     1      43.764 -17.434   3.837  1.00  0.00     0.012 A 
HETATM   14  C   UNL     1      42.518 -13.153   2.462  1.00  0.00     0.059 C 
HETATM   15  C   UNL     1      42.601 -11.778   3.133  1.00  0.00     0.138 C 
ENDROOT
BRANCH   8  16
HETATM   16  N   UNL     1      43.173 -16.063   1.105  1.00  0.00    -0.071 N 
HETATM   17  H   UNL     1      42.956 -15.205   0.586  1.00  0.00     0.275 HD
HETATM   18  H   UNL     1      44.119 -15.939   1.487  1.00  0.00     0.275 HD
HETATM   19  H   UNL     1      43.215 -16.842   0.435  1.00  0.00     0.275 HD
ENDBRANCH   8  16
BRANCH   1  20
HETATM   20  S   UNL     1      40.866 -10.248   1.692  1.00  0.00     0.224 S 
HETATM   21  C   UNL     1      40.515  -8.641   2.370  1.00  0.00     0.186 C 
HETATM   22  O   UNL     1      39.634 -10.799   1.174  1.00  0.00    -0.206 OA
HETATM   23  O   UNL     1      42.051 -10.163   0.862  1.00  0.00    -0.206 OA
ENDBRANCH   1  20
TORSDOF 2
ENDMDL
MODEL 6
REMARK VINA RESULT:      -6.4      3.178      5.809
REMARK  2 active torsions:
REMARK  status: ('A' for Active; 'I' for Inactive)
REMARK    1  A    between atoms: S_2  and  N_3 
REMARK    2  A    between atoms: C_10  and  N_11 
ROOT
HETATM    1  N   UNL     1      42.796 -15.962   5.087  1.00  0.00    -0.311 N 
HETATM    2  C   UNL     1      41.332 -15.960   5.279  1.00  0.00     0.138 C 
HETATM    3  C   UNL     1      40.799 -14.552   5.058  1.00  0.00     0.059 C 
HETATM    4  C   UNL     1      41.174 -13.988   3.665  1.00  0.00     0.073 C 
HETATM    5  O   UNL     1      40.441 -14.754   2.695  1.00  0.00    -0.339 OA
HETATM    6  C   UNL     1      40.284 -14.212   1.450  1.00  0.00     0.078 A 
HETATM    7  C   UNL     1      40.433 -12.850   1.167  1.00  0.00     0.005 A 
HETATM    8  C   UNL     1      40.777 -11.879   2.251  1.00  0.00     0.222 C 
HETATM    9  C   UNL     1      40.718 -12.514   3.636  1.00  0.00     0.076 C 
HETATM   10  C   UNL     1      39.927 -15.111   0.447  1.00  0.00     0.037 A 
HETATM   11  C   UNL     1      39.732 -14.664  -0.858  1.00  0.00     0.003 A 
HETATM   12  C   UNL     1      39.879 -13.313  -1.157  1.00  0.00     0.001 A 
HETATM   13  C   UNL     1      40.222 -12.407  -0.151  1.00  0.00     0.012 A 
HETATM   14  C   UNL     1      42.687 -14.168   3.398  1.00  0.00     0.059 C 
HETATM   15  C   UNL     1      43.187 -15.580   3.720  1.00  0.00     0.138 C 
ENDROOT
BRANCH   8  16
HETATM   16  N   UNL     1      42.107 -11.244   2.036  1.00  0.00    -0.071 N 
HETATM   17  H   UNL     1      42.739 -11.839   1.489  1.00  0.00     0.275 HD
HETATM   18  H   UNL     1      42.005 -10.367   1.509  1.00  0.00     0.275 HD
HETATM   19  H   UNL     1      42.573 -11.013   2.923  1.00  0.00     0.275 HD
ENDBRANCH   8  16
BRANCH   1  20
HETATM   20  S   UNL     1      43.779 -15.467   6.378  1.00  0.00     0.224 S 
HETATM   21  C   UNL     1      42.750 -15.880   7.770  1.00  0.00     0.186 C 
HETATM   22  O   UNL     1      43.910 -14.028   6.325  1.00  0.00    -0.206 OA
HETATM   23  O   UNL     1      44.948 -16.323   6.383  1.00  0.00    -0.206 OA
ENDBRANCH   1  20
TORSDOF 2
ENDMDL
MODEL 7
REMARK VINA RESULT:      -6.3      9.296     12.620
REMARK  2 active torsions:
REMARK  status: ('A' for Active; 'I' for Inactive)
REMARK    1  A    between atoms: S_2  and  N_3 
REMARK    2  A    between atoms: C_10  and  N_11 
ROOT
HETATM    1  N   UNL     1      42.872  -8.545   9.596  1.00  0.00    -0.311 N 
HETATM    2  C   UNL     1      42.030  -9.668  10.054  1.00  0.00     0.138 C 
HETATM    3  C   UNL     1      42.255  -9.890  11.542  1.00  0.00     0.059 C 
HETATM    4  C   UNL     1      41.982  -8.617  12.380  1.00  0.00     0.073 C 
HETATM    5  O   UNL     1      40.568  -8.371  12.313  1.00  0.00    -0.339 OA
HETATM    6  C   UNL     1      40.022  -7.563  13.271  1.00  0.00     0.078 A 
HETATM    7  C   UNL     1      40.633  -7.282  14.497  1.00  0.00     0.005 A 
HETATM    8  C   UNL     1      41.961  -7.878  14.842  1.00  0.00     0.222 C 
HETATM    9  C   UNL     1      42.400  -8.932  13.832  1.00  0.00     0.076 C 
HETATM   10  C   UNL     1      38.767  -7.038  12.966  1.00  0.00     0.037 A 
HETATM   11  C   UNL     1      38.114  -6.209  13.876  1.00  0.00     0.003 A 
HETATM   12  C   UNL     1      38.711  -5.916  15.099  1.00  0.00     0.001 A 
HETATM   13  C   UNL     1      39.961  -6.453  15.414  1.00  0.00     0.012 A 
HETATM   14  C   UNL     1      42.725  -7.402  11.777  1.00  0.00     0.059 C 
HETATM   15  C   UNL     1      42.534  -7.276  10.262  1.00  0.00     0.138 C 
ENDROOT
BRANCH   8  16
HETATM   16  N   UNL     1      43.021  -6.841  14.992  1.00  0.00    -0.071 N 
HETATM   17  H   UNL     1      43.955  -7.206  14.778  1.00  0.00     0.275 HD
HETATM   18  H   UNL     1      42.856  -6.063  14.341  1.00  0.00     0.275 HD
HETATM   19  H   UNL     1      43.041  -6.444  15.940  1.00  0.00     0.275 HD
ENDBRANCH   8  16
BRANCH   1  20
HETATM   20  S   UNL     1      44.498  -8.857   9.227  1.00  0.00     0.224 S 
HETATM   21  C   UNL     1      44.337 -10.213   8.087  1.00  0.00     0.186 C 
HETATM   22  O   UNL     1      45.151  -9.346  10.421  1.00  0.00    -0.206 OA
HETATM   23  O   UNL     1      45.009  -7.700   8.519  1.00  0.00    -0.206 OA
ENDBRANCH   1  20
TORSDOF 2
ENDMDL
MODEL 8
REMARK VINA RESULT:      -6.3      3.822      6.876
REMARK  2 active torsions:
REMARK  status: ('A' for Active; 'I' for Inactive)
REMARK    1  A    between atoms: S_2  and  N_3 
REMARK    2  A    between atoms: C_10  and  N_11 
ROOT
HETATM    1  N   UNL     1      42.508 -14.461   3.692  1.00  0.00    -0.311 N 
HETATM    2  C   UNL     1      43.227 -13.393   2.969  1.00  0.00     0.138 C 
HETATM    3  C   UNL     1      42.630 -12.044   3.344  1.00  0.00     0.059 C 
HETATM    4  C   UNL     1      42.654 -11.790   4.872  1.00  0.00     0.073 C 
HETATM    5  O   UNL     1      44.032 -11.635   5.247  1.00  0.00    -0.339 OA
HETATM    6  C   UNL     1      44.297 -11.017   6.436  1.00  0.00     0.078 A 
HETATM    7  C   UNL     1      43.386 -10.199   7.112  1.00  0.00     0.005 A 
HETATM    8  C   UNL     1      42.026  -9.941   6.543  1.00  0.00     0.222 C 
HETATM    9  C   UNL     1      41.882 -10.477   5.123  1.00  0.00     0.076 C 
HETATM   10  C   UNL     1      45.577 -11.226   6.947  1.00  0.00     0.037 A 
HETATM   11  C   UNL     1      45.957 -10.634   8.149  1.00  0.00     0.003 A 
HETATM   12  C   UNL     1      45.061  -9.820   8.836  1.00  0.00     0.001 A 
HETATM   13  C   UNL     1      43.783  -9.597   8.319  1.00  0.00     0.012 A 
HETATM   14  C   UNL     1      42.066 -13.003   5.631  1.00  0.00     0.059 C 
HETATM   15  C   UNL     1      42.639 -14.341   5.153  1.00  0.00     0.138 C 
ENDROOT
BRANCH   8  16
HETATM   16  N   UNL     1      40.943 -10.489   7.408  1.00  0.00    -0.071 N 
HETATM   17  H   UNL     1      40.048 -10.564   6.911  1.00  0.00     0.275 HD
HETATM   18  H   UNL     1      41.180 -11.438   7.723  1.00  0.00     0.275 HD
HETATM   19  H   UNL     1      40.795  -9.918   8.250  1.00  0.00     0.275 HD
ENDBRANCH   8  16
BRANCH   1  20
HETATM   20  S   UNL     1      41.038 -15.017   3.053  1.00  0.00     0.224 S 
HETATM   21  C   UNL     1      41.432 -15.114   1.321  1.00  0.00     0.186 C 
HETATM   22  O   UNL     1      40.043 -13.983   3.233  1.00  0.00    -0.206 OA
HETATM   23  O   UNL     1      40.824 -16.356   3.566  1.00  0.00    -0.206 OA
ENDBRANCH   1  20
TORSDOF 2
ENDMDL
MODEL 9
REMARK VINA RESULT:      -6.2      4.192      6.727
REMARK  2 active torsions:
REMARK  status: ('A' for Active; 'I' for Inactive)
REMARK    1  A    between atoms: S_2  and  N_3 
REMARK    2  A    between atoms: C_10  and  N_11 
ROOT
HETATM    1  N   UNL     1      41.976 -16.173   3.002  1.00  0.00    -0.311 N 
HETATM    2  C   UNL     1      40.503 -16.189   3.106  1.00  0.00     0.138 C 
HETATM    3  C   UNL     1      39.978 -14.763   3.022  1.00  0.00     0.059 C 
HETATM    4  C   UNL     1      40.433 -14.039   1.730  1.00  0.00     0.073 C 
HETATM    5  O   UNL     1      39.761 -14.684   0.635  1.00  0.00    -0.339 OA
HETATM    6  C   UNL     1      39.676 -13.998  -0.544  1.00  0.00     0.078 A 
HETATM    7  C   UNL     1      39.836 -12.613  -0.656  1.00  0.00     0.005 A 
HETATM    8  C   UNL     1      40.111 -11.777   0.554  1.00  0.00     0.222 C 
HETATM    9  C   UNL     1      39.973 -12.572   1.848  1.00  0.00     0.076 C 
HETATM   10  C   UNL     1      39.383 -14.772  -1.666  1.00  0.00     0.037 A 
HETATM   11  C   UNL     1      39.263 -14.173  -2.919  1.00  0.00     0.003 A 
HETATM   12  C   UNL     1      39.423 -12.796  -3.047  1.00  0.00     0.001 A 
HETATM   13  C   UNL     1      39.702 -12.017  -1.923  1.00  0.00     0.012 A 
HETATM   14  C   UNL     1      41.960 -14.191   1.533  1.00  0.00     0.059 C 
HETATM   15  C   UNL     1      42.445 -15.633   1.715  1.00  0.00     0.138 C 
ENDROOT
BRANCH   8  16
HETATM   16  N   UNL     1      41.449 -11.125   0.494  1.00  0.00    -0.071 N 
HETATM   17  H   UNL     1      41.422 -10.226   0.001  1.00  0.00     0.275 HD
HETATM   18  H   UNL     1      41.793 -10.926   1.442  1.00  0.00     0.275 HD
HETATM   19  H   UNL     1      42.150 -11.721   0.036  1.00  0.00     0.275 HD
ENDBRANCH   8  16
BRANCH   1  20
HETATM   20  S   UNL     1      42.878 -15.836   4.399  1.00  0.00     0.224 S 
HETATM   21  C   UNL     1      41.763 -16.392   5.669  1.00  0.00     0.186 C 
HETATM   22  O   UNL     1      43.018 -14.402   4.516  1.00  0.00    -0.206 OA
HETATM   23  O   UNL     1      44.042 -16.700   4.378  1.00  0.00    -0.206 OA
ENDBRANCH   1  20
TORSDOF 2
ENDMDL
MODEL 10
REMARK VINA RESULT:      -6.2     10.205     12.224
REMARK  2 active torsions:
REMARK  status: ('A' for Active; 'I' for Inactive)
REMARK    1  A    between atoms: S_2  and  N_3 
REMARK    2  A    between atoms: C_10  and  N_11 
ROOT
HETATM    1  N   UNL     1      41.909  -7.761  15.069  1.00  0.00    -0.311 N 
HETATM    2  C   UNL     1      41.290  -8.933  14.421  1.00  0.00     0.138 C 
HETATM    3  C   UNL     1      40.757  -8.528  13.054  1.00  0.00     0.059 C 
HETATM    4  C   UNL     1      41.853  -7.911  12.149  1.00  0.00     0.073 C 
HETATM    5  O   UNL     1      42.768  -8.970  11.825  1.00  0.00    -0.339 OA
HETATM    6  C   UNL     1      43.580  -8.791  10.740  1.00  0.00     0.078 A 
HETATM    7  C   UNL     1      43.330  -7.867   9.721  1.00  0.00     0.005 A 
HETATM    8  C   UNL     1      42.113  -6.998   9.761  1.00  0.00     0.222 C 
HETATM    9  C   UNL     1      41.151  -7.403  10.873  1.00  0.00     0.076 C 
HETATM   10  C   UNL     1      44.694  -9.627  10.682  1.00  0.00     0.037 A 
HETATM   11  C   UNL     1      45.584  -9.537   9.614  1.00  0.00     0.003 A 
HETATM   12  C   UNL     1      45.351  -8.619   8.593  1.00  0.00     0.001 A 
HETATM   13  C   UNL     1      44.227  -7.791   8.640  1.00  0.00     0.012 A 
HETATM   14  C   UNL     1      42.622  -6.805  12.909  1.00  0.00     0.059 C 
HETATM   15  C   UNL     1      43.060  -7.238  14.313  1.00  0.00     0.138 C 
ENDROOT
BRANCH   8  16
HETATM   16  N   UNL     1      42.457  -5.553   9.885  1.00  0.00    -0.071 N 
HETATM   17  H   UNL     1      42.422  -5.066   8.983  1.00  0.00     0.275 HD
HETATM   18  H   UNL     1      41.785  -5.076  10.499  1.00  0.00     0.275 HD
HETATM   19  H   UNL     1      43.392  -5.412  10.289  1.00  0.00     0.275 HD
ENDBRANCH   8  16
BRANCH   1  20
HETATM   20  S   UNL     1      40.901  -6.658  15.872  1.00  0.00     0.224 S 
HETATM   21  C   UNL     1      40.580  -7.529  17.390  1.00  0.00     0.186 C 
HETATM   22  O   UNL     1      39.659  -6.559  15.138  1.00  0.00    -0.206 OA
HETATM   23  O   UNL     1      41.693  -5.479  16.160  1.00  0.00    -0.206 OA
ENDBRANCH   1  20
TORSDOF 2
ENDMDL
