MODEL 1
REMARK VINA RESULT:      -9.5      0.000      0.000
REMARK  8 active torsions:
REMARK  status: ('A' for Active; 'I' for Inactive)
REMARK    1  A    between atoms: C_4  and  C_5 
REMARK    2  A    between atoms: C_5  and  N_6 
REMARK    3  A    between atoms: N_10  and  C_12 
REMARK    4  A    between atoms: C_12  and  C_13 
REMARK       I    between atoms: C_13  and  N_14 
REMARK    5  A    between atoms: N_14  and  C_15 
REMARK    6  A    between atoms: C_17  and  S_18 
REMARK    7  A    between atoms: S_18  and  C_19 
REMARK    8  A    between atoms: C_22  and  N_23 
ROOT
HETATM    1  C   UNL     1      41.455 -12.432   5.180  1.00  0.00     0.249 C 
HETATM    2  N   UNL     1      42.214 -11.293   5.121  1.00  0.00    -0.304 N 
HETATM    3  O   UNL     1      41.427 -13.303   6.050  1.00  0.00    -0.271 OA
HETATM    4  H   UNL     1      42.141 -10.606   4.381  1.00  0.00     0.171 HD
ENDROOT
BRANCH   2   5
HETATM    5  C   UNL     1      43.206 -11.047   6.032  1.00  0.00     0.174 A 
HETATM    6  S   UNL     1      42.824  -9.837   7.166  1.00  0.00    -0.038 SA
HETATM    7  C   UNL     1      44.408  -9.963   7.806  1.00  0.00     0.125 A 
HETATM    8  C   UNL     1      45.095 -10.950   7.129  1.00  0.00     0.151 A 
HETATM    9  N   UNL     1      44.390 -11.588   6.119  1.00  0.00    -0.234 NA
BRANCH   7  10
HETATM   10  S   UNL     1      44.884  -8.861   9.103  1.00  0.00     0.214 S 
HETATM   11  O   UNL     1      46.167  -9.369   9.542  1.00  0.00    -0.217 OA
HETATM   12  O   UNL     1      44.721  -7.517   8.589  1.00  0.00    -0.217 OA
BRANCH  10  13
HETATM   13  C   UNL     1      43.703  -9.117  10.403  1.00  0.00     0.065 A 
HETATM   14  C   UNL     1      43.791 -10.265  11.198  1.00  0.00     0.026 A 
HETATM   15  C   UNL     1      42.879 -10.458  12.239  1.00  0.00     0.037 A 
HETATM   16  C   UNL     1      41.892  -9.491  12.485  1.00  0.00     0.102 A 
HETATM   17  C   UNL     1      41.820  -8.330  11.700  1.00  0.00     0.037 A 
HETATM   18  C   UNL     1      42.733  -8.139  10.658  1.00  0.00     0.026 A 
BRANCH  16  19
HETATM   19  N   UNL     1      40.922  -9.700  13.569  1.00  0.00    -0.116 N 
HETATM   20  O   UNL     1      40.964  -8.923  14.532  1.00  0.00    -0.532 OA
HETATM   21  O   UNL     1      40.142 -10.656  13.462  1.00  0.00    -0.532 OA
ENDBRANCH  16  19
ENDBRANCH  10  13
ENDBRANCH   7  10
ENDBRANCH   2   5
BRANCH   1  22
HETATM   22  C   UNL     1      40.513 -12.637   3.992  1.00  0.00     0.337 C 
BRANCH  22  23
HETATM   23  N   UNL     1      41.097 -13.729   3.053  1.00  0.00    -0.060 N 
HETATM   24  C   UNL     1      42.619 -13.626   2.936  1.00  0.00     0.263 C 
HETATM   25  C   UNL     1      43.176 -14.701   1.976  1.00  0.00     0.263 C 
HETATM   26  N   UNL     1      42.715 -16.103   2.374  1.00  0.00    -0.064 N 
HETATM   27  H   UNL     1      43.023 -16.720   1.605  1.00  0.00     0.280 HD
HETATM   28  C   UNL     1      41.195 -16.194   2.427  1.00  0.00     0.263 C 
HETATM   29  C   UNL     1      40.580 -15.120   3.366  1.00  0.00     0.263 C 
HETATM   30  H   UNL     1      40.721 -13.425   2.127  1.00  0.00     0.280 HD
BRANCH  26  31
HETATM   31  C   UNL     1      43.389 -16.699   3.605  1.00  0.00     0.273 C 
BRANCH  31  32
HETATM   32  C   UNL     1      43.560 -18.188   3.548  1.00  0.00    -0.033 A 
HETATM   33  C   UNL     1      43.988 -18.899   4.683  1.00  0.00     0.009 A 
HETATM   34  C   UNL     1      44.167 -20.280   4.627  1.00  0.00     0.001 A 
HETATM   35  C   UNL     1      43.919 -20.968   3.441  1.00  0.00     0.000 A 
HETATM   36  C   UNL     1      43.482 -20.278   2.313  1.00  0.00     0.001 A 
HETATM   37  C   UNL     1      43.299 -18.895   2.364  1.00  0.00     0.009 A 
ENDBRANCH  31  32
ENDBRANCH  26  31
ENDBRANCH  22  23
ENDBRANCH   1  22
TORSDOF 8
ENDMDL
MODEL 2
REMARK VINA RESULT:      -9.4      3.483     11.416
REMARK  8 active torsions:
REMARK  status: ('A' for Active; 'I' for Inactive)
REMARK    1  A    between atoms: C_4  and  C_5 
REMARK    2  A    between atoms: C_5  and  N_6 
REMARK    3  A    between atoms: N_10  and  C_12 
REMARK    4  A    between atoms: C_12  and  C_13 
REMARK       I    between atoms: C_13  and  N_14 
REMARK    5  A    between atoms: N_14  and  C_15 
REMARK    6  A    between atoms: C_17  and  S_18 
REMARK    7  A    between atoms: S_18  and  C_19 
REMARK    8  A    between atoms: C_22  and  N_23 
ROOT
HETATM    1  C   UNL     1      42.377 -10.490   6.705  1.00  0.00     0.249 C 
HETATM    2  N   UNL     1      42.606 -11.823   6.919  1.00  0.00    -0.304 N 
HETATM    3  O   UNL     1      41.679  -9.948   5.847  1.00  0.00    -0.271 OA
HETATM    4  H   UNL     1      43.166 -12.183   7.680  1.00  0.00     0.171 HD
ENDROOT
BRANCH   2   5
HETATM    5  C   UNL     1      42.153 -12.775   6.044  1.00  0.00     0.174 A 
HETATM    6  S   UNL     1      43.265 -13.179   4.821  1.00  0.00    -0.038 SA
HETATM    7  C   UNL     1      42.083 -14.196   4.110  1.00  0.00     0.125 A 
HETATM    8  C   UNL     1      40.942 -14.179   4.886  1.00  0.00     0.151 A 
HETATM    9  N   UNL     1      40.995 -13.374   6.014  1.00  0.00    -0.234 NA
BRANCH   7  10
HETATM   10  S   UNL     1      42.473 -15.006   2.589  1.00  0.00     0.214 S 
HETATM   11  O   UNL     1      41.204 -15.080   1.895  1.00  0.00    -0.217 OA
HETATM   12  O   UNL     1      43.619 -14.318   2.031  1.00  0.00    -0.217 OA
BRANCH  10  13
HETATM   13  C   UNL     1      42.965 -16.652   3.038  1.00  0.00     0.065 A 
HETATM   14  C   UNL     1      42.909 -17.672   2.083  1.00  0.00     0.026 A 
HETATM   15  C   UNL     1      43.320 -18.963   2.425  1.00  0.00     0.037 A 
HETATM   16  C   UNL     1      43.796 -19.220   3.719  1.00  0.00     0.102 A 
HETATM   17  C   UNL     1      43.872 -18.190   4.669  1.00  0.00     0.037 A 
HETATM   18  C   UNL     1      43.459 -16.898   4.325  1.00  0.00     0.026 A 
BRANCH  16  19
HETATM   19  N   UNL     1      44.213 -20.581   4.087  1.00  0.00    -0.116 N 
HETATM   20  O   UNL     1      44.737 -20.739   5.197  1.00  0.00    -0.532 OA
HETATM   21  O   UNL     1      44.039 -21.477   3.250  1.00  0.00    -0.532 OA
ENDBRANCH  16  19
ENDBRANCH  10  13
ENDBRANCH   7  10
ENDBRANCH   2   5
BRANCH   1  22
HETATM   22  C   UNL     1      43.097  -9.552   7.677  1.00  0.00     0.337 C 
BRANCH  22  23
HETATM   23  N   UNL     1      42.824 -10.015   9.136  1.00  0.00    -0.060 N 
HETATM   24  C   UNL     1      44.120 -10.193   9.929  1.00  0.00     0.263 C 
HETATM   25  C   UNL     1      43.829 -10.681  11.366  1.00  0.00     0.263 C 
HETATM   26  N   UNL     1      42.830  -9.767  12.078  1.00  0.00    -0.064 N 
HETATM   27  H   UNL     1      42.604 -10.249  12.963  1.00  0.00     0.280 HD
HETATM   28  C   UNL     1      41.528  -9.653  11.295  1.00  0.00     0.263 C 
HETATM   29  C   UNL     1      41.765  -9.183   9.834  1.00  0.00     0.263 C 
HETATM   30  H   UNL     1      42.453 -10.978   8.979  1.00  0.00     0.280 HD
BRANCH  26  31
HETATM   31  C   UNL     1      43.372  -8.416  12.531  1.00  0.00     0.273 C 
BRANCH  31  32
HETATM   32  C   UNL     1      42.609  -7.800  13.666  1.00  0.00    -0.033 A 
HETATM   33  C   UNL     1      42.073  -8.608  14.683  1.00  0.00     0.009 A 
HETATM   34  C   UNL     1      41.346  -8.040  15.728  1.00  0.00     0.001 A 
HETATM   35  C   UNL     1      41.148  -6.662  15.772  1.00  0.00     0.000 A 
HETATM   36  C   UNL     1      41.684  -5.849  14.777  1.00  0.00     0.001 A 
HETATM   37  C   UNL     1      42.415  -6.411  13.729  1.00  0.00     0.009 A 
ENDBRANCH  31  32
ENDBRANCH  26  31
ENDBRANCH  22  23
ENDBRANCH   1  22
TORSDOF 8
ENDMDL
MODEL 3
REMARK VINA RESULT:      -8.8      1.629      2.034
REMARK  8 active torsions:
REMARK  status: ('A' for Active; 'I' for Inactive)
REMARK    1  A    between atoms: C_4  and  C_5 
REMARK    2  A    between atoms: C_5  and  N_6 
REMARK    3  A    between atoms: N_10  and  C_12 
REMARK    4  A    between atoms: C_12  and  C_13 
REMARK       I    between atoms: C_13  and  N_14 
REMARK    5  A    between atoms: N_14  and  C_15 
REMARK    6  A    between atoms: C_17  and  S_18 
REMARK    7  A    between atoms: S_18  and  C_19 
REMARK    8  A    between atoms: C_22  and  N_23 
ROOT
HETATM    1  C   UNL     1      41.005 -10.762   3.643  1.00  0.00     0.249 C 
HETATM    2  N   UNL     1      40.985 -10.969   4.996  1.00  0.00    -0.304 N 
HETATM    3  O   UNL     1      41.675  -9.963   2.987  1.00  0.00    -0.271 OA
HETATM    4  H   UNL     1      40.429 -11.683   5.448  1.00  0.00     0.171 HD
ENDROOT
BRANCH   2   5
HETATM    5  C   UNL     1      41.666 -10.147   5.855  1.00  0.00     0.174 A 
HETATM    6  S   UNL     1      43.029 -10.869   6.574  1.00  0.00    -0.038 SA
HETATM    7  C   UNL     1      43.253  -9.458   7.519  1.00  0.00     0.125 A 
HETATM    8  C   UNL     1      42.291  -8.526   7.182  1.00  0.00     0.151 A 
HETATM    9  N   UNL     1      41.390  -8.921   6.205  1.00  0.00    -0.234 NA
BRANCH   7  10
HETATM   10  S   UNL     1      44.556  -9.441   8.713  1.00  0.00     0.214 S 
HETATM   11  O   UNL     1      45.096 -10.783   8.662  1.00  0.00    -0.217 OA
HETATM   12  O   UNL     1      45.364  -8.273   8.432  1.00  0.00    -0.217 OA
BRANCH  10  13
HETATM   13  C   UNL     1      43.760  -9.214  10.283  1.00  0.00     0.065 A 
HETATM   14  C   UNL     1      43.525 -10.323  11.103  1.00  0.00     0.026 A 
HETATM   15  C   UNL     1      42.923 -10.145  12.351  1.00  0.00     0.037 A 
HETATM   16  C   UNL     1      42.571  -8.855  12.775  1.00  0.00     0.102 A 
HETATM   17  C   UNL     1      42.828  -7.741  11.960  1.00  0.00     0.037 A 
HETATM   18  C   UNL     1      43.430  -7.921  10.711  1.00  0.00     0.026 A 
BRANCH  16  19
HETATM   19  N   UNL     1      41.922  -8.667  14.081  1.00  0.00    -0.116 N 
HETATM   20  O   UNL     1      40.872  -9.288  14.293  1.00  0.00    -0.532 OA
HETATM   21  O   UNL     1      42.452  -7.879  14.874  1.00  0.00    -0.532 OA
ENDBRANCH  16  19
ENDBRANCH  10  13
ENDBRANCH   7  10
ENDBRANCH   2   5
BRANCH   1  22
HETATM   22  C   UNL     1      40.057 -11.659   2.843  1.00  0.00     0.337 C 
BRANCH  22  23
HETATM   23  N   UNL     1      40.887 -12.669   2.004  1.00  0.00    -0.060 N 
HETATM   24  C   UNL     1      42.012 -13.303   2.824  1.00  0.00     0.263 C 
HETATM   25  C   UNL     1      42.843 -14.282   1.964  1.00  0.00     0.263 C 
HETATM   26  N   UNL     1      41.956 -15.326   1.284  1.00  0.00    -0.064 N 
HETATM   27  H   UNL     1      42.581 -15.834   0.638  1.00  0.00     0.280 HD
HETATM   28  C   UNL     1      40.881 -14.667   0.428  1.00  0.00     0.263 C 
HETATM   29  C   UNL     1      40.026 -13.658   1.241  1.00  0.00     0.263 C 
HETATM   30  H   UNL     1      41.358 -12.031   1.323  1.00  0.00     0.280 HD
BRANCH  26  31
HETATM   31  C   UNL     1      41.406 -16.421   2.190  1.00  0.00     0.273 C 
BRANCH  31  32
HETATM   32  C   UNL     1      42.463 -17.234   2.879  1.00  0.00    -0.033 A 
HETATM   33  C   UNL     1      42.857 -16.922   4.191  1.00  0.00     0.009 A 
HETATM   34  C   UNL     1      43.854 -17.662   4.825  1.00  0.00     0.001 A 
HETATM   35  C   UNL     1      44.464 -18.722   4.160  1.00  0.00     0.000 A 
HETATM   36  C   UNL     1      44.074 -19.050   2.864  1.00  0.00     0.001 A 
HETATM   37  C   UNL     1      43.076 -18.314   2.224  1.00  0.00     0.009 A 
ENDBRANCH  31  32
ENDBRANCH  26  31
ENDBRANCH  22  23
ENDBRANCH   1  22
TORSDOF 8
ENDMDL
MODEL 4
REMARK VINA RESULT:      -8.7      3.324     11.053
REMARK  8 active torsions:
REMARK  status: ('A' for Active; 'I' for Inactive)
REMARK    1  A    between atoms: C_4  and  C_5 
REMARK    2  A    between atoms: C_5  and  N_6 
REMARK    3  A    between atoms: N_10  and  C_12 
REMARK    4  A    between atoms: C_12  and  C_13 
REMARK       I    between atoms: C_13  and  N_14 
REMARK    5  A    between atoms: N_14  and  C_15 
REMARK    6  A    between atoms: C_17  and  S_18 
REMARK    7  A    between atoms: S_18  and  C_19 
REMARK    8  A    between atoms: C_22  and  N_23 
ROOT
HETATM    1  C   UNL     1      45.444 -10.867   6.860  1.00  0.00     0.249 C 
HETATM    2  N   UNL     1      44.193 -10.629   6.356  1.00  0.00    -0.304 N 
HETATM    3  O   UNL     1      46.351 -11.558   6.395  1.00  0.00    -0.271 OA
HETATM    4  H   UNL     1      43.520 -10.008   6.789  1.00  0.00     0.171 HD
ENDROOT
BRANCH   2   5
HETATM    5  C   UNL     1      43.725 -11.300   5.257  1.00  0.00     0.174 A 
HETATM    6  S   UNL     1      42.332 -12.231   5.553  1.00  0.00    -0.038 SA
HETATM    7  C   UNL     1      42.413 -12.825   3.948  1.00  0.00     0.125 A 
HETATM    8  C   UNL     1      43.476 -12.233   3.296  1.00  0.00     0.151 A 
HETATM    9  N   UNL     1      44.218 -11.337   4.050  1.00  0.00    -0.234 NA
BRANCH   7  10
HETATM   10  S   UNL     1      41.235 -14.040   3.438  1.00  0.00     0.214 S 
HETATM   11  O   UNL     1      40.244 -14.032   4.493  1.00  0.00    -0.217 OA
HETATM   12  O   UNL     1      40.900 -13.744   2.061  1.00  0.00    -0.217 OA
BRANCH  10  13
HETATM   13  C   UNL     1      42.098 -15.590   3.490  1.00  0.00     0.065 A 
HETATM   14  C   UNL     1      42.654 -16.030   4.696  1.00  0.00     0.026 A 
HETATM   15  C   UNL     1      43.312 -17.262   4.746  1.00  0.00     0.037 A 
HETATM   16  C   UNL     1      43.395 -18.052   3.590  1.00  0.00     0.102 A 
HETATM   17  C   UNL     1      42.816 -17.620   2.387  1.00  0.00     0.037 A 
HETATM   18  C   UNL     1      42.160 -16.385   2.338  1.00  0.00     0.026 A 
BRANCH  16  19
HETATM   19  N   UNL     1      44.100 -19.341   3.637  1.00  0.00    -0.116 N 
HETATM   20  O   UNL     1      44.068 -20.049   2.621  1.00  0.00    -0.532 OA
HETATM   21  O   UNL     1      44.657 -19.650   4.699  1.00  0.00    -0.532 OA
ENDBRANCH  16  19
ENDBRANCH  10  13
ENDBRANCH   7  10
ENDBRANCH   2   5
BRANCH   1  22
HETATM   22  C   UNL     1      45.744 -10.167   8.187  1.00  0.00     0.337 C 
BRANCH  22  23
HETATM   23  N   UNL     1      44.478 -10.203   9.088  1.00  0.00    -0.060 N 
HETATM   24  C   UNL     1      44.808 -10.631  10.518  1.00  0.00     0.263 C 
HETATM   25  C   UNL     1      43.532 -10.690  11.389  1.00  0.00     0.263 C 
HETATM   26  N   UNL     1      42.757  -9.373  11.339  1.00  0.00    -0.064 N 
HETATM   27  H   UNL     1      41.869  -9.560  11.833  1.00  0.00     0.280 HD
HETATM   28  C   UNL     1      42.391  -8.999   9.907  1.00  0.00     0.263 C 
HETATM   29  C   UNL     1      43.638  -8.944   8.983  1.00  0.00     0.263 C 
HETATM   30  H   UNL     1      43.951 -11.001   8.668  1.00  0.00     0.280 HD
BRANCH  26  31
HETATM   31  C   UNL     1      43.366  -8.213  12.119  1.00  0.00     0.273 C 
BRANCH  31  32
HETATM   32  C   UNL     1      42.572  -7.801  13.322  1.00  0.00    -0.033 A 
HETATM   33  C   UNL     1      43.203  -7.176  14.411  1.00  0.00     0.009 A 
HETATM   34  C   UNL     1      42.471  -6.811  15.540  1.00  0.00     0.001 A 
HETATM   35  C   UNL     1      41.102  -7.062  15.594  1.00  0.00     0.000 A 
HETATM   36  C   UNL     1      40.461  -7.669  14.517  1.00  0.00     0.001 A 
HETATM   37  C   UNL     1      41.188  -8.035  13.383  1.00  0.00     0.009 A 
ENDBRANCH  31  32
ENDBRANCH  26  31
ENDBRANCH  22  23
ENDBRANCH   1  22
TORSDOF 8
ENDMDL
MODEL 5
REMARK VINA RESULT:      -8.4      2.300      3.002
REMARK  8 active torsions:
REMARK  status: ('A' for Active; 'I' for Inactive)
REMARK    1  A    between atoms: C_4  and  C_5 
REMARK    2  A    between atoms: C_5  and  N_6 
REMARK    3  A    between atoms: N_10  and  C_12 
REMARK    4  A    between atoms: C_12  and  C_13 
REMARK       I    between atoms: C_13  and  N_14 
REMARK    5  A    between atoms: N_14  and  C_15 
REMARK    6  A    between atoms: C_17  and  S_18 
REMARK    7  A    between atoms: S_18  and  C_19 
REMARK    8  A    between atoms: C_22  and  N_23 
ROOT
HETATM    1  C   UNL     1      40.610 -11.203   3.413  1.00  0.00     0.249 C 
HETATM    2  N   UNL     1      40.037 -11.200   4.656  1.00  0.00    -0.304 N 
HETATM    3  O   UNL     1      41.159 -10.281   2.806  1.00  0.00    -0.271 OA
HETATM    4  H   UNL     1      39.643 -12.022   5.096  1.00  0.00     0.171 HD
ENDROOT
BRANCH   2   5
HETATM    5  C   UNL     1      39.876 -10.040   5.367  1.00  0.00     0.174 A 
HETATM    6  S   UNL     1      41.247  -9.580   6.265  1.00  0.00    -0.038 SA
HETATM    7  C   UNL     1      40.351  -8.280   6.929  1.00  0.00     0.125 A 
HETATM    8  C   UNL     1      39.084  -8.274   6.382  1.00  0.00     0.151 A 
HETATM    9  N   UNL     1      38.821  -9.280   5.464  1.00  0.00    -0.234 NA
BRANCH   7  10
HETATM   10  S   UNL     1      41.123  -7.260   8.148  1.00  0.00     0.214 S 
HETATM   11  O   UNL     1      42.534  -7.340   7.831  1.00  0.00    -0.217 OA
HETATM   12  O   UNL     1      40.405  -6.003   8.156  1.00  0.00    -0.217 OA
BRANCH  10  13
HETATM   13  C   UNL     1      40.848  -8.079   9.698  1.00  0.00     0.065 A 
HETATM   14  C   UNL     1      39.672  -7.827  10.412  1.00  0.00     0.026 A 
HETATM   15  C   UNL     1      39.440  -8.489  11.621  1.00  0.00     0.037 A 
HETATM   16  C   UNL     1      40.383  -9.410  12.099  1.00  0.00     0.102 A 
HETATM   17  C   UNL     1      41.552  -9.679  11.370  1.00  0.00     0.037 A 
HETATM   18  C   UNL     1      41.783  -9.014  10.162  1.00  0.00     0.026 A 
BRANCH  16  19
HETATM   19  N   UNL     1      40.149 -10.096  13.378  1.00  0.00    -0.116 N 
HETATM   20  O   UNL     1      40.599  -9.566  14.403  1.00  0.00    -0.532 OA
HETATM   21  O   UNL     1      39.540 -11.174  13.346  1.00  0.00    -0.532 OA
ENDBRANCH  16  19
ENDBRANCH  10  13
ENDBRANCH   7  10
ENDBRANCH   2   5
BRANCH   1  22
HETATM   22  C   UNL     1      40.555 -12.548   2.684  1.00  0.00     0.337 C 
BRANCH  22  23
HETATM   23  N   UNL     1      40.977 -13.680   3.662  1.00  0.00    -0.060 N 
HETATM   24  C   UNL     1      40.526 -15.056   3.168  1.00  0.00     0.263 C 
HETATM   25  C   UNL     1      40.928 -16.164   4.167  1.00  0.00     0.263 C 
HETATM   26  N   UNL     1      42.424 -16.119   4.484  1.00  0.00    -0.064 N 
HETATM   27  H   UNL     1      42.560 -16.799   5.250  1.00  0.00     0.280 HD
HETATM   28  C   UNL     1      42.834 -14.756   5.028  1.00  0.00     0.263 C 
HETATM   29  C   UNL     1      42.436 -13.602   4.069  1.00  0.00     0.263 C 
HETATM   30  H   UNL     1      40.379 -13.468   4.491  1.00  0.00     0.280 HD
BRANCH  26  31
HETATM   31  C   UNL     1      43.352 -16.625   3.384  1.00  0.00     0.273 C 
BRANCH  31  32
HETATM   32  C   UNL     1      43.506 -18.116   3.352  1.00  0.00    -0.033 A 
HETATM   33  C   UNL     1      44.003 -18.804   4.472  1.00  0.00     0.009 A 
HETATM   34  C   UNL     1      44.167 -20.188   4.437  1.00  0.00     0.001 A 
HETATM   35  C   UNL     1      43.834 -20.900   3.287  1.00  0.00     0.000 A 
HETATM   36  C   UNL     1      43.328 -20.233   2.175  1.00  0.00     0.001 A 
HETATM   37  C   UNL     1      43.159 -18.848   2.205  1.00  0.00     0.009 A 
ENDBRANCH  31  32
ENDBRANCH  26  31
ENDBRANCH  22  23
ENDBRANCH   1  22
TORSDOF 8
ENDMDL
MODEL 6
REMARK VINA RESULT:      -8.3      3.441     12.017
REMARK  8 active torsions:
REMARK  status: ('A' for Active; 'I' for Inactive)
REMARK    1  A    between atoms: C_4  and  C_5 
REMARK    2  A    between atoms: C_5  and  N_6 
REMARK    3  A    between atoms: N_10  and  C_12 
REMARK    4  A    between atoms: C_12  and  C_13 
REMARK       I    between atoms: C_13  and  N_14 
REMARK    5  A    between atoms: N_14  and  C_15 
REMARK    6  A    between atoms: C_17  and  S_18 
REMARK    7  A    between atoms: S_18  and  C_19 
REMARK    8  A    between atoms: C_22  and  N_23 
ROOT
HETATM    1  C   UNL     1      43.616 -10.024   9.477  1.00  0.00     0.249 C 
HETATM    2  N   UNL     1      43.830 -11.223   8.852  1.00  0.00    -0.304 N 
HETATM    3  O   UNL     1      43.402  -8.916   8.983  1.00  0.00    -0.271 OA
HETATM    4  H   UNL     1      43.956 -12.099   9.343  1.00  0.00     0.171 HD
ENDROOT
BRANCH   2   5
HETATM    5  C   UNL     1      43.979 -11.305   7.493  1.00  0.00     0.174 A 
HETATM    6  S   UNL     1      42.530 -11.605   6.652  1.00  0.00    -0.038 SA
HETATM    7  C   UNL     1      43.422 -11.713   5.193  1.00  0.00     0.125 A 
HETATM    8  C   UNL     1      44.755 -11.471   5.456  1.00  0.00     0.151 A 
HETATM    9  N   UNL     1      45.069 -11.215   6.783  1.00  0.00    -0.234 NA
BRANCH   7  10
HETATM   10  S   UNL     1      42.560 -12.127   3.707  1.00  0.00     0.214 S 
HETATM   11  O   UNL     1      41.167 -11.916   4.038  1.00  0.00    -0.217 OA
HETATM   12  O   UNL     1      43.215 -11.412   2.632  1.00  0.00    -0.217 OA
BRANCH  10  13
HETATM   13  C   UNL     1      42.824 -13.867   3.473  1.00  0.00     0.065 A 
HETATM   14  C   UNL     1      43.052 -14.362   2.185  1.00  0.00     0.026 A 
HETATM   15  C   UNL     1      43.285 -15.727   1.999  1.00  0.00     0.037 A 
HETATM   16  C   UNL     1      43.304 -16.585   3.109  1.00  0.00     0.102 A 
HETATM   17  C   UNL     1      43.098 -16.083   4.403  1.00  0.00     0.037 A 
HETATM   18  C   UNL     1      42.862 -14.716   4.586  1.00  0.00     0.026 A 
BRANCH  16  19
HETATM   19  N   UNL     1      43.533 -18.024   2.914  1.00  0.00    -0.116 N 
HETATM   20  O   UNL     1      42.836 -18.607   2.074  1.00  0.00    -0.532 OA
HETATM   21  O   UNL     1      44.390 -18.567   3.624  1.00  0.00    -0.532 OA
ENDBRANCH  16  19
ENDBRANCH  10  13
ENDBRANCH   7  10
ENDBRANCH   2   5
BRANCH   1  22
HETATM   22  C   UNL     1      43.646 -10.083  11.006  1.00  0.00     0.337 C 
BRANCH  22  23
HETATM   23  N   UNL     1      42.575  -9.114  11.581  1.00  0.00    -0.060 N 
HETATM   24  C   UNL     1      41.410  -9.869  12.223  1.00  0.00     0.263 C 
HETATM   25  C   UNL     1      40.343  -8.890  12.762  1.00  0.00     0.263 C 
HETATM   26  N   UNL     1      40.957  -7.853  13.704  1.00  0.00    -0.064 N 
HETATM   27  H   UNL     1      40.199  -7.177  13.895  1.00  0.00     0.280 HD
HETATM   28  C   UNL     1      42.076  -7.076  13.020  1.00  0.00     0.263 C 
HETATM   29  C   UNL     1      43.169  -8.017  12.443  1.00  0.00     0.263 C 
HETATM   30  H   UNL     1      42.191  -8.691  10.707  1.00  0.00     0.280 HD
BRANCH  26  31
HETATM   31  C   UNL     1      41.345  -8.360  15.088  1.00  0.00     0.273 C 
BRANCH  31  32
HETATM   32  C   UNL     1      40.937  -7.451  16.209  1.00  0.00    -0.033 A 
HETATM   33  C   UNL     1      41.419  -7.669  17.512  1.00  0.00     0.009 A 
HETATM   34  C   UNL     1      41.025  -6.838  18.560  1.00  0.00     0.001 A 
HETATM   35  C   UNL     1      40.151  -5.780  18.320  1.00  0.00     0.000 A 
HETATM   36  C   UNL     1      39.677  -5.545  17.032  1.00  0.00     0.001 A 
HETATM   37  C   UNL     1      40.069  -6.372  15.978  1.00  0.00     0.009 A 
ENDBRANCH  31  32
ENDBRANCH  26  31
ENDBRANCH  22  23
ENDBRANCH   1  22
TORSDOF 8
ENDMDL
MODEL 7
REMARK VINA RESULT:      -8.3      5.564      9.549
REMARK  8 active torsions:
REMARK  status: ('A' for Active; 'I' for Inactive)
REMARK    1  A    between atoms: C_4  and  C_5 
REMARK    2  A    between atoms: C_5  and  N_6 
REMARK    3  A    between atoms: N_10  and  C_12 
REMARK    4  A    between atoms: C_12  and  C_13 
REMARK       I    between atoms: C_13  and  N_14 
REMARK    5  A    between atoms: N_14  and  C_15 
REMARK    6  A    between atoms: C_17  and  S_18 
REMARK    7  A    between atoms: S_18  and  C_19 
REMARK    8  A    between atoms: C_22  and  N_23 
ROOT
HETATM    1  C   UNL     1      40.266 -12.961   3.792  1.00  0.00     0.249 C 
HETATM    2  N   UNL     1      39.329 -13.481   2.939  1.00  0.00    -0.304 N 
HETATM    3  O   UNL     1      41.363 -12.464   3.534  1.00  0.00    -0.271 OA
HETATM    4  H   UNL     1      38.429 -13.834   3.238  1.00  0.00     0.171 HD
ENDROOT
BRANCH   2   5
HETATM    5  C   UNL     1      39.590 -13.643   1.603  1.00  0.00     0.174 A 
HETATM    6  S   UNL     1      39.123 -12.320   0.639  1.00  0.00    -0.038 SA
HETATM    7  C   UNL     1      39.570 -13.205  -0.758  1.00  0.00     0.125 A 
HETATM    8  C   UNL     1      40.081 -14.430  -0.376  1.00  0.00     0.151 A 
HETATM    9  N   UNL     1      40.110 -14.670   0.990  1.00  0.00    -0.234 NA
BRANCH   7  10
HETATM   10  S   UNL     1      39.287 -12.479  -2.343  1.00  0.00     0.214 S 
HETATM   11  O   UNL     1      39.916 -13.398  -3.268  1.00  0.00    -0.217 OA
HETATM   12  O   UNL     1      37.876 -12.161  -2.410  1.00  0.00    -0.217 OA
BRANCH  10  13
HETATM   13  C   UNL     1      40.210 -10.963  -2.344  1.00  0.00     0.065 A 
HETATM   14  C   UNL     1      41.315 -10.827  -1.496  1.00  0.00     0.026 A 
HETATM   15  C   UNL     1      42.059  -9.645  -1.513  1.00  0.00     0.037 A 
HETATM   16  C   UNL     1      41.699  -8.610  -2.388  1.00  0.00     0.102 A 
HETATM   17  C   UNL     1      40.603  -8.756  -3.254  1.00  0.00     0.037 A 
HETATM   18  C   UNL     1      39.859  -9.940  -3.235  1.00  0.00     0.026 A 
BRANCH  16  19
HETATM   19  N   UNL     1      42.470  -7.359  -2.396  1.00  0.00    -0.116 N 
HETATM   20  O   UNL     1      42.531  -6.718  -1.338  1.00  0.00    -0.532 OA
HETATM   21  O   UNL     1      42.986  -7.012  -3.467  1.00  0.00    -0.532 OA
ENDBRANCH  16  19
ENDBRANCH  10  13
ENDBRANCH   7  10
ENDBRANCH   2   5
BRANCH   1  22
HETATM   22  C   UNL     1      39.882 -13.010   5.272  1.00  0.00     0.337 C 
BRANCH  22  23
HETATM   23  N   UNL     1      40.713 -14.114   5.984  1.00  0.00    -0.060 N 
HETATM   24  C   UNL     1      40.611 -15.459   5.263  1.00  0.00     0.263 C 
HETATM   25  C   UNL     1      41.420 -16.548   6.003  1.00  0.00     0.263 C 
HETATM   26  N   UNL     1      42.869 -16.115   6.230  1.00  0.00    -0.064 N 
HETATM   27  H   UNL     1      43.278 -16.842   6.840  1.00  0.00     0.280 HD
HETATM   28  C   UNL     1      42.942 -14.802   7.000  1.00  0.00     0.263 C 
HETATM   29  C   UNL     1      42.129 -13.675   6.307  1.00  0.00     0.263 C 
HETATM   30  H   UNL     1      40.180 -14.229   6.875  1.00  0.00     0.280 HD
BRANCH  26  31
HETATM   31  C   UNL     1      43.768 -16.133   4.998  1.00  0.00     0.273 C 
BRANCH  31  32
HETATM   32  C   UNL     1      43.680 -17.396   4.195  1.00  0.00    -0.033 A 
HETATM   33  C   UNL     1      44.222 -18.594   4.692  1.00  0.00     0.009 A 
HETATM   34  C   UNL     1      44.160 -19.765   3.938  1.00  0.00     0.001 A 
HETATM   35  C   UNL     1      43.555 -19.756   2.684  1.00  0.00     0.000 A 
HETATM   36  C   UNL     1      43.002 -18.579   2.185  1.00  0.00     0.001 A 
HETATM   37  C   UNL     1      43.059 -17.404   2.935  1.00  0.00     0.009 A 
ENDBRANCH  31  32
ENDBRANCH  26  31
ENDBRANCH  22  23
ENDBRANCH   1  22
TORSDOF 8
ENDMDL
MODEL 8
REMARK VINA RESULT:      -8.2      3.654     11.661
REMARK  8 active torsions:
REMARK  status: ('A' for Active; 'I' for Inactive)
REMARK    1  A    between atoms: C_4  and  C_5 
REMARK    2  A    between atoms: C_5  and  N_6 
REMARK    3  A    between atoms: N_10  and  C_12 
REMARK    4  A    between atoms: C_12  and  C_13 
REMARK       I    between atoms: C_13  and  N_14 
REMARK    5  A    between atoms: N_14  and  C_15 
REMARK    6  A    between atoms: C_17  and  S_18 
REMARK    7  A    between atoms: S_18  and  C_19 
REMARK    8  A    between atoms: C_22  and  N_23 
ROOT
HETATM    1  C   UNL     1      41.105 -10.483   7.127  1.00  0.00     0.249 C 
HETATM    2  N   UNL     1      40.197 -11.337   6.561  1.00  0.00    -0.304 N 
HETATM    3  O   UNL     1      42.334 -10.481   7.037  1.00  0.00    -0.271 OA
HETATM    4  H   UNL     1      39.195 -11.238   6.656  1.00  0.00     0.171 HD
ENDROOT
BRANCH   2   5
HETATM    5  C   UNL     1      40.597 -12.461   5.887  1.00  0.00     0.174 A 
HETATM    6  S   UNL     1      41.574 -12.146   4.530  1.00  0.00    -0.038 SA
HETATM    7  C   UNL     1      41.560 -13.817   4.155  1.00  0.00     0.125 A 
HETATM    8  C   UNL     1      40.842 -14.494   5.121  1.00  0.00     0.151 A 
HETATM    9  N   UNL     1      40.306 -13.709   6.131  1.00  0.00    -0.234 NA
BRANCH   7  10
HETATM   10  S   UNL     1      42.369 -14.358   2.681  1.00  0.00     0.214 S 
HETATM   11  O   UNL     1      41.313 -14.385   1.690  1.00  0.00    -0.217 OA
HETATM   12  O   UNL     1      43.550 -13.535   2.527  1.00  0.00    -0.217 OA
BRANCH  10  13
HETATM   13  C   UNL     1      42.881 -16.027   3.003  1.00  0.00     0.065 A 
HETATM   14  C   UNL     1      43.492 -16.338   4.222  1.00  0.00     0.026 A 
HETATM   15  C   UNL     1      43.873 -17.655   4.489  1.00  0.00     0.037 A 
HETATM   16  C   UNL     1      43.626 -18.656   3.538  1.00  0.00     0.102 A 
HETATM   17  C   UNL     1      42.992 -18.346   2.325  1.00  0.00     0.037 A 
HETATM   18  C   UNL     1      42.613 -17.027   2.058  1.00  0.00     0.026 A 
BRANCH  16  19
HETATM   19  N   UNL     1      44.040 -20.040   3.811  1.00  0.00    -0.116 N 
HETATM   20  O   UNL     1      43.837 -20.883   2.927  1.00  0.00    -0.532 OA
HETATM   21  O   UNL     1      44.540 -20.279   4.918  1.00  0.00    -0.532 OA
ENDBRANCH  16  19
ENDBRANCH  10  13
ENDBRANCH   7  10
ENDBRANCH   2   5
BRANCH   1  22
HETATM   22  C   UNL     1      40.492  -9.377   7.989  1.00  0.00     0.337 C 
BRANCH  22  23
HETATM   23  N   UNL     1      40.735  -9.698   9.490  1.00  0.00    -0.060 N 
HETATM   24  C   UNL     1      41.807  -8.794  10.101  1.00  0.00     0.263 C 
HETATM   25  C   UNL     1      42.054  -9.149  11.585  1.00  0.00     0.263 C 
HETATM   26  N   UNL     1      40.754  -9.138  12.389  1.00  0.00    -0.064 N 
HETATM   27  H   UNL     1      41.005  -9.516  13.318  1.00  0.00     0.280 HD
HETATM   28  C   UNL     1      39.724 -10.091  11.792  1.00  0.00     0.263 C 
HETATM   29  C   UNL     1      39.452  -9.788  10.294  1.00  0.00     0.263 C 
HETATM   30  H   UNL     1      41.166 -10.647   9.429  1.00  0.00     0.280 HD
BRANCH  26  31
HETATM   31  C   UNL     1      40.178  -7.762  12.703  1.00  0.00     0.273 C 
BRANCH  31  32
HETATM   32  C   UNL     1      40.337  -7.345  14.135  1.00  0.00    -0.033 A 
HETATM   33  C   UNL     1      39.785  -6.134  14.589  1.00  0.00     0.009 A 
HETATM   34  C   UNL     1      39.948  -5.735  15.914  1.00  0.00     0.001 A 
HETATM   35  C   UNL     1      40.660  -6.538  16.802  1.00  0.00     0.000 A 
HETATM   36  C   UNL     1      41.201  -7.746  16.369  1.00  0.00     0.001 A 
HETATM   37  C   UNL     1      41.039  -8.153  15.044  1.00  0.00     0.009 A 
ENDBRANCH  31  32
ENDBRANCH  26  31
ENDBRANCH  22  23
ENDBRANCH   1  22
TORSDOF 8
ENDMDL
MODEL 9
REMARK VINA RESULT:      -8.1      3.519      4.972
REMARK  8 active torsions:
REMARK  status: ('A' for Active; 'I' for Inactive)
REMARK    1  A    between atoms: C_4  and  C_5 
REMARK    2  A    between atoms: C_5  and  N_6 
REMARK    3  A    between atoms: N_10  and  C_12 
REMARK    4  A    between atoms: C_12  and  C_13 
REMARK       I    between atoms: C_13  and  N_14 
REMARK    5  A    between atoms: N_14  and  C_15 
REMARK    6  A    between atoms: C_17  and  S_18 
REMARK    7  A    between atoms: S_18  and  C_19 
REMARK    8  A    between atoms: C_22  and  N_23 
ROOT
HETATM    1  C   UNL     1      39.426 -10.155   7.046  1.00  0.00     0.249 C 
HETATM    2  N   UNL     1      39.199 -10.324   8.386  1.00  0.00    -0.304 N 
HETATM    3  O   UNL     1      39.960  -9.213   6.459  1.00  0.00    -0.271 OA
HETATM    4  H   UNL     1      38.787 -11.157   8.787  1.00  0.00     0.171 HD
ENDROOT
BRANCH   2   5
HETATM    5  C   UNL     1      39.439  -9.317   9.284  1.00  0.00     0.174 A 
HETATM    6  S   UNL     1      40.847  -9.536  10.213  1.00  0.00    -0.038 SA
HETATM    7  C   UNL     1      40.454  -8.128  11.106  1.00  0.00     0.125 A 
HETATM    8  C   UNL     1      39.296  -7.575  10.597  1.00  0.00     0.151 A 
HETATM    9  N   UNL     1      38.725  -8.254   9.531  1.00  0.00    -0.234 NA
BRANCH   7  10
HETATM   10  S   UNL     1      41.494  -7.670  12.459  1.00  0.00     0.214 S 
HETATM   11  O   UNL     1      40.594  -7.620  13.592  1.00  0.00    -0.217 OA
HETATM   12  O   UNL     1      42.640  -8.554  12.422  1.00  0.00    -0.217 OA
BRANCH  10  13
HETATM   13  C   UNL     1      42.040  -6.019  12.102  1.00  0.00     0.065 A 
HETATM   14  C   UNL     1      42.331  -5.659  10.782  1.00  0.00     0.026 A 
HETATM   15  C   UNL     1      42.737  -4.354  10.494  1.00  0.00     0.037 A 
HETATM   16  C   UNL     1      42.835  -3.413  11.530  1.00  0.00     0.102 A 
HETATM   17  C   UNL     1      42.521  -3.770  12.850  1.00  0.00     0.037 A 
HETATM   18  C   UNL     1      42.117  -5.078  13.137  1.00  0.00     0.026 A 
BRANCH  16  19
HETATM   19  N   UNL     1      43.277  -2.043  11.231  1.00  0.00    -0.116 N 
HETATM   20  O   UNL     1      43.122  -1.187  12.112  1.00  0.00    -0.532 OA
HETATM   21  O   UNL     1      43.751  -1.827  10.108  1.00  0.00    -0.532 OA
ENDBRANCH  16  19
ENDBRANCH  10  13
ENDBRANCH   7  10
ENDBRANCH   2   5
BRANCH   1  22
HETATM   22  C   UNL     1      38.943 -11.310   6.165  1.00  0.00     0.337 C 
BRANCH  22  23
HETATM   23  N   UNL     1      40.137 -11.858   5.334  1.00  0.00    -0.060 N 
HETATM   24  C   UNL     1      41.232 -12.443   6.228  1.00  0.00     0.263 C 
HETATM   25  C   UNL     1      42.422 -12.956   5.386  1.00  0.00     0.263 C 
HETATM   26  N   UNL     1      41.965 -13.937   4.306  1.00  0.00    -0.064 N 
HETATM   27  H   UNL     1      42.800 -14.110   3.724  1.00  0.00     0.280 HD
HETATM   28  C   UNL     1      40.916 -13.310   3.395  1.00  0.00     0.263 C 
HETATM   29  C   UNL     1      39.704 -12.760   4.194  1.00  0.00     0.263 C 
HETATM   30  H   UNL     1      40.535 -10.977   4.940  1.00  0.00     0.280 HD
BRANCH  26  31
HETATM   31  C   UNL     1      41.572 -15.327   4.794  1.00  0.00     0.273 C 
BRANCH  31  32
HETATM   32  C   UNL     1      42.354 -16.441   4.163  1.00  0.00    -0.033 A 
HETATM   33  C   UNL     1      43.341 -17.121   4.895  1.00  0.00     0.009 A 
HETATM   34  C   UNL     1      44.084 -18.142   4.304  1.00  0.00     0.001 A 
HETATM   35  C   UNL     1      43.846 -18.498   2.978  1.00  0.00     0.000 A 
HETATM   36  C   UNL     1      42.862 -17.841   2.245  1.00  0.00     0.001 A 
HETATM   37  C   UNL     1      42.114 -16.819   2.832  1.00  0.00     0.009 A 
ENDBRANCH  31  32
ENDBRANCH  26  31
ENDBRANCH  22  23
ENDBRANCH   1  22
TORSDOF 8
ENDMDL
MODEL 10
REMARK VINA RESULT:      -8.0      7.687     10.927
REMARK  8 active torsions:
REMARK  status: ('A' for Active; 'I' for Inactive)
REMARK    1  A    between atoms: C_4  and  C_5 
REMARK    2  A    between atoms: C_5  and  N_6 
REMARK    3  A    between atoms: N_10  and  C_12 
REMARK    4  A    between atoms: C_12  and  C_13 
REMARK       I    between atoms: C_13  and  N_14 
REMARK    5  A    between atoms: N_14  and  C_15 
REMARK    6  A    between atoms: C_17  and  S_18 
REMARK    7  A    between atoms: S_18  and  C_19 
REMARK    8  A    between atoms: C_22  and  N_23 
ROOT
HETATM    1  C   UNL     1      39.689 -12.876  -0.230  1.00  0.00     0.249 C 
HETATM    2  N   UNL     1      40.099 -12.485  -1.476  1.00  0.00    -0.304 N 
HETATM    3  O   UNL     1      39.258 -12.190   0.698  1.00  0.00    -0.271 OA
HETATM    4  H   UNL     1      40.402 -13.128  -2.197  1.00  0.00     0.171 HD
ENDROOT
BRANCH   2   5
HETATM    5  C   UNL     1      40.215 -11.160  -1.808  1.00  0.00     0.174 A 
HETATM    6  S   UNL     1      41.675 -10.444  -1.308  1.00  0.00    -0.038 SA
HETATM    7  C   UNL     1      41.104  -8.931  -1.873  1.00  0.00     0.125 A 
HETATM    8  C   UNL     1      39.856  -9.098  -2.438  1.00  0.00     0.151 A 
HETATM    9  N   UNL     1      39.356 -10.392  -2.418  1.00  0.00    -0.234 NA
BRANCH   7  10
HETATM   10  S   UNL     1      42.112  -7.502  -1.620  1.00  0.00     0.214 S 
HETATM   11  O   UNL     1      41.356  -6.701  -0.680  1.00  0.00    -0.217 OA
HETATM   12  O   UNL     1      43.447  -7.979  -1.329  1.00  0.00    -0.217 OA
BRANCH  10  13
HETATM   13  C   UNL     1      42.141  -6.658  -3.181  1.00  0.00     0.065 A 
HETATM   14  C   UNL     1      41.430  -5.462  -3.332  1.00  0.00     0.026 A 
HETATM   15  C   UNL     1      41.471  -4.781  -4.551  1.00  0.00     0.037 A 
HETATM   16  C   UNL     1      42.236  -5.296  -5.608  1.00  0.00     0.102 A 
HETATM   17  C   UNL     1      42.967  -6.484  -5.448  1.00  0.00     0.037 A 
HETATM   18  C   UNL     1      42.923  -7.165  -4.227  1.00  0.00     0.026 A 
BRANCH  16  19
HETATM   19  N   UNL     1      42.268  -4.590  -6.897  1.00  0.00    -0.116 N 
HETATM   20  O   UNL     1      42.917  -5.105  -7.816  1.00  0.00    -0.532 OA
HETATM   21  O   UNL     1      41.666  -3.510  -6.972  1.00  0.00    -0.532 OA
ENDBRANCH  16  19
ENDBRANCH  10  13
ENDBRANCH   7  10
ENDBRANCH   2   5
BRANCH   1  22
HETATM   22  C   UNL     1      39.781 -14.380   0.032  1.00  0.00     0.337 C 
BRANCH  22  23
HETATM   23  N   UNL     1      40.542 -14.626   1.365  1.00  0.00    -0.060 N 
HETATM   24  C   UNL     1      40.362 -16.058   1.869  1.00  0.00     0.263 C 
HETATM   25  C   UNL     1      41.101 -16.273   3.209  1.00  0.00     0.263 C 
HETATM   26  N   UNL     1      42.573 -15.870   3.110  1.00  0.00    -0.064 N 
HETATM   27  H   UNL     1      42.935 -15.921   4.076  1.00  0.00     0.280 HD
HETATM   28  C   UNL     1      42.722 -14.421   2.662  1.00  0.00     0.263 C 
HETATM   29  C   UNL     1      41.980 -14.146   1.325  1.00  0.00     0.263 C 
HETATM   30  H   UNL     1      40.000 -14.024   2.024  1.00  0.00     0.280 HD
BRANCH  26  31
HETATM   31  C   UNL     1      43.474 -16.827   2.336  1.00  0.00     0.273 C 
BRANCH  31  32
HETATM   32  C   UNL     1      43.626 -18.175   2.976  1.00  0.00    -0.033 A 
HETATM   33  C   UNL     1      44.025 -18.283   4.319  1.00  0.00     0.009 A 
HETATM   34  C   UNL     1      44.188 -19.535   4.911  1.00  0.00     0.001 A 
HETATM   35  C   UNL     1      43.951 -20.691   4.171  1.00  0.00     0.000 A 
HETATM   36  C   UNL     1      43.543 -20.598   2.843  1.00  0.00     0.001 A 
HETATM   37  C   UNL     1      43.377 -19.348   2.246  1.00  0.00     0.009 A 
ENDBRANCH  31  32
ENDBRANCH  26  31
ENDBRANCH  22  23
ENDBRANCH   1  22
TORSDOF 8
ENDMDL
