MODEL 1
REMARK VINA RESULT:      -8.4      0.000      0.000
REMARK  11 active torsions:
REMARK  status: ('A' for Active; 'I' for Inactive)
REMARK    1  A    between atoms: C_2  and  O_3 
REMARK    2  A    between atoms: O_3  and  C_4 
REMARK    3  A    between atoms: C_5  and  O_6 
REMARK    4  A    between atoms: O_6  and  C_7 
REMARK    5  A    between atoms: C_7  and  C_8 
REMARK       I    between atoms: C_8  and  N_9 
REMARK    6  A    between atoms: N_9  and  C_10 
REMARK    7  A    between atoms: C_11  and  O_12 
REMARK    8  A    between atoms: C_21  and  C_22 
REMARK    9  A    between atoms: C_27  and  C_28 
REMARK   10  A    between atoms: C_34  and  C_35 
REMARK   11  A    between atoms: C_35  and  C_36 
ROOT
HETATM    1  C   UNL     1      40.642  -9.119   6.960  1.00  0.00     0.102 A 
HETATM    2  C   UNL     1      39.499  -9.659   7.558  1.00  0.00     0.102 A 
HETATM    3  C   UNL     1      38.728 -10.606   6.884  1.00  0.00     0.040 A 
HETATM    4  C   UNL     1      39.115 -11.052   5.623  1.00  0.00     0.012 A 
HETATM    5  C   UNL     1      40.273 -10.547   5.015  1.00  0.00    -0.028 A 
HETATM    6  C   UNL     1      41.049  -9.602   5.712  1.00  0.00     0.049 A 
ENDROOT
BRANCH   5   7
HETATM    7  C   UNL     1      40.655 -11.012   3.621  1.00  0.00     0.157 C 
HETATM    8  N   UNL     1      39.481 -10.960   2.770  1.00  0.00    -0.354 N 
HETATM    9  C   UNL     1      39.334 -11.729   1.662  1.00  0.00     0.173 C 
HETATM   10  H   UNL     1      38.885 -10.142   2.824  1.00  0.00     0.163 HD
HETATM   11  S   UNL     1      38.178 -11.389   0.521  1.00  0.00    -0.041 SA
HETATM   12  N   UNL     1      40.152 -12.810   1.555  1.00  0.00    -0.332 N 
HETATM   13  C   UNL     1      41.069 -13.190   2.510  1.00  0.00     0.057 C 
HETATM   14  H   UNL     1      39.980 -13.434   0.772  1.00  0.00     0.168 HD
HETATM   15  C   UNL     1      41.329 -12.360   3.538  1.00  0.00     0.047 C 
BRANCH  13  16
HETATM   16  C   UNL     1      41.712 -14.493   2.280  1.00  0.00    -0.009 A 
HETATM   17  C   UNL     1      43.021 -14.562   1.789  1.00  0.00     0.014 A 
HETATM   18  C   UNL     1      43.645 -15.799   1.621  1.00  0.00     0.001 A 
HETATM   19  C   UNL     1      42.968 -16.972   1.947  1.00  0.00     0.000 A 
HETATM   20  C   UNL     1      41.665 -16.912   2.439  1.00  0.00     0.001 A 
HETATM   21  C   UNL     1      41.037 -15.676   2.606  1.00  0.00     0.014 A 
ENDBRANCH  13  16
BRANCH  15  22
HETATM   22  C   UNL     1      42.257 -12.759   4.636  1.00  0.00     0.193 C 
HETATM   23  O   UNL     1      43.329 -12.186   4.799  1.00  0.00    -0.287 OA
BRANCH  22  24
HETATM   24  C   UNL     1      41.937 -13.971   5.436  1.00  0.00     0.015 A 
HETATM   25  C   UNL     1      42.974 -14.875   5.700  1.00  0.00     0.015 A 
HETATM   26  C   UNL     1      42.715 -16.052   6.404  1.00  0.00     0.001 A 
HETATM   27  C   UNL     1      41.424 -16.323   6.855  1.00  0.00     0.000 A 
HETATM   28  C   UNL     1      40.392 -15.414   6.613  1.00  0.00     0.001 A 
HETATM   29  C   UNL     1      40.647 -14.233   5.910  1.00  0.00     0.015 A 
ENDBRANCH  22  24
ENDBRANCH  15  22
ENDBRANCH   5   7
BRANCH   1  30
HETATM   30  O   UNL     1      41.335  -8.159   7.647  1.00  0.00    -0.349 OA
BRANCH  30  31
HETATM   31  C   UNL     1      42.687  -8.495   7.985  1.00  0.00     0.171 C 
HETATM   32  C   UNL     1      43.359  -7.307   8.647  1.00  0.00     0.034 C 
ENDBRANCH  30  31
ENDBRANCH   1  30
BRANCH   2  33
HETATM   33  O   UNL     1      39.011  -9.229   8.764  1.00  0.00    -0.339 OA
BRANCH  33  34
HETATM   34  C   UNL     1      38.924 -10.278   9.739  1.00  0.00     0.278 C 
BRANCH  34  35
HETATM   35  C   UNL     1      39.707  -9.915  11.012  1.00  0.00     0.246 C 
HETATM   36  N   UNL     1      40.572  -8.850  10.808  1.00  0.00    -0.323 N 
HETATM   37  H   UNL     1      40.408  -8.356   9.940  1.00  0.00     0.169 HD
HETATM   38  O   UNL     1      39.477 -10.491  12.071  1.00  0.00    -0.271 OA
BRANCH  36  39
HETATM   39  C   UNL     1      41.380  -8.208  11.768  1.00  0.00     0.068 A 
HETATM   40  C   UNL     1      42.676  -8.620  12.129  1.00  0.00     0.095 A 
HETATM   41  C   UNL     1      43.349  -7.926  13.146  1.00  0.00     0.039 A 
HETATM   42  C   UNL     1      42.765  -6.815  13.764  1.00  0.00     0.003 A 
HETATM   43  C   UNL     1      41.514  -6.371  13.357  1.00  0.00     0.002 A 
HETATM   44  C   UNL     1      40.830  -7.058  12.356  1.00  0.00     0.032 A 
BRANCH  40  45
HETATM   45  O   UNL     1      43.250  -9.612  11.381  1.00  0.00    -0.354 OA
HETATM   46  C   UNL     1      43.377 -10.900  11.962  1.00  0.00     0.210 C 
ENDBRANCH  40  45
ENDBRANCH  36  39
ENDBRANCH  34  35
ENDBRANCH  33  34
ENDBRANCH   2  33
TORSDOF 11
ENDMDL
MODEL 2
REMARK VINA RESULT:      -8.3      2.528      3.942
REMARK  11 active torsions:
REMARK  status: ('A' for Active; 'I' for Inactive)
REMARK    1  A    between atoms: C_2  and  O_3 
REMARK    2  A    between atoms: O_3  and  C_4 
REMARK    3  A    between atoms: C_5  and  O_6 
REMARK    4  A    between atoms: O_6  and  C_7 
REMARK    5  A    between atoms: C_7  and  C_8 
REMARK       I    between atoms: C_8  and  N_9 
REMARK    6  A    between atoms: N_9  and  C_10 
REMARK    7  A    between atoms: C_11  and  O_12 
REMARK    8  A    between atoms: C_21  and  C_22 
REMARK    9  A    between atoms: C_27  and  C_28 
REMARK   10  A    between atoms: C_34  and  C_35 
REMARK   11  A    between atoms: C_35  and  C_36 
ROOT
HETATM    1  C   UNL     1      42.042 -11.782   5.552  1.00  0.00     0.102 A 
HETATM    2  C   UNL     1      40.943 -11.015   5.952  1.00  0.00     0.102 A 
HETATM    3  C   UNL     1      40.142 -10.378   5.004  1.00  0.00     0.040 A 
HETATM    4  C   UNL     1      40.406 -10.537   3.646  1.00  0.00     0.012 A 
HETATM    5  C   UNL     1      41.484 -11.325   3.220  1.00  0.00    -0.028 A 
HETATM    6  C   UNL     1      42.277 -11.972   4.187  1.00  0.00     0.049 A 
ENDROOT
BRANCH   5   7
HETATM    7  C   UNL     1      41.785 -11.450   1.737  1.00  0.00     0.157 C 
HETATM    8  N   UNL     1      41.881 -10.121   1.162  1.00  0.00    -0.354 N 
HETATM    9  C   UNL     1      41.654  -9.863  -0.150  1.00  0.00     0.173 C 
HETATM   10  H   UNL     1      42.401  -9.415   1.670  1.00  0.00     0.163 HD
HETATM   11  S   UNL     1      42.126  -8.431  -0.843  1.00  0.00    -0.041 SA
HETATM   12  N   UNL     1      40.988 -10.816  -0.854  1.00  0.00    -0.332 N 
HETATM   13  C   UNL     1      40.497 -11.984  -0.314  1.00  0.00     0.057 C 
HETATM   14  H   UNL     1      40.740 -10.584  -1.812  1.00  0.00     0.168 HD
HETATM   15  C   UNL     1      40.840 -12.320   0.944  1.00  0.00     0.047 C 
BRANCH  13  16
HETATM   16  C   UNL     1      39.645 -12.781  -1.209  1.00  0.00    -0.009 A 
HETATM   17  C   UNL     1      38.300 -12.439  -1.401  1.00  0.00     0.014 A 
HETATM   18  C   UNL     1      37.509 -13.166  -2.290  1.00  0.00     0.001 A 
HETATM   19  C   UNL     1      38.056 -14.235  -2.998  1.00  0.00     0.000 A 
HETATM   20  C   UNL     1      39.394 -14.580  -2.815  1.00  0.00     0.001 A 
HETATM   21  C   UNL     1      40.188 -13.856  -1.924  1.00  0.00     0.014 A 
ENDBRANCH  13  16
BRANCH  15  22
HETATM   22  C   UNL     1      40.274 -13.534   1.600  1.00  0.00     0.193 C 
HETATM   23  O   UNL     1      39.119 -13.551   2.014  1.00  0.00    -0.287 OA
BRANCH  22  24
HETATM   24  C   UNL     1      41.180 -14.677   1.890  1.00  0.00     0.015 A 
HETATM   25  C   UNL     1      40.830 -15.543   2.935  1.00  0.00     0.015 A 
HETATM   26  C   UNL     1      41.672 -16.601   3.279  1.00  0.00     0.001 A 
HETATM   27  C   UNL     1      42.858 -16.804   2.576  1.00  0.00     0.000 A 
HETATM   28  C   UNL     1      43.200 -15.956   1.520  1.00  0.00     0.001 A 
HETATM   29  C   UNL     1      42.359 -14.897   1.170  1.00  0.00     0.015 A 
ENDBRANCH  22  24
ENDBRANCH  15  22
ENDBRANCH   5   7
BRANCH   1  30
HETATM   30  O   UNL     1      42.821 -12.345   6.527  1.00  0.00    -0.349 OA
BRANCH  30  31
HETATM   31  C   UNL     1      44.159 -11.840   6.615  1.00  0.00     0.171 C 
HETATM   32  C   UNL     1      44.242 -10.801   7.719  1.00  0.00     0.034 C 
ENDBRANCH  30  31
ENDBRANCH   1  30
BRANCH   2  33
HETATM   33  O   UNL     1      40.651 -10.752   7.265  1.00  0.00    -0.339 OA
BRANCH  33  34
HETATM   34  C   UNL     1      39.898  -9.543   7.439  1.00  0.00     0.278 C 
BRANCH  34  35
HETATM   35  C   UNL     1      40.160  -8.923   8.822  1.00  0.00     0.246 C 
HETATM   36  N   UNL     1      41.141  -9.608   9.524  1.00  0.00    -0.323 N 
HETATM   37  H   UNL     1      41.665 -10.260   8.955  1.00  0.00     0.169 HD
HETATM   38  O   UNL     1      39.589  -7.891   9.162  1.00  0.00    -0.271 OA
BRANCH  36  39
HETATM   39  C   UNL     1      41.684  -9.273  10.781  1.00  0.00     0.068 A 
HETATM   40  C   UNL     1      41.015  -9.422  12.009  1.00  0.00     0.095 A 
HETATM   41  C   UNL     1      41.649  -8.992  13.184  1.00  0.00     0.039 A 
HETATM   42  C   UNL     1      42.944  -8.464  13.148  1.00  0.00     0.003 A 
HETATM   43  C   UNL     1      43.628  -8.383  11.942  1.00  0.00     0.002 A 
HETATM   44  C   UNL     1      43.005  -8.796  10.766  1.00  0.00     0.032 A 
BRANCH  40  45
HETATM   45  O   UNL     1      39.819 -10.086  11.994  1.00  0.00    -0.354 OA
HETATM   46  C   UNL     1      39.450 -10.829  13.146  1.00  0.00     0.210 C 
ENDBRANCH  40  45
ENDBRANCH  36  39
ENDBRANCH  34  35
ENDBRANCH  33  34
ENDBRANCH   2  33
TORSDOF 11
ENDMDL
MODEL 3
REMARK VINA RESULT:      -8.3      2.801      9.620
REMARK  11 active torsions:
REMARK  status: ('A' for Active; 'I' for Inactive)
REMARK    1  A    between atoms: C_2  and  O_3 
REMARK    2  A    between atoms: O_3  and  C_4 
REMARK    3  A    between atoms: C_5  and  O_6 
REMARK    4  A    between atoms: O_6  and  C_7 
REMARK    5  A    between atoms: C_7  and  C_8 
REMARK       I    between atoms: C_8  and  N_9 
REMARK    6  A    between atoms: N_9  and  C_10 
REMARK    7  A    between atoms: C_11  and  O_12 
REMARK    8  A    between atoms: C_21  and  C_22 
REMARK    9  A    between atoms: C_27  and  C_28 
REMARK   10  A    between atoms: C_34  and  C_35 
REMARK   11  A    between atoms: C_35  and  C_36 
ROOT
HETATM    1  C   UNL     1      42.472 -10.789   6.505  1.00  0.00     0.102 A 
HETATM    2  C   UNL     1      41.807 -11.916   6.011  1.00  0.00     0.102 A 
HETATM    3  C   UNL     1      40.413 -11.954   5.973  1.00  0.00     0.040 A 
HETATM    4  C   UNL     1      39.672 -10.852   6.390  1.00  0.00     0.012 A 
HETATM    5  C   UNL     1      40.317  -9.700   6.862  1.00  0.00    -0.028 A 
HETATM    6  C   UNL     1      41.724  -9.669   6.882  1.00  0.00     0.049 A 
ENDROOT
BRANCH   5   7
HETATM    7  C   UNL     1      39.492  -8.524   7.354  1.00  0.00     0.157 C 
HETATM    8  N   UNL     1      39.937  -7.321   6.676  1.00  0.00    -0.354 N 
HETATM    9  C   UNL     1      39.781  -6.077   7.196  1.00  0.00     0.173 C 
HETATM   10  H   UNL     1      40.105  -7.366   5.678  1.00  0.00     0.163 HD
HETATM   11  S   UNL     1      39.954  -4.720   6.256  1.00  0.00    -0.041 SA
HETATM   12  N   UNL     1      39.519  -5.999   8.528  1.00  0.00    -0.332 N 
HETATM   13  C   UNL     1      39.451  -7.084   9.373  1.00  0.00     0.057 C 
HETATM   14  H   UNL     1      39.493  -5.067   8.932  1.00  0.00     0.168 HD
HETATM   15  C   UNL     1      39.455  -8.325   8.850  1.00  0.00     0.047 C 
BRANCH  13  16
HETATM   16  C   UNL     1      39.346  -6.760  10.804  1.00  0.00    -0.009 A 
HETATM   17  C   UNL     1      38.142  -6.958  11.490  1.00  0.00     0.014 A 
HETATM   18  C   UNL     1      38.061  -6.698  12.859  1.00  0.00     0.001 A 
HETATM   19  C   UNL     1      39.182  -6.245  13.550  1.00  0.00     0.000 A 
HETATM   20  C   UNL     1      40.386  -6.047  12.875  1.00  0.00     0.001 A 
HETATM   21  C   UNL     1      40.469  -6.304  11.505  1.00  0.00     0.014 A 
ENDBRANCH  13  16
BRANCH  15  22
HETATM   22  C   UNL     1      39.459  -9.532   9.727  1.00  0.00     0.193 C 
HETATM   23  O   UNL     1      38.532 -10.335   9.705  1.00  0.00    -0.287 OA
BRANCH  22  24
HETATM   24  C   UNL     1      40.531  -9.668  10.749  1.00  0.00     0.015 A 
HETATM   25  C   UNL     1      40.149  -9.955  12.066  1.00  0.00     0.015 A 
HETATM   26  C   UNL     1      41.113 -10.043  13.072  1.00  0.00     0.001 A 
HETATM   27  C   UNL     1      42.458  -9.857  12.763  1.00  0.00     0.000 A 
HETATM   28  C   UNL     1      42.846  -9.593  11.448  1.00  0.00     0.001 A 
HETATM   29  C   UNL     1      41.885  -9.505  10.437  1.00  0.00     0.015 A 
ENDBRANCH  22  24
ENDBRANCH  15  22
ENDBRANCH   5   7
BRANCH   1  30
HETATM   30  O   UNL     1      43.840 -10.824   6.563  1.00  0.00    -0.349 OA
BRANCH  30  31
HETATM   31  C   UNL     1      44.408 -10.625   7.864  1.00  0.00     0.171 C 
HETATM   32  C   UNL     1      45.922 -10.659   7.771  1.00  0.00     0.034 C 
ENDBRANCH  30  31
ENDBRANCH   1  30
BRANCH   2  33
HETATM   33  O   UNL     1      42.454 -13.066   5.644  1.00  0.00    -0.339 OA
BRANCH  33  34
HETATM   34  C   UNL     1      42.125 -13.494   4.315  1.00  0.00     0.278 C 
BRANCH  34  35
HETATM   35  C   UNL     1      41.988 -15.024   4.245  1.00  0.00     0.246 C 
HETATM   36  N   UNL     1      43.132 -15.629   3.746  1.00  0.00    -0.323 N 
HETATM   37  H   UNL     1      43.931 -15.009   3.704  1.00  0.00     0.169 HD
HETATM   38  O   UNL     1      40.984 -15.581   4.678  1.00  0.00    -0.271 OA
BRANCH  36  39
HETATM   39  C   UNL     1      43.384 -17.010   3.619  1.00  0.00     0.068 A 
HETATM   40  C   UNL     1      44.053 -17.794   4.577  1.00  0.00     0.095 A 
HETATM   41  C   UNL     1      44.293 -19.148   4.298  1.00  0.00     0.039 A 
HETATM   42  C   UNL     1      43.836 -19.726   3.109  1.00  0.00     0.003 A 
HETATM   43  C   UNL     1      43.116 -18.965   2.197  1.00  0.00     0.002 A 
HETATM   44  C   UNL     1      42.881 -17.617   2.457  1.00  0.00     0.032 A 
BRANCH  40  45
HETATM   45  O   UNL     1      44.333 -17.207   5.781  1.00  0.00    -0.354 OA
HETATM   46  C   UNL     1      43.425 -17.411   6.853  1.00  0.00     0.210 C 
ENDBRANCH  40  45
ENDBRANCH  36  39
ENDBRANCH  34  35
ENDBRANCH  33  34
ENDBRANCH   2  33
TORSDOF 11
ENDMDL
MODEL 4
REMARK VINA RESULT:      -7.8      4.401      8.642
REMARK  11 active torsions:
REMARK  status: ('A' for Active; 'I' for Inactive)
REMARK    1  A    between atoms: C_2  and  O_3 
REMARK    2  A    between atoms: O_3  and  C_4 
REMARK    3  A    between atoms: C_5  and  O_6 
REMARK    4  A    between atoms: O_6  and  C_7 
REMARK    5  A    between atoms: C_7  and  C_8 
REMARK       I    between atoms: C_8  and  N_9 
REMARK    6  A    between atoms: N_9  and  C_10 
REMARK    7  A    between atoms: C_11  and  O_12 
REMARK    8  A    between atoms: C_21  and  C_22 
REMARK    9  A    between atoms: C_27  and  C_28 
REMARK   10  A    between atoms: C_34  and  C_35 
REMARK   11  A    between atoms: C_35  and  C_36 
ROOT
HETATM    1  C   UNL     1      39.566  -9.515   3.982  1.00  0.00     0.102 A 
HETATM    2  C   UNL     1      40.359  -9.279   2.854  1.00  0.00     0.102 A 
HETATM    3  C   UNL     1      41.673  -9.746   2.805  1.00  0.00     0.040 A 
HETATM    4  C   UNL     1      42.192 -10.488   3.863  1.00  0.00     0.012 A 
HETATM    5  C   UNL     1      41.405 -10.762   4.990  1.00  0.00    -0.028 A 
HETATM    6  C   UNL     1      40.077 -10.297   5.022  1.00  0.00     0.049 A 
ENDROOT
BRANCH   5   7
HETATM    7  C   UNL     1      42.002 -11.534   6.154  1.00  0.00     0.157 C 
HETATM    8  N   UNL     1      43.272 -10.934   6.515  1.00  0.00    -0.354 N 
HETATM    9  C   UNL     1      44.264 -11.617   7.140  1.00  0.00     0.173 C 
HETATM   10  H   UNL     1      43.328  -9.923   6.569  1.00  0.00     0.163 HD
HETATM   11  S   UNL     1      45.533 -10.829   7.863  1.00  0.00    -0.041 SA
HETATM   12  N   UNL     1      44.185 -12.974   7.108  1.00  0.00    -0.332 N 
HETATM   13  C   UNL     1      43.204 -13.682   6.451  1.00  0.00     0.057 C 
HETATM   14  H   UNL     1      44.973 -13.484   7.497  1.00  0.00     0.168 HD
HETATM   15  C   UNL     1      42.139 -13.024   5.955  1.00  0.00     0.047 C 
BRANCH  13  16
HETATM   16  C   UNL     1      43.417 -15.136   6.384  1.00  0.00    -0.009 A 
HETATM   17  C   UNL     1      42.722 -15.995   7.244  1.00  0.00     0.014 A 
HETATM   18  C   UNL     1      42.888 -17.377   7.143  1.00  0.00     0.001 A 
HETATM   19  C   UNL     1      43.743 -17.909   6.180  1.00  0.00     0.000 A 
HETATM   20  C   UNL     1      44.437 -17.060   5.318  1.00  0.00     0.001 A 
HETATM   21  C   UNL     1      44.275 -15.677   5.418  1.00  0.00     0.014 A 
ENDBRANCH  13  16
BRANCH  15  22
HETATM   22  C   UNL     1      41.090 -13.735   5.169  1.00  0.00     0.193 C 
HETATM   23  O   UNL     1      39.954 -13.878   5.612  1.00  0.00    -0.287 OA
BRANCH  22  24
HETATM   24  C   UNL     1      41.480 -14.412   3.905  1.00  0.00     0.015 A 
HETATM   25  C   UNL     1      40.943 -15.681   3.646  1.00  0.00     0.015 A 
HETATM   26  C   UNL     1      41.317 -16.379   2.498  1.00  0.00     0.001 A 
HETATM   27  C   UNL     1      42.218 -15.810   1.600  1.00  0.00     0.000 A 
HETATM   28  C   UNL     1      42.738 -14.537   1.842  1.00  0.00     0.001 A 
HETATM   29  C   UNL     1      42.366 -13.832   2.989  1.00  0.00     0.015 A 
ENDBRANCH  22  24
ENDBRANCH  15  22
ENDBRANCH   5   7
BRANCH   1  30
HETATM   30  O   UNL     1      38.300  -8.993   3.996  1.00  0.00    -0.349 OA
BRANCH  30  31
HETATM   31  C   UNL     1      37.949  -8.256   5.174  1.00  0.00     0.171 C 
HETATM   32  C   UNL     1      38.496  -6.843   5.074  1.00  0.00     0.034 C 
ENDBRANCH  30  31
ENDBRANCH   1  30
BRANCH   2  33
HETATM   33  O   UNL     1      39.953  -8.504   1.801  1.00  0.00    -0.339 OA
BRANCH  33  34
HETATM   34  C   UNL     1      40.703  -8.750   0.602  1.00  0.00     0.278 C 
BRANCH  34  35
HETATM   35  C   UNL     1      40.032  -9.834  -0.257  1.00  0.00     0.246 C 
HETATM   36  N   UNL     1      40.793 -10.991  -0.329  1.00  0.00    -0.323 N 
HETATM   37  H   UNL     1      41.549 -11.019   0.344  1.00  0.00     0.169 HD
HETATM   38  O   UNL     1      38.911  -9.654  -0.724  1.00  0.00    -0.271 OA
BRANCH  36  39
HETATM   39  C   UNL     1      40.451 -12.203  -0.961  1.00  0.00     0.068 A 
HETATM   40  C   UNL     1      40.616 -12.467  -2.333  1.00  0.00     0.095 A 
HETATM   41  C   UNL     1      40.176 -13.696  -2.846  1.00  0.00     0.039 A 
HETATM   42  C   UNL     1      39.622 -14.666  -2.004  1.00  0.00     0.003 A 
HETATM   43  C   UNL     1      39.523 -14.429  -0.639  1.00  0.00     0.002 A 
HETATM   44  C   UNL     1      39.946 -13.207  -0.119  1.00  0.00     0.032 A 
BRANCH  40  45
HETATM   45  O   UNL     1      41.305 -11.542  -3.069  1.00  0.00    -0.354 OA
HETATM   46  C   UNL     1      40.562 -10.560  -3.777  1.00  0.00     0.210 C 
ENDBRANCH  40  45
ENDBRANCH  36  39
ENDBRANCH  34  35
ENDBRANCH  33  34
ENDBRANCH   2  33
TORSDOF 11
ENDMDL
MODEL 5
REMARK VINA RESULT:      -7.8      2.997      9.763
REMARK  11 active torsions:
REMARK  status: ('A' for Active; 'I' for Inactive)
REMARK    1  A    between atoms: C_2  and  O_3 
REMARK    2  A    between atoms: O_3  and  C_4 
REMARK    3  A    between atoms: C_5  and  O_6 
REMARK    4  A    between atoms: O_6  and  C_7 
REMARK    5  A    between atoms: C_7  and  C_8 
REMARK       I    between atoms: C_8  and  N_9 
REMARK    6  A    between atoms: N_9  and  C_10 
REMARK    7  A    between atoms: C_11  and  O_12 
REMARK    8  A    between atoms: C_21  and  C_22 
REMARK    9  A    between atoms: C_27  and  C_28 
REMARK   10  A    between atoms: C_34  and  C_35 
REMARK   11  A    between atoms: C_35  and  C_36 
ROOT
HETATM    1  C   UNL     1      41.790 -13.219   5.388  1.00  0.00     0.102 A 
HETATM    2  C   UNL     1      41.464 -12.942   4.056  1.00  0.00     0.102 A 
HETATM    3  C   UNL     1      41.389 -11.624   3.606  1.00  0.00     0.040 A 
HETATM    4  C   UNL     1      41.679 -10.572   4.472  1.00  0.00     0.012 A 
HETATM    5  C   UNL     1      42.037 -10.827   5.803  1.00  0.00    -0.028 A 
HETATM    6  C   UNL     1      42.122 -12.162   6.241  1.00  0.00     0.049 A 
ENDROOT
BRANCH   5   7
HETATM    7  C   UNL     1      42.307  -9.667   6.744  1.00  0.00     0.157 C 
HETATM    8  N   UNL     1      43.634  -9.819   7.311  1.00  0.00    -0.354 N 
HETATM    9  C   UNL     1      43.999  -9.278   8.500  1.00  0.00     0.173 C 
HETATM   10  H   UNL     1      44.392 -10.084   6.693  1.00  0.00     0.163 HD
HETATM   11  S   UNL     1      45.594  -9.151   8.939  1.00  0.00    -0.041 SA
HETATM   12  N   UNL     1      42.994  -8.884   9.327  1.00  0.00    -0.332 N 
HETATM   13  C   UNL     1      41.653  -9.043   9.054  1.00  0.00     0.057 C 
HETATM   14  H   UNL     1      43.265  -8.563  10.252  1.00  0.00     0.168 HD
HETATM   15  C   UNL     1      41.276  -9.440   7.823  1.00  0.00     0.047 C 
BRANCH  13  16
HETATM   16  C   UNL     1      40.744  -8.722  10.164  1.00  0.00    -0.009 A 
HETATM   17  C   UNL     1      40.427  -9.691  11.125  1.00  0.00     0.014 A 
HETATM   18  C   UNL     1      39.605  -9.368  12.205  1.00  0.00     0.001 A 
HETATM   19  C   UNL     1      39.100  -8.076  12.336  1.00  0.00     0.000 A 
HETATM   20  C   UNL     1      39.413  -7.105  11.386  1.00  0.00     0.001 A 
HETATM   21  C   UNL     1      40.233  -7.425  10.302  1.00  0.00     0.014 A 
ENDBRANCH  13  16
BRANCH  15  22
HETATM   22  C   UNL     1      39.843  -9.699   7.502  1.00  0.00     0.193 C 
HETATM   23  O   UNL     1      39.284 -10.724   7.879  1.00  0.00    -0.287 OA
BRANCH  22  24
HETATM   24  C   UNL     1      39.139  -8.770   6.578  1.00  0.00     0.015 A 
HETATM   25  C   UNL     1      39.146  -7.404   6.891  1.00  0.00     0.015 A 
HETATM   26  C   UNL     1      38.459  -6.497   6.083  1.00  0.00     0.001 A 
HETATM   27  C   UNL     1      37.773  -6.949   4.958  1.00  0.00     0.000 A 
HETATM   28  C   UNL     1      37.782  -8.306   4.630  1.00  0.00     0.001 A 
HETATM   29  C   UNL     1      38.471  -9.218   5.434  1.00  0.00     0.015 A 
ENDBRANCH  22  24
ENDBRANCH  15  22
ENDBRANCH   5   7
BRANCH   1  30
HETATM   30  O   UNL     1      41.802 -14.529   5.787  1.00  0.00    -0.349 OA
BRANCH  30  31
HETATM   31  C   UNL     1      40.587 -15.007   6.377  1.00  0.00     0.171 C 
HETATM   32  C   UNL     1      40.160 -16.294   5.697  1.00  0.00     0.034 C 
ENDBRANCH  30  31
ENDBRANCH   1  30
BRANCH   2  33
HETATM   33  O   UNL     1      41.099 -13.910   3.158  1.00  0.00    -0.339 OA
BRANCH  33  34
HETATM   34  C   UNL     1      41.963 -13.965   2.013  1.00  0.00     0.278 C 
BRANCH  34  35
HETATM   35  C   UNL     1      42.905 -15.178   2.089  1.00  0.00     0.246 C 
HETATM   36  N   UNL     1      42.406 -16.176   2.913  1.00  0.00    -0.323 N 
HETATM   37  H   UNL     1      41.433 -16.046   3.162  1.00  0.00     0.169 HD
HETATM   38  O   UNL     1      43.923 -15.221   1.405  1.00  0.00    -0.271 OA
BRANCH  36  39
HETATM   39  C   UNL     1      42.964 -17.448   3.149  1.00  0.00     0.068 A 
HETATM   40  C   UNL     1      43.719 -17.794   4.285  1.00  0.00     0.095 A 
HETATM   41  C   UNL     1      44.270 -19.081   4.368  1.00  0.00     0.039 A 
HETATM   42  C   UNL     1      44.040 -20.025   3.362  1.00  0.00     0.003 A 
HETATM   43  C   UNL     1      43.238 -19.702   2.275  1.00  0.00     0.002 A 
HETATM   44  C   UNL     1      42.694 -18.423   2.175  1.00  0.00     0.032 A 
BRANCH  40  45
HETATM   45  O   UNL     1      43.775 -16.879   5.302  1.00  0.00    -0.354 OA
HETATM   46  C   UNL     1      43.651 -17.351   6.635  1.00  0.00     0.210 C 
ENDBRANCH  40  45
ENDBRANCH  36  39
ENDBRANCH  34  35
ENDBRANCH  33  34
ENDBRANCH   2  33
TORSDOF 11
ENDMDL
MODEL 6
REMARK VINA RESULT:      -7.8      2.813      9.760
REMARK  11 active torsions:
REMARK  status: ('A' for Active; 'I' for Inactive)
REMARK    1  A    between atoms: C_2  and  O_3 
REMARK    2  A    between atoms: O_3  and  C_4 
REMARK    3  A    between atoms: C_5  and  O_6 
REMARK    4  A    between atoms: O_6  and  C_7 
REMARK    5  A    between atoms: C_7  and  C_8 
REMARK       I    between atoms: C_8  and  N_9 
REMARK    6  A    between atoms: N_9  and  C_10 
REMARK    7  A    between atoms: C_11  and  O_12 
REMARK    8  A    between atoms: C_21  and  C_22 
REMARK    9  A    between atoms: C_27  and  C_28 
REMARK   10  A    between atoms: C_34  and  C_35 
REMARK   11  A    between atoms: C_35  and  C_36 
ROOT
HETATM    1  C   UNL     1      41.302 -12.036   5.804  1.00  0.00     0.102 A 
HETATM    2  C   UNL     1      42.614 -12.172   6.268  1.00  0.00     0.102 A 
HETATM    3  C   UNL     1      43.234 -11.125   6.952  1.00  0.00     0.040 A 
HETATM    4  C   UNL     1      42.535  -9.950   7.213  1.00  0.00     0.012 A 
HETATM    5  C   UNL     1      41.209  -9.802   6.783  1.00  0.00    -0.028 A 
HETATM    6  C   UNL     1      40.591 -10.871   6.107  1.00  0.00     0.049 A 
ENDROOT
BRANCH   5   7
HETATM    7  C   UNL     1      40.477  -8.497   7.038  1.00  0.00     0.157 C 
HETATM    8  N   UNL     1      41.210  -7.415   6.408  1.00  0.00    -0.354 N 
HETATM    9  C   UNL     1      41.132  -6.126   6.824  1.00  0.00     0.173 C 
HETATM   10  H   UNL     1      41.564  -7.557   5.469  1.00  0.00     0.163 HD
HETATM   11  S   UNL     1      41.675  -4.877   5.875  1.00  0.00    -0.041 SA
HETATM   12  N   UNL     1      40.626  -5.914   8.068  1.00  0.00    -0.332 N 
HETATM   13  C   UNL     1      40.241  -6.914   8.933  1.00  0.00     0.057 C 
HETATM   14  H   UNL     1      40.652  -4.959   8.413  1.00  0.00     0.168 HD
HETATM   15  C   UNL     1      40.175  -8.182   8.483  1.00  0.00     0.047 C 
BRANCH  13  16
HETATM   16  C   UNL     1      39.904  -6.472  10.294  1.00  0.00    -0.009 A 
HETATM   17  C   UNL     1      38.571  -6.451  10.724  1.00  0.00     0.014 A 
HETATM   18  C   UNL     1      38.259  -6.079  12.033  1.00  0.00     0.001 A 
HETATM   19  C   UNL     1      39.276  -5.733  12.921  1.00  0.00     0.000 A 
HETATM   20  C   UNL     1      40.605  -5.754  12.501  1.00  0.00     0.001 A 
HETATM   21  C   UNL     1      40.920  -6.123  11.192  1.00  0.00     0.014 A 
ENDBRANCH  13  16
BRANCH  15  22
HETATM   22  C   UNL     1      39.837  -9.309   9.400  1.00  0.00     0.193 C 
HETATM   23  O   UNL     1      38.806  -9.959   9.252  1.00  0.00    -0.287 OA
BRANCH  22  24
HETATM   24  C   UNL     1      40.689  -9.536  10.597  1.00  0.00     0.015 A 
HETATM   25  C   UNL     1      40.051  -9.761  11.824  1.00  0.00     0.015 A 
HETATM   26  C   UNL     1      40.805  -9.930  12.985  1.00  0.00     0.001 A 
HETATM   27  C   UNL     1      42.196  -9.885  12.923  1.00  0.00     0.000 A 
HETATM   28  C   UNL     1      42.837  -9.683  11.700  1.00  0.00     0.001 A 
HETATM   29  C   UNL     1      42.087  -9.516  10.533  1.00  0.00     0.015 A 
ENDBRANCH  22  24
ENDBRANCH  15  22
ENDBRANCH   5   7
BRANCH   1  30
HETATM   30  O   UNL     1      40.759 -13.076   5.098  1.00  0.00    -0.349 OA
BRANCH  30  31
HETATM   31  C   UNL     1      40.895 -12.994   3.674  1.00  0.00     0.171 C 
HETATM   32  C   UNL     1      39.605 -13.438   3.010  1.00  0.00     0.034 C 
ENDBRANCH  30  31
ENDBRANCH   1  30
BRANCH   2  33
HETATM   33  O   UNL     1      43.395 -13.264   5.997  1.00  0.00    -0.339 OA
BRANCH  33  34
HETATM   34  C   UNL     1      43.244 -14.314   6.964  1.00  0.00     0.278 C 
BRANCH  34  35
HETATM   35  C   UNL     1      42.879 -15.643   6.283  1.00  0.00     0.246 C 
HETATM   36  N   UNL     1      43.630 -15.868   5.138  1.00  0.00    -0.323 N 
HETATM   37  H   UNL     1      44.422 -15.245   5.046  1.00  0.00     0.169 HD
HETATM   38  O   UNL     1      42.068 -16.406   6.799  1.00  0.00    -0.271 OA
BRANCH  36  39
HETATM   39  C   UNL     1      43.614 -17.012   4.316  1.00  0.00     0.068 A 
HETATM   40  C   UNL     1      43.016 -17.078   3.044  1.00  0.00     0.095 A 
HETATM   41  C   UNL     1      43.019 -18.300   2.355  1.00  0.00     0.039 A 
HETATM   42  C   UNL     1      43.645 -19.427   2.898  1.00  0.00     0.003 A 
HETATM   43  C   UNL     1      44.293 -19.340   4.123  1.00  0.00     0.002 A 
HETATM   44  C   UNL     1      44.288 -18.136   4.823  1.00  0.00     0.032 A 
BRANCH  40  45
HETATM   45  O   UNL     1      42.562 -15.905   2.505  1.00  0.00    -0.354 OA
HETATM   46  C   UNL     1      43.432 -15.180   1.650  1.00  0.00     0.210 C 
ENDBRANCH  40  45
ENDBRANCH  36  39
ENDBRANCH  34  35
ENDBRANCH  33  34
ENDBRANCH   2  33
TORSDOF 11
ENDMDL
MODEL 7
REMARK VINA RESULT:      -7.7     19.306     21.950
REMARK  11 active torsions:
REMARK  status: ('A' for Active; 'I' for Inactive)
REMARK    1  A    between atoms: C_2  and  O_3 
REMARK    2  A    between atoms: O_3  and  C_4 
REMARK    3  A    between atoms: C_5  and  O_6 
REMARK    4  A    between atoms: O_6  and  C_7 
REMARK    5  A    between atoms: C_7  and  C_8 
REMARK       I    between atoms: C_8  and  N_9 
REMARK    6  A    between atoms: N_9  and  C_10 
REMARK    7  A    between atoms: C_11  and  O_12 
REMARK    8  A    between atoms: C_21  and  C_22 
REMARK    9  A    between atoms: C_27  and  C_28 
REMARK   10  A    between atoms: C_34  and  C_35 
REMARK   11  A    between atoms: C_35  and  C_36 
ROOT
HETATM    1  C   UNL     1      48.596 -31.798   3.485  1.00  0.00     0.102 A 
HETATM    2  C   UNL     1      49.645 -31.037   4.014  1.00  0.00     0.102 A 
HETATM    3  C   UNL     1      49.601 -29.644   3.966  1.00  0.00     0.040 A 
HETATM    4  C   UNL     1      48.491 -28.997   3.428  1.00  0.00     0.012 A 
HETATM    5  C   UNL     1      47.415 -29.738   2.919  1.00  0.00    -0.028 A 
HETATM    6  C   UNL     1      47.466 -31.143   2.986  1.00  0.00     0.049 A 
ENDROOT
BRANCH   5   7
HETATM    7  C   UNL     1      46.234 -29.017   2.296  1.00  0.00     0.157 C 
HETATM    8  N   UNL     1      45.006 -29.575   2.832  1.00  0.00    -0.354 N 
HETATM    9  C   UNL     1      43.820 -29.527   2.174  1.00  0.00     0.173 C 
HETATM   10  H   UNL     1      44.953 -29.750   3.828  1.00  0.00     0.163 HD
HETATM   11  S   UNL     1      42.387 -29.831   2.952  1.00  0.00    -0.041 SA
HETATM   12  N   UNL     1      43.871 -29.258   0.842  1.00  0.00    -0.332 N 
HETATM   13  C   UNL     1      45.035 -29.083   0.126  1.00  0.00     0.057 C 
HETATM   14  H   UNL     1      42.993 -29.311   0.334  1.00  0.00     0.168 HD
HETATM   15  C   UNL     1      46.204 -28.982   0.788  1.00  0.00     0.047 C 
BRANCH  13  16
HETATM   16  C   UNL     1      44.868 -28.992  -1.332  1.00  0.00    -0.009 A 
HETATM   17  C   UNL     1      45.223 -27.823  -2.016  1.00  0.00     0.014 A 
HETATM   18  C   UNL     1      45.111 -27.759  -3.406  1.00  0.00     0.001 A 
HETATM   19  C   UNL     1      44.650 -28.863  -4.120  1.00  0.00     0.000 A 
HETATM   20  C   UNL     1      44.296 -30.031  -3.447  1.00  0.00     0.001 A 
HETATM   21  C   UNL     1      44.405 -30.098  -2.057  1.00  0.00     0.014 A 
ENDBRANCH  13  16
BRANCH  15  22
HETATM   22  C   UNL     1      47.498 -28.868   0.054  1.00  0.00     0.193 C 
HETATM   23  O   UNL     1      47.875 -27.793  -0.403  1.00  0.00    -0.287 OA
BRANCH  22  24
HETATM   24  C   UNL     1      48.254 -30.109  -0.256  1.00  0.00     0.015 A 
HETATM   25  C   UNL     1      49.634 -30.116  -0.011  1.00  0.00     0.015 A 
HETATM   26  C   UNL     1      50.397 -31.240  -0.331  1.00  0.00     0.001 A 
HETATM   27  C   UNL     1      49.784 -32.361  -0.886  1.00  0.00     0.000 A 
HETATM   28  C   UNL     1      48.406 -32.367  -1.111  1.00  0.00     0.001 A 
HETATM   29  C   UNL     1      47.637 -31.246  -0.791  1.00  0.00     0.015 A 
ENDBRANCH  22  24
ENDBRANCH  15  22
ENDBRANCH   5   7
BRANCH   1  30
HETATM   30  O   UNL     1      48.713 -33.162   3.516  1.00  0.00    -0.349 OA
BRANCH  30  31
HETATM   31  C   UNL     1      48.266 -33.846   2.339  1.00  0.00     0.171 C 
HETATM   32  C   UNL     1      49.363 -34.767   1.836  1.00  0.00     0.034 C 
ENDBRANCH  30  31
ENDBRANCH   1  30
BRANCH   2  33
HETATM   33  O   UNL     1      50.800 -31.590   4.499  1.00  0.00    -0.339 OA
BRANCH  33  34
HETATM   34  C   UNL     1      51.463 -30.752   5.456  1.00  0.00     0.278 C 
BRANCH  34  35
HETATM   35  C   UNL     1      52.412 -31.571   6.346  1.00  0.00     0.246 C 
HETATM   36  N   UNL     1      53.392 -30.783   6.930  1.00  0.00    -0.323 N 
HETATM   37  H   UNL     1      53.211 -29.790   6.852  1.00  0.00     0.169 HD
HETATM   38  O   UNL     1      52.212 -32.767   6.536  1.00  0.00    -0.271 OA
BRANCH  36  39
HETATM   39  C   UNL     1      54.374 -31.185   7.858  1.00  0.00     0.068 A 
HETATM   40  C   UNL     1      55.545 -31.893   7.530  1.00  0.00     0.095 A 
HETATM   41  C   UNL     1      56.411 -32.287   8.561  1.00  0.00     0.039 A 
HETATM   42  C   UNL     1      56.143 -31.946   9.891  1.00  0.00     0.003 A 
HETATM   43  C   UNL     1      55.022 -31.188  10.203  1.00  0.00     0.002 A 
HETATM   44  C   UNL     1      54.148 -30.800   9.189  1.00  0.00     0.032 A 
BRANCH  40  45
HETATM   45  O   UNL     1      55.825 -32.058   6.201  1.00  0.00    -0.354 OA
HETATM   46  C   UNL     1      56.745 -31.163   5.594  1.00  0.00     0.210 C 
ENDBRANCH  40  45
ENDBRANCH  36  39
ENDBRANCH  34  35
ENDBRANCH  33  34
ENDBRANCH   2  33
TORSDOF 11
ENDMDL
MODEL 8
REMARK VINA RESULT:      -7.7      2.787      9.589
REMARK  11 active torsions:
REMARK  status: ('A' for Active; 'I' for Inactive)
REMARK    1  A    between atoms: C_2  and  O_3 
REMARK    2  A    between atoms: O_3  and  C_4 
REMARK    3  A    between atoms: C_5  and  O_6 
REMARK    4  A    between atoms: O_6  and  C_7 
REMARK    5  A    between atoms: C_7  and  C_8 
REMARK       I    between atoms: C_8  and  N_9 
REMARK    6  A    between atoms: N_9  and  C_10 
REMARK    7  A    between atoms: C_11  and  O_12 
REMARK    8  A    between atoms: C_21  and  C_22 
REMARK    9  A    between atoms: C_27  and  C_28 
REMARK   10  A    between atoms: C_34  and  C_35 
REMARK   11  A    between atoms: C_35  and  C_36 
ROOT
HETATM    1  C   UNL     1      42.097 -10.922   6.118  1.00  0.00     0.102 A 
HETATM    2  C   UNL     1      41.257 -12.002   5.827  1.00  0.00     0.102 A 
HETATM    3  C   UNL     1      39.889 -11.926   6.092  1.00  0.00     0.040 A 
HETATM    4  C   UNL     1      39.343 -10.756   6.613  1.00  0.00     0.012 A 
HETATM    5  C   UNL     1      40.160  -9.650   6.885  1.00  0.00    -0.028 A 
HETATM    6  C   UNL     1      41.536  -9.735   6.599  1.00  0.00     0.049 A 
ENDROOT
BRANCH   5   7
HETATM    7  C   UNL     1      39.554  -8.398   7.493  1.00  0.00     0.157 C 
HETATM    8  N   UNL     1      39.845  -7.267   6.631  1.00  0.00    -0.354 N 
HETATM    9  C   UNL     1      39.892  -5.987   7.078  1.00  0.00     0.173 C 
HETATM   10  H   UNL     1      39.730  -7.384   5.631  1.00  0.00     0.163 HD
HETATM   11  S   UNL     1      39.857  -4.703   6.028  1.00  0.00    -0.041 SA
HETATM   12  N   UNL     1      40.010  -5.813   8.422  1.00  0.00    -0.332 N 
HETATM   13  C   UNL     1      40.131  -6.839   9.333  1.00  0.00     0.057 C 
HETATM   14  H   UNL     1      40.136  -4.859   8.747  1.00  0.00     0.168 HD
HETATM   15  C   UNL     1      39.938  -8.107   8.923  1.00  0.00     0.047 C 
BRANCH  13  16
HETATM   16  C   UNL     1      40.438  -6.423  10.710  1.00  0.00    -0.009 A 
HETATM   17  C   UNL     1      39.453  -6.475  11.704  1.00  0.00     0.014 A 
HETATM   18  C   UNL     1      39.762  -6.129  13.020  1.00  0.00     0.001 A 
HETATM   19  C   UNL     1      41.056  -5.734  13.352  1.00  0.00     0.000 A 
HETATM   20  C   UNL     1      42.044  -5.682  12.369  1.00  0.00     0.001 A 
HETATM   21  C   UNL     1      41.737  -6.026  11.051  1.00  0.00     0.014 A 
ENDBRANCH  13  16
BRANCH  15  22
HETATM   22  C   UNL     1      40.132  -9.257   9.854  1.00  0.00     0.193 C 
HETATM   23  O   UNL     1      39.186  -9.955  10.204  1.00  0.00    -0.287 OA
BRANCH  22  24
HETATM   24  C   UNL     1      41.466  -9.450  10.481  1.00  0.00     0.015 A 
HETATM   25  C   UNL     1      42.597  -9.370   9.657  1.00  0.00     0.015 A 
HETATM   26  C   UNL     1      43.868  -9.593  10.187  1.00  0.00     0.001 A 
HETATM   27  C   UNL     1      44.015  -9.884  11.542  1.00  0.00     0.000 A 
HETATM   28  C   UNL     1      42.894  -9.942  12.371  1.00  0.00     0.001 A 
HETATM   29  C   UNL     1      41.619  -9.718  11.846  1.00  0.00     0.015 A 
ENDBRANCH  22  24
ENDBRANCH  15  22
ENDBRANCH   5   7
BRANCH   1  30
HETATM   30  O   UNL     1      43.437 -11.068   5.881  1.00  0.00    -0.349 OA
BRANCH  30  31
HETATM   31  C   UNL     1      44.209 -11.559   6.983  1.00  0.00     0.171 C 
HETATM   32  C   UNL     1      45.569 -10.885   6.997  1.00  0.00     0.034 C 
ENDBRANCH  30  31
ENDBRANCH   1  30
BRANCH   2  33
HETATM   33  O   UNL     1      41.720 -13.211   5.378  1.00  0.00    -0.339 OA
BRANCH  33  34
HETATM   34  C   UNL     1      41.419 -14.292   6.272  1.00  0.00     0.278 C 
BRANCH  34  35
HETATM   35  C   UNL     1      41.437 -15.641   5.535  1.00  0.00     0.246 C 
HETATM   36  N   UNL     1      42.638 -15.861   4.877  1.00  0.00    -0.323 N 
HETATM   37  H   UNL     1      43.371 -15.217   5.147  1.00  0.00     0.169 HD
HETATM   38  O   UNL     1      40.493 -16.419   5.634  1.00  0.00    -0.271 OA
BRANCH  36  39
HETATM   39  C   UNL     1      43.029 -17.017   4.172  1.00  0.00     0.068 A 
HETATM   40  C   UNL     1      42.759 -17.256   2.812  1.00  0.00     0.095 A 
HETATM   41  C   UNL     1      43.151 -18.479   2.247  1.00  0.00     0.039 A 
HETATM   42  C   UNL     1      43.839 -19.431   3.006  1.00  0.00     0.003 A 
HETATM   43  C   UNL     1      44.163 -19.163   4.329  1.00  0.00     0.002 A 
HETATM   44  C   UNL     1      43.770 -17.957   4.906  1.00  0.00     0.032 A 
BRANCH  40  45
HETATM   45  O   UNL     1      42.225 -16.224   2.089  1.00  0.00    -0.354 OA
HETATM   46  C   UNL     1      40.817 -16.190   1.910  1.00  0.00     0.210 C 
ENDBRANCH  40  45
ENDBRANCH  36  39
ENDBRANCH  34  35
ENDBRANCH  33  34
ENDBRANCH   2  33
TORSDOF 11
ENDMDL
MODEL 9
REMARK VINA RESULT:      -7.6      2.576      3.924
REMARK  11 active torsions:
REMARK  status: ('A' for Active; 'I' for Inactive)
REMARK    1  A    between atoms: C_2  and  O_3 
REMARK    2  A    between atoms: O_3  and  C_4 
REMARK    3  A    between atoms: C_5  and  O_6 
REMARK    4  A    between atoms: O_6  and  C_7 
REMARK    5  A    between atoms: C_7  and  C_8 
REMARK       I    between atoms: C_8  and  N_9 
REMARK    6  A    between atoms: N_9  and  C_10 
REMARK    7  A    between atoms: C_11  and  O_12 
REMARK    8  A    between atoms: C_21  and  C_22 
REMARK    9  A    between atoms: C_27  and  C_28 
REMARK   10  A    between atoms: C_34  and  C_35 
REMARK   11  A    between atoms: C_35  and  C_36 
ROOT
HETATM    1  C   UNL     1      39.882  -9.873   5.027  1.00  0.00     0.102 A 
HETATM    2  C   UNL     1      40.848 -10.172   5.994  1.00  0.00     0.102 A 
HETATM    3  C   UNL     1      42.087 -10.692   5.617  1.00  0.00     0.040 A 
HETATM    4  C   UNL     1      42.387 -10.879   4.271  1.00  0.00     0.012 A 
HETATM    5  C   UNL     1      41.445 -10.559   3.283  1.00  0.00    -0.028 A 
HETATM    6  C   UNL     1      40.204 -10.022   3.675  1.00  0.00     0.049 A 
ENDROOT
BRANCH   5   7
HETATM    7  C   UNL     1      41.773 -10.811   1.822  1.00  0.00     0.157 C 
HETATM    8  N   UNL     1      41.835  -9.538   1.127  1.00  0.00    -0.354 N 
HETATM    9  C   UNL     1      41.621  -9.411  -0.207  1.00  0.00     0.173 C 
HETATM   10  H   UNL     1      42.324  -8.771   1.573  1.00  0.00     0.163 HD
HETATM   11  S   UNL     1      42.057  -8.034  -1.024  1.00  0.00    -0.041 SA
HETATM   12  N   UNL     1      40.997 -10.447  -0.827  1.00  0.00    -0.332 N 
HETATM   13  C   UNL     1      40.535 -11.575  -0.186  1.00  0.00     0.057 C 
HETATM   14  H   UNL     1      40.756 -10.313  -1.805  1.00  0.00     0.168 HD
HETATM   15  C   UNL     1      40.869 -11.782   1.102  1.00  0.00     0.047 C 
BRANCH  13  16
HETATM   16  C   UNL     1      39.723 -12.480  -1.014  1.00  0.00    -0.009 A 
HETATM   17  C   UNL     1      38.364 -12.220  -1.227  1.00  0.00     0.014 A 
HETATM   18  C   UNL     1      37.609 -13.052  -2.055  1.00  0.00     0.001 A 
HETATM   19  C   UNL     1      38.208 -14.144  -2.679  1.00  0.00     0.000 A 
HETATM   20  C   UNL     1      39.562 -14.409  -2.475  1.00  0.00     0.001 A 
HETATM   21  C   UNL     1      40.319 -13.580  -1.646  1.00  0.00     0.014 A 
ENDBRANCH  13  16
BRANCH  15  22
HETATM   22  C   UNL     1      40.332 -12.948   1.861  1.00  0.00     0.193 C 
HETATM   23  O   UNL     1      39.162 -12.981   2.229  1.00  0.00    -0.287 OA
BRANCH  22  24
HETATM   24  C   UNL     1      41.277 -14.006   2.306  1.00  0.00     0.015 A 
HETATM   25  C   UNL     1      42.304 -14.380   1.428  1.00  0.00     0.015 A 
HETATM   26  C   UNL     1      43.187 -15.402   1.778  1.00  0.00     0.001 A 
HETATM   27  C   UNL     1      43.054 -16.045   3.007  1.00  0.00     0.000 A 
HETATM   28  C   UNL     1      42.046 -15.661   3.894  1.00  0.00     0.001 A 
HETATM   29  C   UNL     1      41.161 -14.637   3.549  1.00  0.00     0.015 A 
ENDBRANCH  22  24
ENDBRANCH  15  22
ENDBRANCH   5   7
BRANCH   1  30
HETATM   30  O   UNL     1      38.667  -9.409   5.455  1.00  0.00    -0.349 OA
BRANCH  30  31
HETATM   31  C   UNL     1      38.484  -7.990   5.374  1.00  0.00     0.171 C 
HETATM   32  C   UNL     1      37.127  -7.683   4.767  1.00  0.00     0.034 C 
ENDBRANCH  30  31
ENDBRANCH   1  30
BRANCH   2  33
HETATM   33  O   UNL     1      40.613 -10.082   7.340  1.00  0.00    -0.339 OA
BRANCH  33  34
HETATM   34  C   UNL     1      41.050  -8.836   7.903  1.00  0.00     0.278 C 
BRANCH  34  35
HETATM   35  C   UNL     1      41.771  -9.057   9.242  1.00  0.00     0.246 C 
HETATM   36  N   UNL     1      41.199  -8.323  10.271  1.00  0.00    -0.323 N 
HETATM   37  H   UNL     1      40.296  -7.932  10.035  1.00  0.00     0.169 HD
HETATM   38  O   UNL     1      42.686  -9.870   9.332  1.00  0.00    -0.271 OA
BRANCH  36  39
HETATM   39  C   UNL     1      41.552  -8.344  11.636  1.00  0.00     0.068 A 
HETATM   40  C   UNL     1      40.740  -8.854  12.666  1.00  0.00     0.095 A 
HETATM   41  C   UNL     1      41.186  -8.757  13.992  1.00  0.00     0.039 A 
HETATM   42  C   UNL     1      42.437  -8.206  14.289  1.00  0.00     0.003 A 
HETATM   43  C   UNL     1      43.264  -7.766  13.264  1.00  0.00     0.002 A 
HETATM   44  C   UNL     1      42.828  -7.846  11.943  1.00  0.00     0.032 A 
BRANCH  40  45
HETATM   45  O   UNL     1      39.603  -9.520  12.296  1.00  0.00    -0.354 OA
HETATM   46  C   UNL     1      39.372 -10.807  12.847  1.00  0.00     0.210 C 
ENDBRANCH  40  45
ENDBRANCH  36  39
ENDBRANCH  34  35
ENDBRANCH  33  34
ENDBRANCH   2  33
TORSDOF 11
ENDMDL
MODEL 10
REMARK VINA RESULT:      -7.6      2.777      9.650
REMARK  11 active torsions:
REMARK  status: ('A' for Active; 'I' for Inactive)
REMARK    1  A    between atoms: C_2  and  O_3 
REMARK    2  A    between atoms: O_3  and  C_4 
REMARK    3  A    between atoms: C_5  and  O_6 
REMARK    4  A    between atoms: O_6  and  C_7 
REMARK    5  A    between atoms: C_7  and  C_8 
REMARK       I    between atoms: C_8  and  N_9 
REMARK    6  A    between atoms: N_9  and  C_10 
REMARK    7  A    between atoms: C_11  and  O_12 
REMARK    8  A    between atoms: C_21  and  C_22 
REMARK    9  A    between atoms: C_27  and  C_28 
REMARK   10  A    between atoms: C_34  and  C_35 
REMARK   11  A    between atoms: C_35  and  C_36 
ROOT
HETATM    1  C   UNL     1      39.823  -9.360   5.941  1.00  0.00     0.102 A 
HETATM    2  C   UNL     1      41.008  -8.945   5.325  1.00  0.00     0.102 A 
HETATM    3  C   UNL     1      41.757  -7.900   5.867  1.00  0.00     0.040 A 
HETATM    4  C   UNL     1      41.352  -7.289   7.050  1.00  0.00     0.012 A 
HETATM    5  C   UNL     1      40.184  -7.709   7.702  1.00  0.00    -0.028 A 
HETATM    6  C   UNL     1      39.444  -8.773   7.152  1.00  0.00     0.049 A 
ENDROOT
BRANCH   5   7
HETATM    7  C   UNL     1      39.733  -7.003   8.968  1.00  0.00     0.157 C 
HETATM    8  N   UNL     1      39.889  -5.571   8.789  1.00  0.00    -0.354 N 
HETATM    9  C   UNL     1      40.051  -4.708   9.822  1.00  0.00     0.173 C 
HETATM   10  H   UNL     1      39.587  -5.161   7.912  1.00  0.00     0.163 HD
HETATM   11  S   UNL     1      39.855  -3.072   9.622  1.00  0.00    -0.041 SA
HETATM   12  N   UNL     1      40.421  -5.245  11.015  1.00  0.00    -0.332 N 
HETATM   13  C   UNL     1      40.682  -6.582  11.220  1.00  0.00     0.057 C 
HETATM   14  H   UNL     1      40.630  -4.590  11.764  1.00  0.00     0.168 HD
HETATM   15  C   UNL     1      40.385  -7.465  10.248  1.00  0.00     0.047 C 
BRANCH  13  16
HETATM   16  C   UNL     1      41.251  -6.916  12.535  1.00  0.00    -0.009 A 
HETATM   17  C   UNL     1      42.621  -6.759  12.777  1.00  0.00     0.014 A 
HETATM   18  C   UNL     1      43.148  -7.029  14.040  1.00  0.00     0.001 A 
HETATM   19  C   UNL     1      42.310  -7.451  15.070  1.00  0.00     0.000 A 
HETATM   20  C   UNL     1      40.944  -7.607  14.838  1.00  0.00     0.001 A 
HETATM   21  C   UNL     1      40.414  -7.341  13.575  1.00  0.00     0.014 A 
ENDBRANCH  13  16
BRANCH  15  22
HETATM   22  C   UNL     1      40.718  -8.912  10.393  1.00  0.00     0.193 C 
HETATM   23  O   UNL     1      39.843  -9.747  10.595  1.00  0.00    -0.287 OA
BRANCH  22  24
HETATM   24  C   UNL     1      42.149  -9.313  10.446  1.00  0.00     0.015 A 
HETATM   25  C   UNL     1      42.535 -10.237  11.426  1.00  0.00     0.015 A 
HETATM   26  C   UNL     1      43.875 -10.608  11.550  1.00  0.00     0.001 A 
HETATM   27  C   UNL     1      44.829 -10.066  10.691  1.00  0.00     0.000 A 
HETATM   28  C   UNL     1      44.445  -9.162   9.700  1.00  0.00     0.001 A 
HETATM   29  C   UNL     1      43.105  -8.788   9.569  1.00  0.00     0.015 A 
ENDBRANCH  22  24
ENDBRANCH  15  22
ENDBRANCH   5   7
BRANCH   1  30
HETATM   30  O   UNL     1      39.102 -10.358   5.341  1.00  0.00    -0.349 OA
BRANCH  30  31
HETATM   31  C   UNL     1      38.822 -11.498   6.163  1.00  0.00     0.171 C 
HETATM   32  C   UNL     1      39.425 -12.742   5.536  1.00  0.00     0.034 C 
ENDBRANCH  30  31
ENDBRANCH   1  30
BRANCH   2  33
HETATM   33  O   UNL     1      41.443  -9.443   4.125  1.00  0.00    -0.339 OA
BRANCH  33  34
HETATM   34  C   UNL     1      42.517 -10.384   4.267  1.00  0.00     0.278 C 
BRANCH  34  35
HETATM   35  C   UNL     1      42.205 -11.694   3.524  1.00  0.00     0.246 C 
HETATM   36  N   UNL     1      43.076 -12.714   3.876  1.00  0.00    -0.323 N 
HETATM   37  H   UNL     1      43.632 -12.506   4.696  1.00  0.00     0.169 HD
HETATM   38  O   UNL     1      41.229 -11.775   2.785  1.00  0.00    -0.271 OA
BRANCH  36  39
HETATM   39  C   UNL     1      43.036 -14.058   3.453  1.00  0.00     0.068 A 
HETATM   40  C   UNL     1      42.704 -15.148   4.277  1.00  0.00     0.095 A 
HETATM   41  C   UNL     1      42.762 -16.445   3.744  1.00  0.00     0.039 A 
HETATM   42  C   UNL     1      43.099 -16.653   2.403  1.00  0.00     0.003 A 
HETATM   43  C   UNL     1      43.360 -15.570   1.575  1.00  0.00     0.002 A 
HETATM   44  C   UNL     1      43.317 -14.277   2.095  1.00  0.00     0.032 A 
BRANCH  40  45
HETATM   45  O   UNL     1      42.232 -14.865   5.530  1.00  0.00    -0.354 OA
HETATM   46  C   UNL     1      41.399 -15.823   6.165  1.00  0.00     0.210 C 
ENDBRANCH  40  45
ENDBRANCH  36  39
ENDBRANCH  34  35
ENDBRANCH  33  34
ENDBRANCH   2  33
TORSDOF 11
ENDMDL
