MODEL 1
REMARK VINA RESULT:     -10.3      0.000      0.000
REMARK  7 active torsions:
REMARK  status: ('A' for Active; 'I' for Inactive)
REMARK    1  A    between atoms: C_4  and  C_5 
REMARK    2  A    between atoms: C_5  and  C_6 
REMARK    3  A    between atoms: C_6  and  N_7 
REMARK       I    between atoms: N_7  and  C_8 
REMARK    4  A    between atoms: C_8  and  C_9 
REMARK    5  A    between atoms: C_10  and  N_11 
REMARK    6  A    between atoms: N_12  and  N_13 
REMARK    7  A    between atoms: C_14  and  C_15 
ROOT
HETATM    1  C   UNL     1      40.296 -14.319   4.785  1.00  0.00     0.110 A 
HETATM    2  C   UNL     1      40.279 -13.101   5.454  1.00  0.00     0.143 A 
HETATM    3  N   UNL     1      39.908 -12.106   4.545  1.00  0.00    -0.197 N 
HETATM    4  C   UNL     1      39.842 -12.676   3.288  1.00  0.00     0.183 A 
HETATM    5  C   UNL     1      40.057 -14.044   3.419  1.00  0.00     0.125 A 
HETATM    6  N   UNL     1      40.075 -14.861   2.334  1.00  0.00    -0.242 NA
HETATM    7  C   UNL     1      39.897 -14.236   1.156  1.00  0.00     0.086 A 
HETATM    8  C   UNL     1      39.663 -12.839   1.054  1.00  0.00     0.088 A 
HETATM    9  N   UNL     1      39.613 -12.030   2.121  1.00  0.00    -0.225 NA
HETATM   10  C   UNL     1      39.958 -14.988  -0.011  1.00  0.00     0.034 A 
HETATM   11  C   UNL     1      39.798 -14.405  -1.270  1.00  0.00     0.002 A 
HETATM   12  C   UNL     1      39.559 -13.041  -1.365  1.00  0.00     0.002 A 
HETATM   13  C   UNL     1      39.492 -12.273  -0.203  1.00  0.00     0.034 A 
ENDROOT
BRANCH   1  14
HETATM   14  C   UNL     1      40.575 -15.591   5.422  1.00  0.00     0.257 C 
HETATM   15  N   UNL     1      41.645 -16.255   4.843  1.00  0.00    -0.356 N 
HETATM   16  H   UNL     1      42.023 -15.766   4.038  1.00  0.00     0.162 HD
HETATM   17  O   UNL     1      40.004 -15.953   6.442  1.00  0.00    -0.267 OA
BRANCH  15  18
HETATM   18  C   UNL     1      42.667 -16.877   5.662  1.00  0.00     0.127 C 
BRANCH  18  19
HETATM   19  C   UNL     1      44.039 -17.121   5.034  1.00  0.00     0.058 C 
BRANCH  19  20
HETATM   20  C   UNL     1      43.992 -18.422   4.260  1.00  0.00    -0.057 A 
HETATM   21  C   UNL     1      43.694 -18.407   2.888  1.00  0.00     0.007 A 
HETATM   22  C   UNL     1      43.538 -19.600   2.183  1.00  0.00     0.001 A 
HETATM   23  C   UNL     1      43.688 -20.820   2.839  1.00  0.00     0.000 A 
HETATM   24  C   UNL     1      43.998 -20.845   4.198  1.00  0.00     0.001 A 
HETATM   25  C   UNL     1      44.148 -19.653   4.908  1.00  0.00     0.007 A 
ENDBRANCH  19  20
ENDBRANCH  18  19
ENDBRANCH  15  18
ENDBRANCH   1  14
BRANCH   2  26
HETATM   26  N   UNL     1      40.573 -12.831   6.758  1.00  0.00    -0.383 N 
HETATM   27  H   UNL     1      41.353 -13.320   7.194  1.00  0.00     0.157 HD
HETATM   28  H   UNL     1      39.813 -12.702   7.422  1.00  0.00     0.157 HD
ENDBRANCH   2  26
BRANCH   3  29
HETATM   29  N   UNL     1      39.846 -10.760   4.789  1.00  0.00    -0.176 NA
HETATM   30  C   UNL     1      40.952 -10.083   4.816  1.00  0.00     0.153 C 
BRANCH  30  31
HETATM   31  C   UNL     1      42.307 -10.593   4.767  1.00  0.00     0.011 A 
HETATM   32  C   UNL     1      43.213 -10.720   5.870  1.00  0.00     0.004 A 
HETATM   33  C   UNL     1      44.391 -11.283   5.379  1.00  0.00     0.043 A 
HETATM   34  C   UNL     1      43.149 -10.377   7.237  1.00  0.00     0.014 A 
HETATM   35  C   UNL     1      45.505 -11.536   6.188  1.00  0.00     0.030 A 
HETATM   36  N   UNL     1      44.202 -11.507   4.033  1.00  0.00    -0.364 N 
HETATM   37  C   UNL     1      45.419 -11.181   7.538  1.00  0.00     0.002 A 
HETATM   38  C   UNL     1      44.261 -10.607   8.057  1.00  0.00     0.001 A 
HETATM   39  H   UNL     1      44.892 -11.919   3.418  1.00  0.00     0.165 HD
HETATM   40  C   UNL     1      42.954 -11.090   3.653  1.00  0.00     0.102 A 
ENDBRANCH  30  31
ENDBRANCH   3  29
TORSDOF 7
ENDMDL
MODEL 2
REMARK VINA RESULT:     -10.2      2.201      3.156
REMARK  7 active torsions:
REMARK  status: ('A' for Active; 'I' for Inactive)
REMARK    1  A    between atoms: C_4  and  C_5 
REMARK    2  A    between atoms: C_5  and  C_6 
REMARK    3  A    between atoms: C_6  and  N_7 
REMARK       I    between atoms: N_7  and  C_8 
REMARK    4  A    between atoms: C_8  and  C_9 
REMARK    5  A    between atoms: C_10  and  N_11 
REMARK    6  A    between atoms: N_12  and  N_13 
REMARK    7  A    between atoms: C_14  and  C_15 
ROOT
HETATM    1  C   UNL     1      42.375 -14.083   6.032  1.00  0.00     0.110 A 
HETATM    2  C   UNL     1      42.848 -12.796   6.260  1.00  0.00     0.143 A 
HETATM    3  N   UNL     1      42.439 -11.982   5.201  1.00  0.00    -0.197 N 
HETATM    4  C   UNL     1      41.846 -12.787   4.246  1.00  0.00     0.183 A 
HETATM    5  C   UNL     1      41.778 -14.081   4.750  1.00  0.00     0.125 A 
HETATM    6  N   UNL     1      41.263 -15.099   4.011  1.00  0.00    -0.242 NA
HETATM    7  C   UNL     1      40.860 -14.749   2.776  1.00  0.00     0.086 A 
HETATM    8  C   UNL     1      40.927 -13.414   2.294  1.00  0.00     0.088 A 
HETATM    9  N   UNL     1      41.405 -12.399   3.026  1.00  0.00    -0.225 NA
HETATM   10  C   UNL     1      40.373 -15.739   1.931  1.00  0.00     0.034 A 
HETATM   11  C   UNL     1      39.952 -15.452   0.630  1.00  0.00     0.002 A 
HETATM   12  C   UNL     1      40.007 -14.145   0.167  1.00  0.00     0.002 A 
HETATM   13  C   UNL     1      40.492 -13.141   1.004  1.00  0.00     0.034 A 
ENDROOT
BRANCH   1  14
HETATM   14  C   UNL     1      42.551 -15.188   6.952  1.00  0.00     0.257 C 
HETATM   15  N   UNL     1      42.217 -16.411   6.390  1.00  0.00    -0.356 N 
HETATM   16  H   UNL     1      41.857 -16.323   5.445  1.00  0.00     0.162 HD
HETATM   17  O   UNL     1      43.069 -15.049   8.052  1.00  0.00    -0.267 OA
BRANCH  15  18
HETATM   18  C   UNL     1      43.068 -17.570   6.569  1.00  0.00     0.127 C 
BRANCH  18  19
HETATM   19  C   UNL     1      44.278 -17.721   5.647  1.00  0.00     0.058 C 
BRANCH  19  20
HETATM   20  C   UNL     1      43.879 -18.574   4.461  1.00  0.00    -0.057 A 
HETATM   21  C   UNL     1      44.095 -19.961   4.495  1.00  0.00     0.007 A 
HETATM   22  C   UNL     1      43.835 -20.747   3.373  1.00  0.00     0.001 A 
HETATM   23  C   UNL     1      43.349 -20.156   2.208  1.00  0.00     0.000 A 
HETATM   24  C   UNL     1      43.118 -18.781   2.169  1.00  0.00     0.001 A 
HETATM   25  C   UNL     1      43.384 -17.992   3.289  1.00  0.00     0.007 A 
ENDBRANCH  19  20
ENDBRANCH  18  19
ENDBRANCH  15  18
ENDBRANCH   1  14
BRANCH   2  26
HETATM   26  N   UNL     1      43.598 -12.327   7.298  1.00  0.00    -0.383 N 
HETATM   27  H   UNL     1      43.315 -11.460   7.753  1.00  0.00     0.157 HD
HETATM   28  H   UNL     1      44.612 -12.393   7.249  1.00  0.00     0.157 HD
ENDBRANCH   2  26
BRANCH   3  29
HETATM   29  N   UNL     1      42.762 -10.665   5.010  1.00  0.00    -0.176 NA
HETATM   30  C   UNL     1      42.085  -9.762   5.652  1.00  0.00     0.153 C 
BRANCH  30  31
HETATM   31  C   UNL     1      40.897  -9.949   6.459  1.00  0.00     0.011 A 
HETATM   32  C   UNL     1      40.769  -9.694   7.863  1.00  0.00     0.004 A 
HETATM   33  C   UNL     1      39.451  -9.979   8.220  1.00  0.00     0.043 A 
HETATM   34  C   UNL     1      41.664  -9.277   8.871  1.00  0.00     0.014 A 
HETATM   35  C   UNL     1      38.976  -9.854   9.530  1.00  0.00     0.030 A 
HETATM   36  N   UNL     1      38.797 -10.374   7.073  1.00  0.00    -0.364 N 
HETATM   37  C   UNL     1      39.884  -9.445  10.511  1.00  0.00     0.002 A 
HETATM   38  C   UNL     1      41.210  -9.162  10.190  1.00  0.00     0.001 A 
HETATM   39  H   UNL     1      37.821 -10.635   7.031  1.00  0.00     0.165 HD
HETATM   40  C   UNL     1      39.660 -10.365   6.009  1.00  0.00     0.102 A 
ENDBRANCH  30  31
ENDBRANCH   3  29
TORSDOF 7
ENDMDL
MODEL 3
REMARK VINA RESULT:     -10.0      2.313      7.242
REMARK  7 active torsions:
REMARK  status: ('A' for Active; 'I' for Inactive)
REMARK    1  A    between atoms: C_4  and  C_5 
REMARK    2  A    between atoms: C_5  and  C_6 
REMARK    3  A    between atoms: C_6  and  N_7 
REMARK       I    between atoms: N_7  and  C_8 
REMARK    4  A    between atoms: C_8  and  C_9 
REMARK    5  A    between atoms: C_10  and  N_11 
REMARK    6  A    between atoms: N_12  and  N_13 
REMARK    7  A    between atoms: C_14  and  C_15 
ROOT
HETATM    1  C   UNL     1      43.361 -12.138   5.229  1.00  0.00     0.110 A 
HETATM    2  C   UNL     1      42.805 -12.913   6.240  1.00  0.00     0.143 A 
HETATM    3  N   UNL     1      41.680 -13.565   5.728  1.00  0.00    -0.197 N 
HETATM    4  C   UNL     1      41.450 -13.082   4.453  1.00  0.00     0.183 A 
HETATM    5  C   UNL     1      42.487 -12.219   4.120  1.00  0.00     0.125 A 
HETATM    6  N   UNL     1      42.509 -11.571   2.926  1.00  0.00    -0.242 NA
HETATM    7  C   UNL     1      41.452 -11.819   2.132  1.00  0.00     0.086 A 
HETATM    8  C   UNL     1      40.414 -12.719   2.492  1.00  0.00     0.088 A 
HETATM    9  N   UNL     1      40.399 -13.386   3.654  1.00  0.00    -0.225 NA
HETATM   10  C   UNL     1      41.364 -11.153   0.915  1.00  0.00     0.034 A 
HETATM   11  C   UNL     1      40.287 -11.349   0.047  1.00  0.00     0.002 A 
HETATM   12  C   UNL     1      39.281 -12.238   0.397  1.00  0.00     0.002 A 
HETATM   13  C   UNL     1      39.356 -12.915   1.614  1.00  0.00     0.034 A 
ENDROOT
BRANCH   1  14
HETATM   14  C   UNL     1      44.580 -11.367   5.373  1.00  0.00     0.257 C 
HETATM   15  N   UNL     1      44.680 -10.752   6.612  1.00  0.00    -0.356 N 
HETATM   16  H   UNL     1      43.861 -10.902   7.192  1.00  0.00     0.162 HD
HETATM   17  O   UNL     1      45.470 -11.385   4.533  1.00  0.00    -0.267 OA
BRANCH  15  18
HETATM   18  C   UNL     1      45.921 -10.783   7.359  1.00  0.00     0.127 C 
BRANCH  18  19
HETATM   19  C   UNL     1      46.418  -9.476   7.977  1.00  0.00     0.058 C 
BRANCH  19  20
HETATM   20  C   UNL     1      45.402  -9.004   8.995  1.00  0.00    -0.057 A 
HETATM   21  C   UNL     1      45.250  -9.702  10.204  1.00  0.00     0.007 A 
HETATM   22  C   UNL     1      44.245  -9.349  11.105  1.00  0.00     0.001 A 
HETATM   23  C   UNL     1      43.388  -8.290  10.811  1.00  0.00     0.000 A 
HETATM   24  C   UNL     1      43.540  -7.582   9.620  1.00  0.00     0.001 A 
HETATM   25  C   UNL     1      44.540  -7.938   8.713  1.00  0.00     0.007 A 
ENDBRANCH  19  20
ENDBRANCH  18  19
ENDBRANCH  15  18
ENDBRANCH   1  14
BRANCH   2  26
HETATM   26  N   UNL     1      43.211 -13.058   7.534  1.00  0.00    -0.383 N 
HETATM   27  H   UNL     1      43.634 -12.260   8.005  1.00  0.00     0.157 HD
HETATM   28  H   UNL     1      43.660 -13.925   7.820  1.00  0.00     0.157 HD
ENDBRANCH   2  26
BRANCH   3  29
HETATM   29  N   UNL     1      40.811 -14.362   6.422  1.00  0.00    -0.176 NA
HETATM   30  C   UNL     1      41.121 -15.609   6.600  1.00  0.00     0.153 C 
BRANCH  30  31
HETATM   31  C   UNL     1      42.230 -16.340   6.020  1.00  0.00     0.011 A 
HETATM   32  C   UNL     1      42.368 -16.737   4.650  1.00  0.00     0.004 A 
HETATM   33  C   UNL     1      43.596 -17.387   4.527  1.00  0.00     0.043 A 
HETATM   34  C   UNL     1      41.546 -16.631   3.509  1.00  0.00     0.014 A 
HETATM   35  C   UNL     1      44.052 -17.923   3.318  1.00  0.00     0.030 A 
HETATM   36  N   UNL     1      44.190 -17.370   5.770  1.00  0.00    -0.364 N 
HETATM   37  C   UNL     1      43.216 -17.810   2.203  1.00  0.00     0.002 A 
HETATM   38  C   UNL     1      41.979 -17.176   2.295  1.00  0.00     0.001 A 
HETATM   39  H   UNL     1      45.098 -17.764   5.977  1.00  0.00     0.165 HD
HETATM   40  C   UNL     1      43.374 -16.748   6.677  1.00  0.00     0.102 A 
ENDBRANCH  30  31
ENDBRANCH   3  29
TORSDOF 7
ENDMDL
MODEL 4
REMARK VINA RESULT:      -9.9      2.021      5.795
REMARK  7 active torsions:
REMARK  status: ('A' for Active; 'I' for Inactive)
REMARK    1  A    between atoms: C_4  and  C_5 
REMARK    2  A    between atoms: C_5  and  C_6 
REMARK    3  A    between atoms: C_6  and  N_7 
REMARK       I    between atoms: N_7  and  C_8 
REMARK    4  A    between atoms: C_8  and  C_9 
REMARK    5  A    between atoms: C_10  and  N_11 
REMARK    6  A    between atoms: N_12  and  N_13 
REMARK    7  A    between atoms: C_14  and  C_15 
ROOT
HETATM    1  C   UNL     1      42.232 -13.173   5.377  1.00  0.00     0.110 A 
HETATM    2  C   UNL     1      40.880 -12.854   5.442  1.00  0.00     0.143 A 
HETATM    3  N   UNL     1      40.756 -11.580   6.005  1.00  0.00    -0.197 N 
HETATM    4  C   UNL     1      42.008 -11.173   6.424  1.00  0.00     0.183 A 
HETATM    5  C   UNL     1      42.933 -12.132   6.027  1.00  0.00     0.125 A 
HETATM    6  N   UNL     1      44.252 -12.007   6.330  1.00  0.00    -0.242 NA
HETATM    7  C   UNL     1      44.562 -10.914   7.051  1.00  0.00     0.086 A 
HETATM    8  C   UNL     1      43.597  -9.942   7.429  1.00  0.00     0.088 A 
HETATM    9  N   UNL     1      42.300 -10.042   7.108  1.00  0.00    -0.225 NA
HETATM   10  C   UNL     1      45.880 -10.736   7.455  1.00  0.00     0.034 A 
HETATM   11  C   UNL     1      46.272  -9.634   8.218  1.00  0.00     0.002 A 
HETATM   12  C   UNL     1      45.328  -8.681   8.577  1.00  0.00     0.002 A 
HETATM   13  C   UNL     1      44.002  -8.844   8.177  1.00  0.00     0.034 A 
ENDROOT
BRANCH   1  14
HETATM   14  C   UNL     1      42.751 -14.393   4.791  1.00  0.00     0.257 C 
HETATM   15  N   UNL     1      43.434 -15.177   5.708  1.00  0.00    -0.356 N 
HETATM   16  H   UNL     1      43.501 -14.744   6.623  1.00  0.00     0.162 HD
HETATM   17  O   UNL     1      42.485 -14.736   3.647  1.00  0.00    -0.267 OA
BRANCH  15  18
HETATM   18  C   UNL     1      43.216 -16.609   5.770  1.00  0.00     0.127 C 
BRANCH  18  19
HETATM   19  C   UNL     1      44.395 -17.528   5.453  1.00  0.00     0.058 C 
BRANCH  19  20
HETATM   20  C   UNL     1      43.968 -18.511   4.383  1.00  0.00    -0.057 A 
HETATM   21  C   UNL     1      44.160 -19.888   4.584  1.00  0.00     0.007 A 
HETATM   22  C   UNL     1      43.875 -20.800   3.568  1.00  0.00     0.001 A 
HETATM   23  C   UNL     1      43.387 -20.346   2.344  1.00  0.00     0.000 A 
HETATM   24  C   UNL     1      43.179 -18.982   2.140  1.00  0.00     0.001 A 
HETATM   25  C   UNL     1      43.471 -18.067   3.153  1.00  0.00     0.007 A 
ENDBRANCH  19  20
ENDBRANCH  18  19
ENDBRANCH  15  18
ENDBRANCH   1  14
BRANCH   2  26
HETATM   26  N   UNL     1      39.802 -13.597   5.063  1.00  0.00    -0.383 N 
HETATM   27  H   UNL     1      39.165 -13.213   4.366  1.00  0.00     0.157 HD
HETATM   28  H   UNL     1      39.290 -14.126   5.765  1.00  0.00     0.157 HD
ENDBRANCH   2  26
BRANCH   3  29
HETATM   29  N   UNL     1      39.589 -10.933   6.309  1.00  0.00    -0.176 NA
HETATM   30  C   UNL     1      39.087 -10.115   5.436  1.00  0.00     0.153 C 
BRANCH  30  31
HETATM   31  C   UNL     1      39.686  -9.662   4.197  1.00  0.00     0.011 A 
HETATM   32  C   UNL     1      39.453 -10.199   2.889  1.00  0.00     0.004 A 
HETATM   33  C   UNL     1      40.207  -9.445   1.989  1.00  0.00     0.043 A 
HETATM   34  C   UNL     1      38.694 -11.279   2.391  1.00  0.00     0.014 A 
HETATM   35  C   UNL     1      40.230  -9.706   0.614  1.00  0.00     0.030 A 
HETATM   36  N   UNL     1      40.859  -8.475   2.719  1.00  0.00    -0.364 N 
HETATM   37  C   UNL     1      39.474 -10.785   0.148  1.00  0.00     0.002 A 
HETATM   38  C   UNL     1      38.718 -11.564   1.021  1.00  0.00     0.001 A 
HETATM   39  H   UNL     1      41.473  -7.775   2.324  1.00  0.00     0.165 HD
HETATM   40  C   UNL     1      40.557  -8.601   4.049  1.00  0.00     0.102 A 
ENDBRANCH  30  31
ENDBRANCH   3  29
TORSDOF 7
ENDMDL
MODEL 5
REMARK VINA RESULT:      -9.8      3.076      6.114
REMARK  7 active torsions:
REMARK  status: ('A' for Active; 'I' for Inactive)
REMARK    1  A    between atoms: C_4  and  C_5 
REMARK    2  A    between atoms: C_5  and  C_6 
REMARK    3  A    between atoms: C_6  and  N_7 
REMARK       I    between atoms: N_7  and  C_8 
REMARK    4  A    between atoms: C_8  and  C_9 
REMARK    5  A    between atoms: C_10  and  N_11 
REMARK    6  A    between atoms: N_12  and  N_13 
REMARK    7  A    between atoms: C_14  and  C_15 
ROOT
HETATM    1  C   UNL     1      40.624 -11.377   6.220  1.00  0.00     0.110 A 
HETATM    2  C   UNL     1      39.671 -10.390   6.443  1.00  0.00     0.143 A 
HETATM    3  N   UNL     1      40.326  -9.236   6.880  1.00  0.00    -0.197 N 
HETATM    4  C   UNL     1      41.659  -9.547   7.073  1.00  0.00     0.183 A 
HETATM    5  C   UNL     1      41.866 -10.855   6.651  1.00  0.00     0.125 A 
HETATM    6  N   UNL     1      43.087 -11.443   6.750  1.00  0.00    -0.242 NA
HETATM    7  C   UNL     1      44.040 -10.669   7.301  1.00  0.00     0.086 A 
HETATM    8  C   UNL     1      43.803  -9.329   7.708  1.00  0.00     0.088 A 
HETATM    9  N   UNL     1      42.610  -8.732   7.586  1.00  0.00    -0.225 NA
HETATM   10  C   UNL     1      45.306 -11.210   7.493  1.00  0.00     0.034 A 
HETATM   11  C   UNL     1      46.340 -10.471   8.073  1.00  0.00     0.002 A 
HETATM   12  C   UNL     1      46.108  -9.158   8.460  1.00  0.00     0.002 A 
HETATM   13  C   UNL     1      44.843  -8.601   8.271  1.00  0.00     0.034 A 
ENDROOT
BRANCH   1  14
HETATM   14  C   UNL     1      40.323 -12.695   5.698  1.00  0.00     0.257 C 
HETATM   15  N   UNL     1      41.236 -13.113   4.742  1.00  0.00    -0.356 N 
HETATM   16  H   UNL     1      41.933 -12.407   4.529  1.00  0.00     0.162 HD
HETATM   17  O   UNL     1      39.436 -13.397   6.164  1.00  0.00    -0.267 OA
BRANCH  15  18
HETATM   18  C   UNL     1      41.776 -14.457   4.766  1.00  0.00     0.127 C 
BRANCH  18  19
HETATM   19  C   UNL     1      41.393 -15.405   3.629  1.00  0.00     0.058 C 
BRANCH  19  20
HETATM   20  C   UNL     1      42.410 -16.524   3.568  1.00  0.00    -0.057 A 
HETATM   21  C   UNL     1      42.404 -17.415   2.483  1.00  0.00     0.007 A 
HETATM   22  C   UNL     1      43.260 -18.515   2.463  1.00  0.00     0.001 A 
HETATM   23  C   UNL     1      44.137 -18.733   3.525  1.00  0.00     0.000 A 
HETATM   24  C   UNL     1      44.161 -17.846   4.601  1.00  0.00     0.001 A 
HETATM   25  C   UNL     1      43.300 -16.748   4.625  1.00  0.00     0.007 A 
ENDBRANCH  19  20
ENDBRANCH  18  19
ENDBRANCH  15  18
ENDBRANCH   1  14
BRANCH   2  26
HETATM   26  N   UNL     1      38.316 -10.456   6.300  1.00  0.00    -0.383 N 
HETATM   27  H   UNL     1      37.927 -11.129   5.642  1.00  0.00     0.157 HD
HETATM   28  H   UNL     1      37.774  -9.595   6.297  1.00  0.00     0.157 HD
ENDBRANCH   2  26
BRANCH   3  29
HETATM   29  N   UNL     1      39.739  -8.065   7.278  1.00  0.00    -0.176 NA
HETATM   30  C   UNL     1      39.555  -7.863   8.546  1.00  0.00     0.153 C 
BRANCH  30  31
HETATM   31  C   UNL     1      39.759  -8.798   9.633  1.00  0.00     0.011 A 
HETATM   32  C   UNL     1      40.792  -8.744  10.624  1.00  0.00     0.004 A 
HETATM   33  C   UNL     1      40.593  -9.818  11.492  1.00  0.00     0.043 A 
HETATM   34  C   UNL     1      41.899  -7.898  10.844  1.00  0.00     0.014 A 
HETATM   35  C   UNL     1      41.436 -10.081  12.578  1.00  0.00     0.030 A 
HETATM   36  N   UNL     1      39.471 -10.489  11.056  1.00  0.00    -0.364 N 
HETATM   37  C   UNL     1      42.528  -9.231  12.771  1.00  0.00     0.002 A 
HETATM   38  C   UNL     1      42.761  -8.156  11.917  1.00  0.00     0.001 A 
HETATM   39  H   UNL     1      39.084 -11.309  11.504  1.00  0.00     0.165 HD
HETATM   40  C   UNL     1      38.965  -9.887   9.935  1.00  0.00     0.102 A 
ENDBRANCH  30  31
ENDBRANCH   3  29
TORSDOF 7
ENDMDL
MODEL 6
REMARK VINA RESULT:      -9.8      1.765      5.538
REMARK  7 active torsions:
REMARK  status: ('A' for Active; 'I' for Inactive)
REMARK    1  A    between atoms: C_4  and  C_5 
REMARK    2  A    between atoms: C_5  and  C_6 
REMARK    3  A    between atoms: C_6  and  N_7 
REMARK       I    between atoms: N_7  and  C_8 
REMARK    4  A    between atoms: C_8  and  C_9 
REMARK    5  A    between atoms: C_10  and  N_11 
REMARK    6  A    between atoms: N_12  and  N_13 
REMARK    7  A    between atoms: C_14  and  C_15 
ROOT
HETATM    1  C   UNL     1      40.886 -13.887   3.814  1.00  0.00     0.110 A 
HETATM    2  C   UNL     1      39.724 -13.234   3.422  1.00  0.00     0.143 A 
HETATM    3  N   UNL     1      39.771 -11.923   3.904  1.00  0.00    -0.197 N 
HETATM    4  C   UNL     1      40.882 -11.805   4.717  1.00  0.00     0.183 A 
HETATM    5  C   UNL     1      41.593 -12.998   4.657  1.00  0.00     0.125 A 
HETATM    6  N   UNL     1      42.727 -13.180   5.385  1.00  0.00    -0.242 NA
HETATM    7  C   UNL     1      43.069 -12.138   6.163  1.00  0.00     0.086 A 
HETATM    8  C   UNL     1      42.331 -10.924   6.191  1.00  0.00     0.088 A 
HETATM    9  N   UNL     1      41.230 -10.724   5.454  1.00  0.00    -0.225 NA
HETATM   10  C   UNL     1      44.183 -12.259   6.984  1.00  0.00     0.034 A 
HETATM   11  C   UNL     1      44.589 -11.224   7.830  1.00  0.00     0.002 A 
HETATM   12  C   UNL     1      43.872 -10.035   7.846  1.00  0.00     0.002 A 
HETATM   13  C   UNL     1      42.753  -9.897   7.026  1.00  0.00     0.034 A 
ENDROOT
BRANCH   1  14
HETATM   14  C   UNL     1      41.219 -15.247   3.442  1.00  0.00     0.257 C 
HETATM   15  N   UNL     1      42.173 -15.309   2.438  1.00  0.00    -0.356 N 
HETATM   16  H   UNL     1      42.442 -14.393   2.094  1.00  0.00     0.162 HD
HETATM   17  O   UNL     1      40.794 -16.217   4.056  1.00  0.00    -0.267 OA
BRANCH  15  18
HETATM   18  C   UNL     1      43.285 -16.234   2.524  1.00  0.00     0.127 C 
BRANCH  18  19
HETATM   19  C   UNL     1      43.105 -17.630   1.926  1.00  0.00     0.058 C 
BRANCH  19  20
HETATM   20  C   UNL     1      43.525 -18.655   2.958  1.00  0.00    -0.057 A 
HETATM   21  C   UNL     1      43.598 -20.012   2.603  1.00  0.00     0.007 A 
HETATM   22  C   UNL     1      43.877 -20.983   3.565  1.00  0.00     0.001 A 
HETATM   23  C   UNL     1      44.093 -20.606   4.889  1.00  0.00     0.000 A 
HETATM   24  C   UNL     1      44.037 -19.260   5.249  1.00  0.00     0.001 A 
HETATM   25  C   UNL     1      43.752 -18.288   4.289  1.00  0.00     0.007 A 
ENDBRANCH  19  20
ENDBRANCH  18  19
ENDBRANCH  15  18
ENDBRANCH   1  14
BRANCH   2  26
HETATM   26  N   UNL     1      38.667 -13.715   2.706  1.00  0.00    -0.383 N 
HETATM   27  H   UNL     1      38.513 -13.359   1.764  1.00  0.00     0.157 HD
HETATM   28  H   UNL     1      37.781 -13.880   3.177  1.00  0.00     0.157 HD
ENDBRANCH   2  26
BRANCH   3  29
HETATM   29  N   UNL     1      38.786 -10.978   3.796  1.00  0.00    -0.176 NA
HETATM   30  C   UNL     1      38.801 -10.182   2.772  1.00  0.00     0.153 C 
BRANCH  30  31
HETATM   31  C   UNL     1      39.832 -10.051   1.763  1.00  0.00     0.011 A 
HETATM   32  C   UNL     1      39.851 -10.679   0.475  1.00  0.00     0.004 A 
HETATM   33  C   UNL     1      41.008 -10.253  -0.178  1.00  0.00     0.043 A 
HETATM   34  C   UNL     1      39.006 -11.597  -0.183  1.00  0.00     0.014 A 
HETATM   35  C   UNL     1      41.356 -10.686  -1.463  1.00  0.00     0.030 A 
HETATM   36  N   UNL     1      41.657  -9.385   0.672  1.00  0.00    -0.364 N 
HETATM   37  C   UNL     1      40.505 -11.600  -2.091  1.00  0.00     0.002 A 
HETATM   38  C   UNL     1      39.348 -12.053  -1.462  1.00  0.00     0.001 A 
HETATM   39  H   UNL     1      42.525  -8.912   0.455  1.00  0.00     0.165 HD
HETATM   40  C   UNL     1      40.961  -9.261   1.845  1.00  0.00     0.102 A 
ENDBRANCH  30  31
ENDBRANCH   3  29
TORSDOF 7
ENDMDL
MODEL 7
REMARK VINA RESULT:      -9.7      2.316      5.705
REMARK  7 active torsions:
REMARK  status: ('A' for Active; 'I' for Inactive)
REMARK    1  A    between atoms: C_4  and  C_5 
REMARK    2  A    between atoms: C_5  and  C_6 
REMARK    3  A    between atoms: C_6  and  N_7 
REMARK       I    between atoms: N_7  and  C_8 
REMARK    4  A    between atoms: C_8  and  C_9 
REMARK    5  A    between atoms: C_10  and  N_11 
REMARK    6  A    between atoms: N_12  and  N_13 
REMARK    7  A    between atoms: C_14  and  C_15 
ROOT
HETATM    1  C   UNL     1      41.791 -12.854   3.622  1.00  0.00     0.110 A 
HETATM    2  C   UNL     1      40.482 -12.928   4.084  1.00  0.00     0.143 A 
HETATM    3  N   UNL     1      40.410 -12.261   5.310  1.00  0.00    -0.197 N 
HETATM    4  C   UNL     1      41.694 -11.907   5.681  1.00  0.00     0.183 A 
HETATM    5  C   UNL     1      42.555 -12.244   4.644  1.00  0.00     0.125 A 
HETATM    6  N   UNL     1      43.894 -12.033   4.743  1.00  0.00    -0.242 NA
HETATM    7  C   UNL     1      44.295 -11.506   5.914  1.00  0.00     0.086 A 
HETATM    8  C   UNL     1      43.389 -11.157   6.951  1.00  0.00     0.088 A 
HETATM    9  N   UNL     1      42.064 -11.332   6.850  1.00  0.00    -0.225 NA
HETATM   10  C   UNL     1      45.655 -11.311   6.124  1.00  0.00     0.034 A 
HETATM   11  C   UNL     1      46.145 -10.784   7.321  1.00  0.00     0.002 A 
HETATM   12  C   UNL     1      45.256 -10.432   8.327  1.00  0.00     0.002 A 
HETATM   13  C   UNL     1      43.888 -10.620   8.131  1.00  0.00     0.034 A 
ENDROOT
BRANCH   1  14
HETATM   14  C   UNL     1      42.233 -13.380   2.346  1.00  0.00     0.257 C 
HETATM   15  N   UNL     1      43.332 -14.217   2.465  1.00  0.00    -0.356 N 
HETATM   16  H   UNL     1      43.675 -14.283   3.417  1.00  0.00     0.162 HD
HETATM   17  O   UNL     1      41.607 -13.200   1.310  1.00  0.00    -0.267 OA
BRANCH  15  18
HETATM   18  C   UNL     1      43.386 -15.478   1.752  1.00  0.00     0.127 C 
BRANCH  18  19
HETATM   19  C   UNL     1      42.354 -16.549   2.108  1.00  0.00     0.058 C 
BRANCH  19  20
HETATM   20  C   UNL     1      43.062 -17.690   2.807  1.00  0.00    -0.057 A 
HETATM   21  C   UNL     1      43.153 -18.943   2.180  1.00  0.00     0.007 A 
HETATM   22  C   UNL     1      43.704 -20.034   2.852  1.00  0.00     0.001 A 
HETATM   23  C   UNL     1      44.176 -19.882   4.154  1.00  0.00     0.000 A 
HETATM   24  C   UNL     1      44.103 -18.638   4.781  1.00  0.00     0.001 A 
HETATM   25  C   UNL     1      43.546 -17.547   4.113  1.00  0.00     0.007 A 
ENDBRANCH  19  20
ENDBRANCH  18  19
ENDBRANCH  15  18
ENDBRANCH   1  14
BRANCH   2  26
HETATM   26  N   UNL     1      39.402 -13.535   3.514  1.00  0.00    -0.383 N 
HETATM   27  H   UNL     1      39.440 -14.539   3.344  1.00  0.00     0.157 HD
HETATM   28  H   UNL     1      38.903 -13.061   2.765  1.00  0.00     0.157 HD
ENDBRANCH   2  26
BRANCH   3  29
HETATM   29  N   UNL     1      39.315 -12.170   6.127  1.00  0.00    -0.176 NA
HETATM   30  C   UNL     1      38.644 -11.060   6.143  1.00  0.00     0.153 C 
BRANCH  30  31
HETATM   31  C   UNL     1      38.988  -9.805   5.505  1.00  0.00     0.011 A 
HETATM   32  C   UNL     1      38.790  -9.466   4.127  1.00  0.00     0.004 A 
HETATM   33  C   UNL     1      39.232  -8.154   3.953  1.00  0.00     0.043 A 
HETATM   34  C   UNL     1      38.304 -10.166   3.003  1.00  0.00     0.014 A 
HETATM   35  C   UNL     1      39.199  -7.500   2.716  1.00  0.00     0.030 A 
HETATM   36  N   UNL     1      39.665  -7.707   5.183  1.00  0.00    -0.364 N 
HETATM   37  C   UNL     1      38.719  -8.218   1.617  1.00  0.00     0.002 A 
HETATM   38  C   UNL     1      38.279  -9.533   1.754  1.00  0.00     0.001 A 
HETATM   39  H   UNL     1      40.033  -6.781   5.359  1.00  0.00     0.165 HD
HETATM   40  C   UNL     1      39.528  -8.695   6.121  1.00  0.00     0.102 A 
ENDBRANCH  30  31
ENDBRANCH   3  29
TORSDOF 7
ENDMDL
MODEL 8
REMARK VINA RESULT:      -9.6      3.222      4.811
REMARK  7 active torsions:
REMARK  status: ('A' for Active; 'I' for Inactive)
REMARK    1  A    between atoms: C_4  and  C_5 
REMARK    2  A    between atoms: C_5  and  C_6 
REMARK    3  A    between atoms: C_6  and  N_7 
REMARK       I    between atoms: N_7  and  C_8 
REMARK    4  A    between atoms: C_8  and  C_9 
REMARK    5  A    between atoms: C_10  and  N_11 
REMARK    6  A    between atoms: N_12  and  N_13 
REMARK    7  A    between atoms: C_14  and  C_15 
ROOT
HETATM    1  C   UNL     1      42.991 -11.341   6.632  1.00  0.00     0.110 A 
HETATM    2  C   UNL     1      43.144 -10.080   7.196  1.00  0.00     0.143 A 
HETATM    3  N   UNL     1      42.075  -9.281   6.783  1.00  0.00    -0.197 N 
HETATM    4  C   UNL     1      41.344  -9.992   5.850  1.00  0.00     0.183 A 
HETATM    5  C   UNL     1      41.881 -11.271   5.760  1.00  0.00     0.125 A 
HETATM    6  N   UNL     1      41.375 -12.188   4.893  1.00  0.00    -0.242 NA
HETATM    7  C   UNL     1      40.354 -11.744   4.138  1.00  0.00     0.086 A 
HETATM    8  C   UNL     1      39.816 -10.436   4.264  1.00  0.00     0.088 A 
HETATM    9  N   UNL     1      40.287  -9.536   5.137  1.00  0.00    -0.225 NA
HETATM   10  C   UNL     1      39.814 -12.598   3.184  1.00  0.00     0.034 A 
HETATM   11  C   UNL     1      38.763 -12.201   2.353  1.00  0.00     0.002 A 
HETATM   12  C   UNL     1      38.232 -10.926   2.486  1.00  0.00     0.002 A 
HETATM   13  C   UNL     1      38.762 -10.058   3.441  1.00  0.00     0.034 A 
ENDROOT
BRANCH   1  14
HETATM   14  C   UNL     1      43.879 -12.458   6.887  1.00  0.00     0.257 C 
HETATM   15  N   UNL     1      43.201 -13.659   7.026  1.00  0.00    -0.356 N 
HETATM   16  H   UNL     1      42.193 -13.549   6.977  1.00  0.00     0.162 HD
HETATM   17  O   UNL     1      45.097 -12.350   6.843  1.00  0.00    -0.267 OA
BRANCH  15  18
HETATM   18  C   UNL     1      43.675 -14.861   6.371  1.00  0.00     0.127 C 
BRANCH  18  19
HETATM   19  C   UNL     1      42.637 -15.794   5.745  1.00  0.00     0.058 C 
BRANCH  19  20
HETATM   20  C   UNL     1      42.930 -15.918   4.264  1.00  0.00    -0.057 A 
HETATM   21  C   UNL     1      43.081 -14.761   3.483  1.00  0.00     0.007 A 
HETATM   22  C   UNL     1      43.241 -14.854   2.101  1.00  0.00     0.001 A 
HETATM   23  C   UNL     1      43.260 -16.105   1.486  1.00  0.00     0.000 A 
HETATM   24  C   UNL     1      43.125 -17.260   2.255  1.00  0.00     0.001 A 
HETATM   25  C   UNL     1      42.958 -17.169   3.638  1.00  0.00     0.007 A 
ENDBRANCH  19  20
ENDBRANCH  18  19
ENDBRANCH  15  18
ENDBRANCH   1  14
BRANCH   2  26
HETATM   26  N   UNL     1      44.138  -9.614   8.005  1.00  0.00    -0.383 N 
HETATM   27  H   UNL     1      45.039  -9.384   7.589  1.00  0.00     0.157 HD
HETATM   28  H   UNL     1      44.262 -10.026   8.927  1.00  0.00     0.157 HD
ENDBRANCH   2  26
BRANCH   3  29
HETATM   29  N   UNL     1      41.894  -7.952   7.058  1.00  0.00    -0.176 NA
HETATM   30  C   UNL     1      41.478  -7.615   8.240  1.00  0.00     0.153 C 
BRANCH  30  31
HETATM   31  C   UNL     1      41.021  -8.486   9.304  1.00  0.00     0.011 A 
HETATM   32  C   UNL     1      41.645  -8.677  10.579  1.00  0.00     0.004 A 
HETATM   33  C   UNL     1      40.856  -9.574  11.299  1.00  0.00     0.043 A 
HETATM   34  C   UNL     1      42.828  -8.193  11.176  1.00  0.00     0.014 A 
HETATM   35  C   UNL     1      41.179 -10.001  12.592  1.00  0.00     0.030 A 
HETATM   36  N   UNL     1      39.783  -9.901  10.499  1.00  0.00    -0.364 N 
HETATM   37  C   UNL     1      42.359  -9.511  13.159  1.00  0.00     0.002 A 
HETATM   38  C   UNL     1      43.176  -8.622  12.463  1.00  0.00     0.001 A 
HETATM   39  H   UNL     1      39.038 -10.530  10.768  1.00  0.00     0.165 HD
HETATM   40  C   UNL     1      39.876  -9.257   9.294  1.00  0.00     0.102 A 
ENDBRANCH  30  31
ENDBRANCH   3  29
TORSDOF 7
ENDMDL
MODEL 9
REMARK VINA RESULT:      -9.4      2.575      5.439
REMARK  7 active torsions:
REMARK  status: ('A' for Active; 'I' for Inactive)
REMARK    1  A    between atoms: C_4  and  C_5 
REMARK    2  A    between atoms: C_5  and  C_6 
REMARK    3  A    between atoms: C_6  and  N_7 
REMARK       I    between atoms: N_7  and  C_8 
REMARK    4  A    between atoms: C_8  and  C_9 
REMARK    5  A    between atoms: C_10  and  N_11 
REMARK    6  A    between atoms: N_12  and  N_13 
REMARK    7  A    between atoms: C_14  and  C_15 
ROOT
HETATM    1  C   UNL     1      41.624 -12.851   4.987  1.00  0.00     0.110 A 
HETATM    2  C   UNL     1      40.348 -12.483   5.399  1.00  0.00     0.143 A 
HETATM    3  N   UNL     1      40.460 -11.372   6.239  1.00  0.00    -0.197 N 
HETATM    4  C   UNL     1      41.804 -11.143   6.469  1.00  0.00     0.183 A 
HETATM    5  C   UNL     1      42.536 -12.030   5.690  1.00  0.00     0.125 A 
HETATM    6  N   UNL     1      43.895 -12.052   5.734  1.00  0.00    -0.242 NA
HETATM    7  C   UNL     1      44.443 -11.176   6.595  1.00  0.00     0.086 A 
HETATM    8  C   UNL     1      43.669 -10.270   7.368  1.00  0.00     0.088 A 
HETATM    9  N   UNL     1      42.331 -10.220   7.308  1.00  0.00    -0.225 NA
HETATM   10  C   UNL     1      45.824 -11.170   6.747  1.00  0.00     0.034 A 
HETATM   11  C   UNL     1      46.462 -10.300   7.635  1.00  0.00     0.002 A 
HETATM   12  C   UNL     1      45.703  -9.407   8.379  1.00  0.00     0.002 A 
HETATM   13  C   UNL     1      44.316  -9.400   8.236  1.00  0.00     0.034 A 
ENDROOT
BRANCH   1  14
HETATM   14  C   UNL     1      41.898 -13.926   4.055  1.00  0.00     0.257 C 
HETATM   15  N   UNL     1      43.082 -14.590   4.338  1.00  0.00    -0.356 N 
HETATM   16  H   UNL     1      43.586 -14.181   5.118  1.00  0.00     0.162 HD
HETATM   17  O   UNL     1      41.091 -14.279   3.205  1.00  0.00    -0.267 OA
BRANCH  15  18
HETATM   18  C   UNL     1      43.148 -16.037   4.314  1.00  0.00     0.127 C 
BRANCH  18  19
HETATM   19  C   UNL     1      43.385 -16.723   2.968  1.00  0.00     0.058 C 
BRANCH  19  20
HETATM   20  C   UNL     1      43.500 -18.215   3.199  1.00  0.00    -0.057 A 
HETATM   21  C   UNL     1      43.959 -18.696   4.435  1.00  0.00     0.007 A 
HETATM   22  C   UNL     1      44.176 -20.060   4.629  1.00  0.00     0.001 A 
HETATM   23  C   UNL     1      43.928 -20.958   3.592  1.00  0.00     0.000 A 
HETATM   24  C   UNL     1      43.459 -20.491   2.365  1.00  0.00     0.001 A 
HETATM   25  C   UNL     1      43.248 -19.125   2.166  1.00  0.00     0.007 A 
ENDBRANCH  19  20
ENDBRANCH  18  19
ENDBRANCH  15  18
ENDBRANCH   1  14
BRANCH   2  26
HETATM   26  N   UNL     1      39.148 -13.057   5.097  1.00  0.00    -0.383 N 
HETATM   27  H   UNL     1      39.143 -13.928   4.569  1.00  0.00     0.157 HD
HETATM   28  H   UNL     1      38.369 -12.465   4.822  1.00  0.00     0.157 HD
ENDBRANCH   2  26
BRANCH   3  29
HETATM   29  N   UNL     1      39.442 -10.752   6.912  1.00  0.00    -0.176 NA
HETATM   30  C   UNL     1      38.844  -9.750   6.344  1.00  0.00     0.153 C 
BRANCH  30  31
HETATM   31  C   UNL     1      39.210  -9.077   5.114  1.00  0.00     0.011 A 
HETATM   32  C   UNL     1      40.136  -7.993   4.977  1.00  0.00     0.004 A 
HETATM   33  C   UNL     1      40.210  -7.677   3.620  1.00  0.00     0.043 A 
HETATM   34  C   UNL     1      40.896  -7.229   5.888  1.00  0.00     0.014 A 
HETATM   35  C   UNL     1      41.016  -6.646   3.124  1.00  0.00     0.030 A 
HETATM   36  N   UNL     1      39.374  -8.549   2.956  1.00  0.00    -0.364 N 
HETATM   37  C   UNL     1      41.754  -5.900   4.048  1.00  0.00     0.002 A 
HETATM   38  C   UNL     1      41.695  -6.183   5.411  1.00  0.00     0.001 A 
HETATM   39  H   UNL     1      39.235  -8.557   1.954  1.00  0.00     0.165 HD
HETATM   40  C   UNL     1      38.763  -9.391   3.846  1.00  0.00     0.102 A 
ENDBRANCH  30  31
ENDBRANCH   3  29
TORSDOF 7
ENDMDL
MODEL 10
REMARK VINA RESULT:      -9.2      3.474      5.814
REMARK  7 active torsions:
REMARK  status: ('A' for Active; 'I' for Inactive)
REMARK    1  A    between atoms: C_4  and  C_5 
REMARK    2  A    between atoms: C_5  and  C_6 
REMARK    3  A    between atoms: C_6  and  N_7 
REMARK       I    between atoms: N_7  and  C_8 
REMARK    4  A    between atoms: C_8  and  C_9 
REMARK    5  A    between atoms: C_10  and  N_11 
REMARK    6  A    between atoms: N_12  and  N_13 
REMARK    7  A    between atoms: C_14  and  C_15 
ROOT
HETATM    1  C   UNL     1      43.241 -11.394   6.969  1.00  0.00     0.110 A 
HETATM    2  C   UNL     1      44.142 -10.566   7.630  1.00  0.00     0.143 A 
HETATM    3  N   UNL     1      43.512  -9.345   7.884  1.00  0.00    -0.197 N 
HETATM    4  C   UNL     1      42.282  -9.358   7.253  1.00  0.00     0.183 A 
HETATM    5  C   UNL     1      42.089 -10.619   6.702  1.00  0.00     0.125 A 
HETATM    6  N   UNL     1      40.968 -10.914   5.993  1.00  0.00    -0.242 NA
HETATM    7  C   UNL     1      40.103  -9.893   5.858  1.00  0.00     0.086 A 
HETATM    8  C   UNL     1      40.320  -8.618   6.446  1.00  0.00     0.088 A 
HETATM    9  N   UNL     1      41.407  -8.328   7.173  1.00  0.00    -0.225 NA
HETATM   10  C   UNL     1      38.956 -10.090   5.098  1.00  0.00     0.034 A 
HETATM   11  C   UNL     1      38.021  -9.070   4.902  1.00  0.00     0.002 A 
HETATM   12  C   UNL     1      38.231  -7.830   5.487  1.00  0.00     0.002 A 
HETATM   13  C   UNL     1      39.376  -7.618   6.254  1.00  0.00     0.034 A 
ENDROOT
BRANCH   1  14
HETATM   14  C   UNL     1      43.521 -12.767   6.599  1.00  0.00     0.257 C 
HETATM   15  N   UNL     1      42.375 -13.478   6.277  1.00  0.00    -0.356 N 
HETATM   16  H   UNL     1      41.527 -12.935   6.403  1.00  0.00     0.162 HD
HETATM   17  O   UNL     1      44.662 -13.189   6.460  1.00  0.00    -0.267 OA
BRANCH  15  18
HETATM   18  C   UNL     1      42.335 -14.333   5.108  1.00  0.00     0.127 C 
BRANCH  18  19
HETATM   19  C   UNL     1      41.752 -15.738   5.267  1.00  0.00     0.058 C 
BRANCH  19  20
HETATM   20  C   UNL     1      42.586 -16.703   4.451  1.00  0.00    -0.057 A 
HETATM   21  C   UNL     1      42.265 -16.935   3.104  1.00  0.00     0.007 A 
HETATM   22  C   UNL     1      42.951 -17.900   2.367  1.00  0.00     0.001 A 
HETATM   23  C   UNL     1      43.971 -18.637   2.967  1.00  0.00     0.000 A 
HETATM   24  C   UNL     1      44.306 -18.404   4.300  1.00  0.00     0.001 A 
HETATM   25  C   UNL     1      43.616 -17.444   5.041  1.00  0.00     0.007 A 
ENDBRANCH  19  20
ENDBRANCH  18  19
ENDBRANCH  15  18
ENDBRANCH   1  14
BRANCH   2  26
HETATM   26  N   UNL     1      45.433 -10.815   7.992  1.00  0.00    -0.383 N 
HETATM   27  H   UNL     1      45.729 -10.577   8.937  1.00  0.00     0.157 HD
HETATM   28  H   UNL     1      46.179 -10.638   7.325  1.00  0.00     0.157 HD
ENDBRANCH   2  26
BRANCH   3  29
HETATM   29  N   UNL     1      44.080  -8.235   8.450  1.00  0.00    -0.176 NA
HETATM   30  C   UNL     1      44.061  -8.120   9.742  1.00  0.00     0.153 C 
BRANCH  30  31
HETATM   31  C   UNL     1      43.369  -8.959  10.699  1.00  0.00     0.011 A 
HETATM   32  C   UNL     1      42.031  -8.782  11.179  1.00  0.00     0.004 A 
HETATM   33  C   UNL     1      41.762  -9.832  12.058  1.00  0.00     0.043 A 
HETATM   34  C   UNL     1      41.034  -7.806  10.972  1.00  0.00     0.014 A 
HETATM   35  C   UNL     1      40.541  -9.965  12.729  1.00  0.00     0.030 A 
HETATM   36  N   UNL     1      42.887 -10.627  12.096  1.00  0.00    -0.364 N 
HETATM   37  C   UNL     1      39.572  -8.981  12.510  1.00  0.00     0.002 A 
HETATM   38  C   UNL     1      39.812  -7.915  11.647  1.00  0.00     0.001 A 
HETATM   39  H   UNL     1      42.974 -11.471  12.647  1.00  0.00     0.165 HD
HETATM   40  C   UNL     1      43.861 -10.107  11.286  1.00  0.00     0.102 A 
ENDBRANCH  30  31
ENDBRANCH   3  29
TORSDOF 7
ENDMDL
