MODEL 1
REMARK VINA RESULT:      -9.5      0.000      0.000
REMARK  7 active torsions:
REMARK  status: ('A' for Active; 'I' for Inactive)
REMARK    1  A    between atoms: C_6  and  C_7 
REMARK       I    between atoms: C_7  and  N_8 
REMARK    2  A    between atoms: N_8  and  C_9 
REMARK    3  A    between atoms: C_9  and  C_10 
REMARK       I    between atoms: C_10  and  N_11 
REMARK    4  A    between atoms: N_11  and  N_12 
REMARK       I    between atoms: N_12  and  C_13 
REMARK    5  A    between atoms: C_13  and  C_14 
REMARK    6  A    between atoms: C_14  and  N_15 
REMARK    7  A    between atoms: N_15  and  C_16 
ROOT
HETATM    1  C   UNL     1      43.752 -11.332   7.421  1.00  0.00     0.253 C 
HETATM    2  N   UNL     1      42.447 -11.558   7.039  1.00  0.00    -0.266 N 
HETATM    3  O   UNL     1      44.594 -12.230   7.472  1.00  0.00    -0.270 OA
HETATM    4  H   UNL     1      41.735 -10.830   7.002  1.00  0.00     0.190 HD
ENDROOT
BRANCH   2   5
HETATM    5  N   UNL     1      42.116 -12.816   6.522  1.00  0.00    -0.266 N 
HETATM    6  C   UNL     1      41.979 -12.931   5.151  1.00  0.00     0.258 C 
HETATM    7  O   UNL     1      41.916 -11.954   4.401  1.00  0.00    -0.269 OA
HETATM    8  H   UNL     1      42.392 -13.609   7.101  1.00  0.00     0.190 HD
BRANCH   6   9
HETATM    9  C   UNL     1      41.897 -14.382   4.642  1.00  0.00     0.173 C 
HETATM   10  C   UNL     1      40.953 -15.191   5.526  1.00  0.00     0.042 C 
BRANCH   9  11
HETATM   11  N   UNL     1      43.228 -14.990   4.686  1.00  0.00    -0.356 N 
HETATM   12  H   UNL     1      43.985 -14.349   4.451  1.00  0.00     0.162 HD
BRANCH  11  13
HETATM   13  C   UNL     1      43.380 -16.296   4.385  1.00  0.00     0.168 A 
HETATM   14  S   UNL     1      43.994 -17.384   5.565  1.00  0.00    -0.050 SA
HETATM   15  C   UNL     1      43.865 -18.684   4.446  1.00  0.00     0.037 A 
HETATM   16  C   UNL     1      43.366 -18.190   3.241  1.00  0.00     0.076 A 
HETATM   17  C   UNL     1      44.185 -20.040   4.618  1.00  0.00     0.021 A 
HETATM   18  N   UNL     1      43.087 -16.834   3.226  1.00  0.00    -0.223 NA
HETATM   19  C   UNL     1      43.191 -19.082   2.164  1.00  0.00     0.033 A 
HETATM   20  C   UNL     1      43.511 -20.435   2.320  1.00  0.00     0.002 A 
HETATM   21  C   UNL     1      43.999 -20.905   3.535  1.00  0.00     0.002 A 
ENDBRANCH  11  13
ENDBRANCH   9  11
ENDBRANCH   6   9
ENDBRANCH   2   5
BRANCH   1  22
HETATM   22  C   UNL     1      44.047  -9.900   7.853  1.00  0.00     0.227 C 
BRANCH  22  23
HETATM   23  N   UNL     1      43.343  -9.614   9.088  1.00  0.00    -0.348 N 
HETATM   24  C   UNL     1      43.944  -9.895  10.297  1.00  0.00     0.252 C 
HETATM   25  O   UNL     1      45.036 -10.445  10.382  1.00  0.00    -0.268 OA
HETATM   26  H   UNL     1      42.637  -8.890   9.056  1.00  0.00     0.163 HD
BRANCH  24  27
HETATM   27  C   UNL     1      43.219  -9.445  11.517  1.00  0.00     0.032 A 
HETATM   28  C   UNL     1      42.004 -10.063  11.840  1.00  0.00     0.024 A 
HETATM   29  C   UNL     1      41.277  -9.676  12.979  1.00  0.00    -0.055 A 
HETATM   30  C   UNL     1      41.765  -8.625  13.783  1.00  0.00    -0.056 A 
HETATM   31  C   UNL     1      39.976 -10.365  13.285  1.00  0.00     0.049 C 
HETATM   32  C   UNL     1      41.024  -8.163  15.008  1.00  0.00     0.049 C 
HETATM   33  C   UNL     1      42.982  -8.010  13.449  1.00  0.00     0.008 A 
HETATM   34  C   UNL     1      43.704  -8.412  12.323  1.00  0.00     0.017 A 
ENDBRANCH  24  27
ENDBRANCH  22  23
ENDBRANCH   1  22
TORSDOF 7
ENDMDL
MODEL 2
REMARK VINA RESULT:      -9.5      2.577     11.033
REMARK  7 active torsions:
REMARK  status: ('A' for Active; 'I' for Inactive)
REMARK    1  A    between atoms: C_6  and  C_7 
REMARK       I    between atoms: C_7  and  N_8 
REMARK    2  A    between atoms: N_8  and  C_9 
REMARK    3  A    between atoms: C_9  and  C_10 
REMARK       I    between atoms: C_10  and  N_11 
REMARK    4  A    between atoms: N_11  and  N_12 
REMARK       I    between atoms: N_12  and  C_13 
REMARK    5  A    between atoms: C_13  and  C_14 
REMARK    6  A    between atoms: C_14  and  N_15 
REMARK    7  A    between atoms: N_15  and  C_16 
ROOT
HETATM    1  C   UNL     1      43.397 -12.209   3.897  1.00  0.00     0.253 C 
HETATM    2  N   UNL     1      43.296 -12.507   5.240  1.00  0.00    -0.266 N 
HETATM    3  O   UNL     1      43.974 -11.202   3.483  1.00  0.00    -0.270 OA
HETATM    4  H   UNL     1      42.813 -13.329   5.600  1.00  0.00     0.190 HD
ENDROOT
BRANCH   2   5
HETATM    5  N   UNL     1      44.025 -11.732   6.148  1.00  0.00    -0.266 N 
HETATM    6  C   UNL     1      43.318 -10.879   6.976  1.00  0.00     0.258 C 
HETATM    7  O   UNL     1      42.127 -10.612   6.802  1.00  0.00    -0.269 OA
HETATM    8  H   UNL     1      44.927 -12.120   6.423  1.00  0.00     0.190 HD
BRANCH   6   9
HETATM    9  C   UNL     1      44.150 -10.280   8.126  1.00  0.00     0.173 C 
HETATM   10  C   UNL     1      45.625 -10.615   7.930  1.00  0.00     0.042 C 
BRANCH   9  11
HETATM   11  N   UNL     1      43.699 -10.843   9.398  1.00  0.00    -0.356 N 
HETATM   12  H   UNL     1      43.198 -11.727   9.308  1.00  0.00     0.162 HD
BRANCH  11  13
HETATM   13  C   UNL     1      43.364 -10.022  10.415  1.00  0.00     0.168 A 
HETATM   14  S   UNL     1      43.394  -8.319  10.190  1.00  0.00    -0.050 SA
HETATM   15  C   UNL     1      42.883  -8.086  11.815  1.00  0.00     0.037 A 
HETATM   16  C   UNL     1      42.731  -9.333  12.420  1.00  0.00     0.076 A 
HETATM   17  C   UNL     1      42.637  -6.889  12.507  1.00  0.00     0.021 A 
HETATM   18  N   UNL     1      42.999 -10.422  11.609  1.00  0.00    -0.223 NA
HETATM   19  C   UNL     1      42.330  -9.387  13.770  1.00  0.00     0.033 A 
HETATM   20  C   UNL     1      42.088  -8.201  14.473  1.00  0.00     0.002 A 
HETATM   21  C   UNL     1      42.237  -6.969  13.845  1.00  0.00     0.002 A 
ENDBRANCH  11  13
ENDBRANCH   9  11
ENDBRANCH   6   9
ENDBRANCH   2   5
BRANCH   1  22
HETATM   22  C   UNL     1      42.669 -13.181   2.976  1.00  0.00     0.227 C 
BRANCH  22  23
HETATM   23  N   UNL     1      42.810 -14.530   3.487  1.00  0.00    -0.348 N 
HETATM   24  C   UNL     1      43.287 -15.527   2.663  1.00  0.00     0.252 C 
HETATM   25  O   UNL     1      43.540 -15.341   1.478  1.00  0.00    -0.268 OA
HETATM   26  H   UNL     1      42.932 -14.630   4.488  1.00  0.00     0.163 HD
BRANCH  24  27
HETATM   27  C   UNL     1      43.535 -16.850   3.298  1.00  0.00     0.032 A 
HETATM   28  C   UNL     1      43.513 -17.995   2.492  1.00  0.00     0.024 A 
HETATM   29  C   UNL     1      43.738 -19.269   3.040  1.00  0.00    -0.055 A 
HETATM   30  C   UNL     1      43.952 -19.394   4.428  1.00  0.00    -0.056 A 
HETATM   31  C   UNL     1      43.702 -20.471   2.136  1.00  0.00     0.049 C 
HETATM   32  C   UNL     1      44.190 -20.733   5.070  1.00  0.00     0.049 C 
HETATM   33  C   UNL     1      43.970 -18.240   5.228  1.00  0.00     0.008 A 
HETATM   34  C   UNL     1      43.759 -16.977   4.672  1.00  0.00     0.017 A 
ENDBRANCH  24  27
ENDBRANCH  22  23
ENDBRANCH   1  22
TORSDOF 7
ENDMDL
MODEL 3
REMARK VINA RESULT:      -9.4      2.344     11.191
REMARK  7 active torsions:
REMARK  status: ('A' for Active; 'I' for Inactive)
REMARK    1  A    between atoms: C_6  and  C_7 
REMARK       I    between atoms: C_7  and  N_8 
REMARK    2  A    between atoms: N_8  and  C_9 
REMARK    3  A    between atoms: C_9  and  C_10 
REMARK       I    between atoms: C_10  and  N_11 
REMARK    4  A    between atoms: N_11  and  N_12 
REMARK       I    between atoms: N_12  and  C_13 
REMARK    5  A    between atoms: C_13  and  C_14 
REMARK    6  A    between atoms: C_14  and  N_15 
REMARK    7  A    between atoms: N_15  and  C_16 
ROOT
HETATM    1  C   UNL     1      42.389 -12.546   5.560  1.00  0.00     0.253 C 
HETATM    2  N   UNL     1      43.460 -12.583   6.427  1.00  0.00    -0.266 N 
HETATM    3  O   UNL     1      41.308 -12.037   5.861  1.00  0.00    -0.270 OA
HETATM    4  H   UNL     1      44.357 -13.010   6.198  1.00  0.00     0.190 HD
ENDROOT
BRANCH   2   5
HETATM    5  N   UNL     1      43.370 -11.862   7.622  1.00  0.00    -0.266 N 
HETATM    6  C   UNL     1      44.454 -11.083   7.986  1.00  0.00     0.258 C 
HETATM    7  O   UNL     1      45.553 -11.168   7.433  1.00  0.00    -0.269 OA
HETATM    8  H   UNL     1      42.422 -11.632   7.921  1.00  0.00     0.190 HD
BRANCH   6   9
HETATM    9  C   UNL     1      44.174 -10.111   9.147  1.00  0.00     0.173 C 
HETATM   10  C   UNL     1      45.488  -9.670   9.784  1.00  0.00     0.042 C 
BRANCH   9  11
HETATM   11  N   UNL     1      43.357 -10.782  10.158  1.00  0.00    -0.356 N 
HETATM   12  H   UNL     1      42.940 -11.657   9.842  1.00  0.00     0.162 HD
BRANCH  11  13
HETATM   13  C   UNL     1      42.688 -10.052  11.074  1.00  0.00     0.168 A 
HETATM   14  S   UNL     1      41.379  -9.051  10.585  1.00  0.00    -0.050 SA
HETATM   15  C   UNL     1      41.143  -8.550  12.213  1.00  0.00     0.037 A 
HETATM   16  C   UNL     1      42.091  -9.180  13.019  1.00  0.00     0.076 A 
HETATM   17  C   UNL     1      40.193  -7.661  12.742  1.00  0.00     0.021 A 
HETATM   18  N   UNL     1      42.955 -10.037  12.358  1.00  0.00    -0.223 NA
HETATM   19  C   UNL     1      42.097  -8.905  14.401  1.00  0.00     0.033 A 
HETATM   20  C   UNL     1      41.160  -8.017  14.938  1.00  0.00     0.002 A 
HETATM   21  C   UNL     1      40.218  -7.407  14.116  1.00  0.00     0.002 A 
ENDBRANCH  11  13
ENDBRANCH   9  11
ENDBRANCH   6   9
ENDBRANCH   2   5
BRANCH   1  22
HETATM   22  C   UNL     1      42.624 -13.257   4.232  1.00  0.00     0.227 C 
BRANCH  22  23
HETATM   23  N   UNL     1      42.782 -14.678   4.466  1.00  0.00    -0.348 N 
HETATM   24  C   UNL     1      43.166 -15.503   3.429  1.00  0.00     0.252 C 
HETATM   25  O   UNL     1      43.317 -15.097   2.282  1.00  0.00    -0.268 OA
HETATM   26  H   UNL     1      42.989 -14.967   5.414  1.00  0.00     0.163 HD
BRANCH  24  27
HETATM   27  C   UNL     1      43.442 -16.923   3.779  1.00  0.00     0.032 A 
HETATM   28  C   UNL     1      43.401 -17.883   2.761  1.00  0.00     0.024 A 
HETATM   29  C   UNL     1      43.652 -19.239   3.036  1.00  0.00    -0.055 A 
HETATM   30  C   UNL     1      43.911 -19.636   4.364  1.00  0.00    -0.056 A 
HETATM   31  C   UNL     1      43.594 -20.236   1.911  1.00  0.00     0.049 C 
HETATM   32  C   UNL     1      44.177 -21.073   4.718  1.00  0.00     0.049 C 
HETATM   33  C   UNL     1      43.947 -18.664   5.378  1.00  0.00     0.008 A 
HETATM   34  C   UNL     1      43.711 -17.318   5.092  1.00  0.00     0.017 A 
ENDBRANCH  24  27
ENDBRANCH  22  23
ENDBRANCH   1  22
TORSDOF 7
ENDMDL
MODEL 4
REMARK VINA RESULT:      -9.2      2.949     10.165
REMARK  7 active torsions:
REMARK  status: ('A' for Active; 'I' for Inactive)
REMARK    1  A    between atoms: C_6  and  C_7 
REMARK       I    between atoms: C_7  and  N_8 
REMARK    2  A    between atoms: N_8  and  C_9 
REMARK    3  A    between atoms: C_9  and  C_10 
REMARK       I    between atoms: C_10  and  N_11 
REMARK    4  A    between atoms: N_11  and  N_12 
REMARK       I    between atoms: N_12  and  C_13 
REMARK    5  A    between atoms: C_13  and  C_14 
REMARK    6  A    between atoms: C_14  and  N_15 
REMARK    7  A    between atoms: N_15  and  C_16 
ROOT
HETATM    1  C   UNL     1      40.120 -13.519   2.062  1.00  0.00     0.253 C 
HETATM    2  N   UNL     1      39.749 -14.049   3.279  1.00  0.00    -0.266 N 
HETATM    3  O   UNL     1      40.068 -12.312   1.820  1.00  0.00    -0.270 OA
HETATM    4  H   UNL     1      39.774 -15.046   3.492  1.00  0.00     0.190 HD
ENDROOT
BRANCH   2   5
HETATM    5  N   UNL     1      39.473 -13.167   4.330  1.00  0.00    -0.266 N 
HETATM    6  C   UNL     1      40.518 -12.820   5.167  1.00  0.00     0.258 C 
HETATM    7  O   UNL     1      41.601 -13.411   5.165  1.00  0.00    -0.269 OA
HETATM    8  H   UNL     1      38.680 -12.544   4.177  1.00  0.00     0.190 HD
BRANCH   6   9
HETATM    9  C   UNL     1      40.209 -11.643   6.111  1.00  0.00     0.173 C 
HETATM   10  C   UNL     1      38.842 -11.053   5.776  1.00  0.00     0.042 C 
BRANCH   9  11
HETATM   11  N   UNL     1      41.228 -10.606   5.947  1.00  0.00    -0.356 N 
HETATM   12  H   UNL     1      41.532 -10.471   4.983  1.00  0.00     0.162 HD
BRANCH  11  13
HETATM   13  C   UNL     1      42.117 -10.377   6.934  1.00  0.00     0.168 A 
HETATM   14  S   UNL     1      43.739 -10.924   6.774  1.00  0.00    -0.050 SA
HETATM   15  C   UNL     1      44.121 -10.273   8.319  1.00  0.00     0.037 A 
HETATM   16  C   UNL     1      42.974  -9.686   8.854  1.00  0.00     0.076 A 
HETATM   17  C   UNL     1      45.343 -10.281   9.011  1.00  0.00     0.021 A 
HETATM   18  N   UNL     1      41.848  -9.746   8.052  1.00  0.00    -0.223 NA
HETATM   19  C   UNL     1      43.048  -9.097  10.132  1.00  0.00     0.033 A 
HETATM   20  C   UNL     1      44.258  -9.105  10.835  1.00  0.00     0.002 A 
HETATM   21  C   UNL     1      45.391  -9.688  10.276  1.00  0.00     0.002 A 
ENDBRANCH  11  13
ENDBRANCH   9  11
ENDBRANCH   6   9
ENDBRANCH   2   5
BRANCH   1  22
HETATM   22  C   UNL     1      40.520 -14.553   1.016  1.00  0.00     0.227 C 
BRANCH  22  23
HETATM   23  N   UNL     1      41.120 -15.697   1.672  1.00  0.00    -0.348 N 
HETATM   24  C   UNL     1      42.477 -15.708   1.922  1.00  0.00     0.252 C 
HETATM   25  O   UNL     1      43.225 -14.811   1.550  1.00  0.00    -0.268 OA
HETATM   26  H   UNL     1      40.516 -16.257   2.261  1.00  0.00     0.163 HD
BRANCH  24  27
HETATM   27  C   UNL     1      42.994 -16.852   2.722  1.00  0.00     0.032 A 
HETATM   28  C   UNL     1      43.116 -18.101   2.102  1.00  0.00     0.024 A 
HETATM   29  C   UNL     1      43.597 -19.215   2.811  1.00  0.00    -0.055 A 
HETATM   30  C   UNL     1      43.925 -19.075   4.175  1.00  0.00    -0.056 A 
HETATM   31  C   UNL     1      43.708 -20.539   2.105  1.00  0.00     0.049 C 
HETATM   32  C   UNL     1      44.435 -20.235   4.985  1.00  0.00     0.049 C 
HETATM   33  C   UNL     1      43.796 -17.818   4.788  1.00  0.00     0.008 A 
HETATM   34  C   UNL     1      43.331 -16.714   4.071  1.00  0.00     0.017 A 
ENDBRANCH  24  27
ENDBRANCH  22  23
ENDBRANCH   1  22
TORSDOF 7
ENDMDL
MODEL 5
REMARK VINA RESULT:      -8.8      2.554     10.730
REMARK  7 active torsions:
REMARK  status: ('A' for Active; 'I' for Inactive)
REMARK    1  A    between atoms: C_6  and  C_7 
REMARK       I    between atoms: C_7  and  N_8 
REMARK    2  A    between atoms: N_8  and  C_9 
REMARK    3  A    between atoms: C_9  and  C_10 
REMARK       I    between atoms: C_10  and  N_11 
REMARK    4  A    between atoms: N_11  and  N_12 
REMARK       I    between atoms: N_12  and  C_13 
REMARK    5  A    between atoms: C_13  and  C_14 
REMARK    6  A    between atoms: C_14  and  N_15 
REMARK    7  A    between atoms: N_15  and  C_16 
ROOT
HETATM    1  C   UNL     1      41.165 -11.751   5.350  1.00  0.00     0.253 C 
HETATM    2  N   UNL     1      41.575 -11.929   6.654  1.00  0.00    -0.266 N 
HETATM    3  O   UNL     1      41.516 -10.785   4.670  1.00  0.00    -0.270 OA
HETATM    4  H   UNL     1      41.286 -12.715   7.235  1.00  0.00     0.190 HD
ENDROOT
BRANCH   2   5
HETATM    5  N   UNL     1      42.563 -11.077   7.160  1.00  0.00    -0.266 N 
HETATM    6  C   UNL     1      43.819 -11.613   7.386  1.00  0.00     0.258 C 
HETATM    7  O   UNL     1      44.040 -12.826   7.373  1.00  0.00    -0.269 OA
HETATM    8  H   UNL     1      42.434 -10.088   6.948  1.00  0.00     0.190 HD
BRANCH   6   9
HETATM    9  C   UNL     1      44.913 -10.566   7.667  1.00  0.00     0.173 C 
HETATM   10  C   UNL     1      46.222 -10.994   7.013  1.00  0.00     0.042 C 
BRANCH   9  11
HETATM   11  N   UNL     1      45.117 -10.451   9.111  1.00  0.00    -0.356 N 
HETATM   12  H   UNL     1      45.322 -11.336   9.574  1.00  0.00     0.162 HD
BRANCH  11  13
HETATM   13  C   UNL     1      44.457  -9.504   9.810  1.00  0.00     0.168 A 
HETATM   14  S   UNL     1      43.869  -8.101   9.010  1.00  0.00    -0.050 SA
HETATM   15  C   UNL     1      43.233  -7.511  10.495  1.00  0.00     0.037 A 
HETATM   16  C   UNL     1      43.523  -8.429  11.504  1.00  0.00     0.076 A 
HETATM   17  C   UNL     1      42.532  -6.322  10.753  1.00  0.00     0.021 A 
HETATM   18  N   UNL     1      44.211  -9.560  11.096  1.00  0.00    -0.223 NA
HETATM   19  C   UNL     1      43.108  -8.145  12.820  1.00  0.00     0.033 A 
HETATM   20  C   UNL     1      42.415  -6.960  13.091  1.00  0.00     0.002 A 
HETATM   21  C   UNL     1      42.129  -6.063  12.067  1.00  0.00     0.002 A 
ENDBRANCH  11  13
ENDBRANCH   9  11
ENDBRANCH   6   9
ENDBRANCH   2   5
BRANCH   1  22
HETATM   22  C   UNL     1      40.179 -12.799   4.847  1.00  0.00     0.227 C 
BRANCH  22  23
HETATM   23  N   UNL     1      40.906 -13.882   4.216  1.00  0.00    -0.348 N 
HETATM   24  C   UNL     1      41.233 -15.004   4.948  1.00  0.00     0.252 C 
HETATM   25  O   UNL     1      40.993 -15.105   6.146  1.00  0.00    -0.268 OA
HETATM   26  H   UNL     1      40.817 -13.970   3.211  1.00  0.00     0.163 HD
BRANCH  24  27
HETATM   27  C   UNL     1      41.854 -16.129   4.197  1.00  0.00     0.032 A 
HETATM   28  C   UNL     1      42.830 -16.903   4.836  1.00  0.00     0.024 A 
HETATM   29  C   UNL     1      43.450 -17.975   4.173  1.00  0.00    -0.055 A 
HETATM   30  C   UNL     1      43.108 -18.247   2.832  1.00  0.00    -0.056 A 
HETATM   31  C   UNL     1      44.495 -18.778   4.898  1.00  0.00     0.049 C 
HETATM   32  C   UNL     1      43.746 -19.376   2.070  1.00  0.00     0.049 C 
HETATM   33  C   UNL     1      42.130 -17.462   2.199  1.00  0.00     0.008 A 
HETATM   34  C   UNL     1      41.509 -16.408   2.872  1.00  0.00     0.017 A 
ENDBRANCH  24  27
ENDBRANCH  22  23
ENDBRANCH   1  22
TORSDOF 7
ENDMDL
MODEL 6
REMARK VINA RESULT:      -8.8      2.525     11.006
REMARK  7 active torsions:
REMARK  status: ('A' for Active; 'I' for Inactive)
REMARK    1  A    between atoms: C_6  and  C_7 
REMARK       I    between atoms: C_7  and  N_8 
REMARK    2  A    between atoms: N_8  and  C_9 
REMARK    3  A    between atoms: C_9  and  C_10 
REMARK       I    between atoms: C_10  and  N_11 
REMARK    4  A    between atoms: N_11  and  N_12 
REMARK       I    between atoms: N_12  and  C_13 
REMARK    5  A    between atoms: C_13  and  C_14 
REMARK    6  A    between atoms: C_14  and  N_15 
REMARK    7  A    between atoms: N_15  and  C_16 
ROOT
HETATM    1  C   UNL     1      41.414 -11.509   5.746  1.00  0.00     0.253 C 
HETATM    2  N   UNL     1      42.648 -11.289   6.319  1.00  0.00    -0.266 N 
HETATM    3  O   UNL     1      40.364 -11.448   6.388  1.00  0.00    -0.270 OA
HETATM    4  H   UNL     1      43.527 -11.346   5.805  1.00  0.00     0.190 HD
ENDROOT
BRANCH   2   5
HETATM    5  N   UNL     1      42.694 -10.807   7.632  1.00  0.00    -0.266 N 
HETATM    6  C   UNL     1      43.901 -10.887   8.304  1.00  0.00     0.258 C 
HETATM    7  O   UNL     1      44.855 -11.549   7.888  1.00  0.00    -0.269 OA
HETATM    8  H   UNL     1      42.003 -10.091   7.856  1.00  0.00     0.190 HD
BRANCH   6   9
HETATM    9  C   UNL     1      43.946 -10.089   9.620  1.00  0.00     0.173 C 
HETATM   10  C   UNL     1      45.360 -10.108  10.191  1.00  0.00     0.042 C 
BRANCH   9  11
HETATM   11  N   UNL     1      43.034 -10.697  10.589  1.00  0.00    -0.356 N 
HETATM   12  H   UNL     1      42.552 -11.526  10.244  1.00  0.00     0.162 HD
BRANCH  11  13
HETATM   13  C   UNL     1      42.399  -9.921  11.492  1.00  0.00     0.168 A 
HETATM   14  S   UNL     1      41.095  -8.917  10.996  1.00  0.00    -0.050 SA
HETATM   15  C   UNL     1      40.907  -8.350  12.609  1.00  0.00     0.037 A 
HETATM   16  C   UNL     1      41.864  -8.965  13.415  1.00  0.00     0.076 A 
HETATM   17  C   UNL     1      39.984  -7.426  13.125  1.00  0.00     0.021 A 
HETATM   18  N   UNL     1      42.697  -9.861  12.767  1.00  0.00    -0.223 NA
HETATM   19  C   UNL     1      41.909  -8.637  14.785  1.00  0.00     0.033 A 
HETATM   20  C   UNL     1      40.999  -7.713  15.310  1.00  0.00     0.002 A 
HETATM   21  C   UNL     1      40.047  -7.119  14.487  1.00  0.00     0.002 A 
ENDBRANCH  11  13
ENDBRANCH   9  11
ENDBRANCH   6   9
ENDBRANCH   2   5
BRANCH   1  22
HETATM   22  C   UNL     1      41.459 -11.912   4.277  1.00  0.00     0.227 C 
BRANCH  22  23
HETATM   23  N   UNL     1      41.724 -13.334   4.175  1.00  0.00    -0.348 N 
HETATM   24  C   UNL     1      42.588 -13.800   3.206  1.00  0.00     0.252 C 
HETATM   25  O   UNL     1      43.101 -13.066   2.369  1.00  0.00    -0.268 OA
HETATM   26  H   UNL     1      41.595 -13.886   5.014  1.00  0.00     0.163 HD
BRANCH  24  27
HETATM   27  C   UNL     1      42.916 -15.251   3.254  1.00  0.00     0.032 A 
HETATM   28  C   UNL     1      43.196 -15.834   4.496  1.00  0.00     0.024 A 
HETATM   29  C   UNL     1      43.513 -17.199   4.598  1.00  0.00    -0.055 A 
HETATM   30  C   UNL     1      43.585 -17.980   3.426  1.00  0.00    -0.056 A 
HETATM   31  C   UNL     1      43.811 -17.781   5.954  1.00  0.00     0.049 C 
HETATM   32  C   UNL     1      43.929 -19.443   3.475  1.00  0.00     0.049 C 
HETATM   33  C   UNL     1      43.305 -17.385   2.185  1.00  0.00     0.008 A 
HETATM   34  C   UNL     1      42.976 -16.031   2.096  1.00  0.00     0.017 A 
ENDBRANCH  24  27
ENDBRANCH  22  23
ENDBRANCH   1  22
TORSDOF 7
ENDMDL
MODEL 7
REMARK VINA RESULT:      -8.7      1.713      2.354
REMARK  7 active torsions:
REMARK  status: ('A' for Active; 'I' for Inactive)
REMARK    1  A    between atoms: C_6  and  C_7 
REMARK       I    between atoms: C_7  and  N_8 
REMARK    2  A    between atoms: N_8  and  C_9 
REMARK    3  A    between atoms: C_9  and  C_10 
REMARK       I    between atoms: C_10  and  N_11 
REMARK    4  A    between atoms: N_11  and  N_12 
REMARK       I    between atoms: N_12  and  C_13 
REMARK    5  A    between atoms: C_13  and  C_14 
REMARK    6  A    between atoms: C_14  and  N_15 
REMARK    7  A    between atoms: N_15  and  C_16 
ROOT
HETATM    1  C   UNL     1      43.993 -11.208   7.032  1.00  0.00     0.253 C 
HETATM    2  N   UNL     1      44.422 -12.021   6.005  1.00  0.00    -0.266 N 
HETATM    3  O   UNL     1      42.831 -10.807   7.120  1.00  0.00    -0.270 OA
HETATM    4  H   UNL     1      45.382 -12.352   5.911  1.00  0.00     0.190 HD
ENDROOT
BRANCH   2   5
HETATM    5  N   UNL     1      43.464 -12.551   5.134  1.00  0.00    -0.266 N 
HETATM    6  C   UNL     1      43.490 -12.128   3.817  1.00  0.00     0.258 C 
HETATM    7  O   UNL     1      44.158 -11.163   3.438  1.00  0.00    -0.269 OA
HETATM    8  H   UNL     1      43.100 -13.468   5.395  1.00  0.00     0.190 HD
BRANCH   6   9
HETATM    9  C   UNL     1      42.602 -12.956   2.869  1.00  0.00     0.173 C 
HETATM   10  C   UNL     1      41.542 -12.062   2.236  1.00  0.00     0.042 C 
BRANCH   9  11
HETATM   11  N   UNL     1      41.939 -14.018   3.626  1.00  0.00    -0.356 N 
HETATM   12  H   UNL     1      41.547 -13.712   4.516  1.00  0.00     0.162 HD
BRANCH  11  13
HETATM   13  C   UNL     1      42.380 -15.289   3.528  1.00  0.00     0.168 A 
HETATM   14  S   UNL     1      41.953 -16.244   2.164  1.00  0.00    -0.050 SA
HETATM   15  C   UNL     1      42.848 -17.568   2.800  1.00  0.00     0.037 A 
HETATM   16  C   UNL     1      43.407 -17.187   4.019  1.00  0.00     0.076 A 
HETATM   17  C   UNL     1      43.041 -18.851   2.263  1.00  0.00     0.021 A 
HETATM   18  N   UNL     1      43.140 -15.887   4.414  1.00  0.00    -0.223 NA
HETATM   19  C   UNL     1      44.177 -18.125   4.735  1.00  0.00     0.033 A 
HETATM   20  C   UNL     1      44.371 -19.409   4.214  1.00  0.00     0.002 A 
HETATM   21  C   UNL     1      43.811 -19.763   2.991  1.00  0.00     0.002 A 
ENDBRANCH  11  13
ENDBRANCH   9  11
ENDBRANCH   6   9
ENDBRANCH   2   5
BRANCH   1  22
HETATM   22  C   UNL     1      45.089 -10.779   8.002  1.00  0.00     0.227 C 
BRANCH  22  23
HETATM   23  N   UNL     1      44.516 -10.576   9.318  1.00  0.00    -0.348 N 
HETATM   24  C   UNL     1      44.297  -9.294   9.777  1.00  0.00     0.252 C 
HETATM   25  O   UNL     1      44.630  -8.299   9.143  1.00  0.00    -0.268 OA
HETATM   26  H   UNL     1      43.950 -11.327   9.693  1.00  0.00     0.163 HD
BRANCH  24  27
HETATM   27  C   UNL     1      43.580  -9.169  11.075  1.00  0.00     0.032 A 
HETATM   28  C   UNL     1      43.407  -7.892  11.624  1.00  0.00     0.024 A 
HETATM   29  C   UNL     1      42.739  -7.717  12.848  1.00  0.00    -0.055 A 
HETATM   30  C   UNL     1      42.272  -8.849  13.547  1.00  0.00    -0.056 A 
HETATM   31  C   UNL     1      42.579  -6.327  13.401  1.00  0.00     0.049 C 
HETATM   32  C   UNL     1      41.559  -8.721  14.865  1.00  0.00     0.049 C 
HETATM   33  C   UNL     1      42.454 -10.125  12.989  1.00  0.00     0.008 A 
HETATM   34  C   UNL     1      43.106 -10.288  11.765  1.00  0.00     0.017 A 
ENDBRANCH  24  27
ENDBRANCH  22  23
ENDBRANCH   1  22
TORSDOF 7
ENDMDL
MODEL 8
REMARK VINA RESULT:      -8.6      5.120      9.214
REMARK  7 active torsions:
REMARK  status: ('A' for Active; 'I' for Inactive)
REMARK    1  A    between atoms: C_6  and  C_7 
REMARK       I    between atoms: C_7  and  N_8 
REMARK    2  A    between atoms: N_8  and  C_9 
REMARK    3  A    between atoms: C_9  and  C_10 
REMARK       I    between atoms: C_10  and  N_11 
REMARK    4  A    between atoms: N_11  and  N_12 
REMARK       I    between atoms: N_12  and  C_13 
REMARK    5  A    between atoms: C_13  and  C_14 
REMARK    6  A    between atoms: C_14  and  N_15 
REMARK    7  A    between atoms: N_15  and  C_16 
ROOT
HETATM    1  C   UNL     1      42.757 -12.480   5.889  1.00  0.00     0.253 C 
HETATM    2  N   UNL     1      41.928 -12.748   4.821  1.00  0.00    -0.266 N 
HETATM    3  O   UNL     1      43.095 -11.335   6.197  1.00  0.00    -0.270 OA
HETATM    4  H   UNL     1      41.648 -13.689   4.546  1.00  0.00     0.190 HD
ENDROOT
BRANCH   2   5
HETATM    5  N   UNL     1      41.309 -11.672   4.176  1.00  0.00    -0.266 N 
HETATM    6  C   UNL     1      41.704 -11.385   2.882  1.00  0.00     0.258 C 
HETATM    7  O   UNL     1      42.709 -11.880   2.365  1.00  0.00    -0.269 OA
HETATM    8  H   UNL     1      40.373 -11.444   4.513  1.00  0.00     0.190 HD
BRANCH   6   9
HETATM    9  C   UNL     1      40.792 -10.385   2.148  1.00  0.00     0.173 C 
HETATM   10  C   UNL     1      40.685  -9.092   2.950  1.00  0.00     0.042 C 
BRANCH   9  11
HETATM   11  N   UNL     1      39.456 -10.964   1.998  1.00  0.00    -0.356 N 
HETATM   12  H   UNL     1      39.020 -11.236   2.879  1.00  0.00     0.162 HD
BRANCH  11  13
HETATM   13  C   UNL     1      39.151 -11.670   0.890  1.00  0.00     0.168 A 
HETATM   14  S   UNL     1      37.946 -11.093  -0.191  1.00  0.00    -0.050 SA
HETATM   15  C   UNL     1      38.187 -12.463  -1.204  1.00  0.00     0.037 A 
HETATM   16  C   UNL     1      39.171 -13.272  -0.637  1.00  0.00     0.076 A 
HETATM   17  C   UNL     1      37.551 -12.801  -2.409  1.00  0.00     0.021 A 
HETATM   18  N   UNL     1      39.715 -12.803   0.547  1.00  0.00    -0.223 NA
HETATM   19  C   UNL     1      39.526 -14.468  -1.292  1.00  0.00     0.033 A 
HETATM   20  C   UNL     1      38.895 -14.819  -2.490  1.00  0.00     0.002 A 
HETATM   21  C   UNL     1      37.922 -13.991  -3.042  1.00  0.00     0.002 A 
ENDBRANCH  11  13
ENDBRANCH   9  11
ENDBRANCH   6   9
ENDBRANCH   2   5
BRANCH   1  22
HETATM   22  C   UNL     1      43.287 -13.716   6.606  1.00  0.00     0.227 C 
BRANCH  22  23
HETATM   23  N   UNL     1      43.441 -14.798   5.654  1.00  0.00    -0.348 N 
HETATM   24  C   UNL     1      43.646 -16.084   6.108  1.00  0.00     0.252 C 
HETATM   25  O   UNL     1      43.773 -16.353   7.297  1.00  0.00    -0.268 OA
HETATM   26  H   UNL     1      43.022 -14.669   4.741  1.00  0.00     0.163 HD
BRANCH  24  27
HETATM   27  C   UNL     1      43.654 -17.157   5.077  1.00  0.00     0.032 A 
HETATM   28  C   UNL     1      43.963 -18.464   5.474  1.00  0.00     0.024 A 
HETATM   29  C   UNL     1      43.988 -19.515   4.542  1.00  0.00    -0.055 A 
HETATM   30  C   UNL     1      43.733 -19.237   3.183  1.00  0.00    -0.056 A 
HETATM   31  C   UNL     1      44.328 -20.903   5.013  1.00  0.00     0.049 C 
HETATM   32  C   UNL     1      43.755 -20.321   2.140  1.00  0.00     0.049 C 
HETATM   33  C   UNL     1      43.427 -17.922   2.795  1.00  0.00     0.008 A 
HETATM   34  C   UNL     1      43.391 -16.888   3.732  1.00  0.00     0.017 A 
ENDBRANCH  24  27
ENDBRANCH  22  23
ENDBRANCH   1  22
TORSDOF 7
ENDMDL
MODEL 9
REMARK VINA RESULT:      -8.4     17.873     19.304
REMARK  7 active torsions:
REMARK  status: ('A' for Active; 'I' for Inactive)
REMARK    1  A    between atoms: C_6  and  C_7 
REMARK       I    between atoms: C_7  and  N_8 
REMARK    2  A    between atoms: N_8  and  C_9 
REMARK    3  A    between atoms: C_9  and  C_10 
REMARK       I    between atoms: C_10  and  N_11 
REMARK    4  A    between atoms: N_11  and  N_12 
REMARK       I    between atoms: N_12  and  C_13 
REMARK    5  A    between atoms: C_13  and  C_14 
REMARK    6  A    between atoms: C_14  and  N_15 
REMARK    7  A    between atoms: N_15  and  C_16 
ROOT
HETATM    1  C   UNL     1      43.716 -29.807   1.156  1.00  0.00     0.253 C 
HETATM    2  N   UNL     1      44.132 -28.833   0.274  1.00  0.00    -0.266 N 
HETATM    3  O   UNL     1      43.175 -30.850   0.785  1.00  0.00    -0.270 OA
HETATM    4  H   UNL     1      44.571 -27.960   0.564  1.00  0.00     0.190 HD
ENDROOT
BRANCH   2   5
HETATM    5  N   UNL     1      44.097 -29.118  -1.095  1.00  0.00    -0.266 N 
HETATM    6  C   UNL     1      45.105 -28.596  -1.886  1.00  0.00     0.258 C 
HETATM    7  O   UNL     1      45.886 -27.728  -1.487  1.00  0.00    -0.269 OA
HETATM    8  H   UNL     1      43.612 -29.980  -1.347  1.00  0.00     0.190 HD
BRANCH   6   9
HETATM    9  C   UNL     1      45.159 -29.180  -3.310  1.00  0.00     0.173 C 
HETATM   10  C   UNL     1      43.745 -29.418  -3.829  1.00  0.00     0.042 C 
BRANCH   9  11
HETATM   11  N   UNL     1      45.878 -30.454  -3.287  1.00  0.00    -0.356 N 
HETATM   12  H   UNL     1      45.328 -31.248  -3.613  1.00  0.00     0.162 HD
BRANCH  11  13
HETATM   13  C   UNL     1      46.822 -30.676  -2.349  1.00  0.00     0.168 A 
HETATM   14  S   UNL     1      46.538 -31.817  -1.096  1.00  0.00    -0.050 SA
HETATM   15  C   UNL     1      48.091 -31.490  -0.434  1.00  0.00     0.037 A 
HETATM   16  C   UNL     1      48.718 -30.521  -1.218  1.00  0.00     0.076 A 
HETATM   17  C   UNL     1      48.712 -32.046   0.696  1.00  0.00     0.021 A 
HETATM   18  N   UNL     1      47.988 -30.076  -2.306  1.00  0.00    -0.223 NA
HETATM   19  C   UNL     1      50.006 -30.082  -0.851  1.00  0.00     0.033 A 
HETATM   20  C   UNL     1      50.632 -30.624   0.277  1.00  0.00     0.002 A 
HETATM   21  C   UNL     1      49.991 -31.596   1.037  1.00  0.00     0.002 A 
ENDBRANCH  11  13
ENDBRANCH   9  11
ENDBRANCH   6   9
ENDBRANCH   2   5
BRANCH   1  22
HETATM   22  C   UNL     1      43.905 -29.455   2.626  1.00  0.00     0.227 C 
BRANCH  22  23
HETATM   23  N   UNL     1      45.204 -29.920   3.072  1.00  0.00    -0.348 N 
HETATM   24  C   UNL     1      46.327 -29.165   2.809  1.00  0.00     0.252 C 
HETATM   25  O   UNL     1      46.291 -28.133   2.149  1.00  0.00    -0.268 OA
HETATM   26  H   UNL     1      45.218 -30.548   3.866  1.00  0.00     0.163 HD
BRANCH  24  27
HETATM   27  C   UNL     1      47.601 -29.638   3.418  1.00  0.00     0.032 A 
HETATM   28  C   UNL     1      47.591 -30.833   4.146  1.00  0.00     0.024 A 
HETATM   29  C   UNL     1      48.764 -31.325   4.744  1.00  0.00    -0.055 A 
HETATM   30  C   UNL     1      49.957 -30.581   4.635  1.00  0.00    -0.056 A 
HETATM   31  C   UNL     1      48.705 -32.613   5.520  1.00  0.00     0.049 C 
HETATM   32  C   UNL     1      51.239 -31.054   5.262  1.00  0.00     0.049 C 
HETATM   33  C   UNL     1      49.955 -29.381   3.905  1.00  0.00     0.008 A 
HETATM   34  C   UNL     1      48.787 -28.908   3.303  1.00  0.00     0.017 A 
ENDBRANCH  24  27
ENDBRANCH  22  23
ENDBRANCH   1  22
TORSDOF 7
ENDMDL
MODEL 10
REMARK VINA RESULT:      -8.3      3.692      9.308
REMARK  7 active torsions:
REMARK  status: ('A' for Active; 'I' for Inactive)
REMARK    1  A    between atoms: C_6  and  C_7 
REMARK       I    between atoms: C_7  and  N_8 
REMARK    2  A    between atoms: N_8  and  C_9 
REMARK    3  A    between atoms: C_9  and  C_10 
REMARK       I    between atoms: C_10  and  N_11 
REMARK    4  A    between atoms: N_11  and  N_12 
REMARK       I    between atoms: N_12  and  C_13 
REMARK    5  A    between atoms: C_13  and  C_14 
REMARK    6  A    between atoms: C_14  and  N_15 
REMARK    7  A    between atoms: N_15  and  C_16 
ROOT
HETATM    1  C   UNL     1      39.652 -11.413   5.280  1.00  0.00     0.253 C 
HETATM    2  N   UNL     1      38.916 -11.105   6.404  1.00  0.00    -0.266 N 
HETATM    3  O   UNL     1      40.592 -10.717   4.891  1.00  0.00    -0.270 OA
HETATM    4  H   UNL     1      38.129 -11.663   6.733  1.00  0.00     0.190 HD
ENDROOT
BRANCH   2   5
HETATM    5  N   UNL     1      39.364 -10.066   7.226  1.00  0.00    -0.266 N 
HETATM    6  C   UNL     1      39.126 -10.174   8.585  1.00  0.00     0.258 C 
HETATM    7  O   UNL     1      38.360 -11.014   9.064  1.00  0.00    -0.269 OA
HETATM    8  H   UNL     1      40.155  -9.535   6.863  1.00  0.00     0.190 HD
BRANCH   6   9
HETATM    9  C   UNL     1      39.888  -9.149   9.445  1.00  0.00     0.173 C 
HETATM   10  C   UNL     1      38.900  -8.215  10.137  1.00  0.00     0.042 C 
BRANCH   9  11
HETATM   11  N   UNL     1      40.772  -8.357   8.590  1.00  0.00    -0.356 N 
HETATM   12  H   UNL     1      40.294  -7.879   7.826  1.00  0.00     0.162 HD
BRANCH  11  13
HETATM   13  C   UNL     1      42.048  -8.751   8.396  1.00  0.00     0.168 A 
HETATM   14  S   UNL     1      43.344  -7.786   8.981  1.00  0.00    -0.050 SA
HETATM   15  C   UNL     1      44.479  -8.919   8.361  1.00  0.00     0.037 A 
HETATM   16  C   UNL     1      43.784  -9.957   7.741  1.00  0.00     0.076 A 
HETATM   17  C   UNL     1      45.882  -8.893   8.415  1.00  0.00     0.021 A 
HETATM   18  N   UNL     1      42.404  -9.851   7.777  1.00  0.00    -0.223 NA
HETATM   19  C   UNL     1      44.517 -11.001   7.142  1.00  0.00     0.033 A 
HETATM   20  C   UNL     1      45.915 -10.983   7.183  1.00  0.00     0.002 A 
HETATM   21  C   UNL     1      46.587  -9.942   7.816  1.00  0.00     0.002 A 
ENDBRANCH  11  13
ENDBRANCH   9  11
ENDBRANCH   6   9
ENDBRANCH   2   5
BRANCH   1  22
HETATM   22  C   UNL     1      39.159 -12.635   4.514  1.00  0.00     0.227 C 
BRANCH  22  23
HETATM   23  N   UNL     1      40.220 -13.621   4.443  1.00  0.00    -0.348 N 
HETATM   24  C   UNL     1      40.444 -14.460   5.514  1.00  0.00     0.252 C 
HETATM   25  O   UNL     1      39.824 -14.369   6.568  1.00  0.00    -0.268 OA
HETATM   26  H   UNL     1      40.498 -13.930   3.520  1.00  0.00     0.163 HD
BRANCH  24  27
HETATM   27  C   UNL     1      41.454 -15.535   5.314  1.00  0.00     0.032 A 
HETATM   28  C   UNL     1      41.861 -15.836   4.008  1.00  0.00     0.024 A 
HETATM   29  C   UNL     1      42.810 -16.842   3.761  1.00  0.00    -0.055 A 
HETATM   30  C   UNL     1      43.329 -17.581   4.844  1.00  0.00    -0.056 A 
HETATM   31  C   UNL     1      43.214 -17.134   2.341  1.00  0.00     0.049 C 
HETATM   32  C   UNL     1      44.340 -18.675   4.638  1.00  0.00     0.049 C 
HETATM   33  C   UNL     1      42.913 -17.272   6.150  1.00  0.00     0.008 A 
HETATM   34  C   UNL     1      41.980 -16.261   6.386  1.00  0.00     0.017 A 
ENDBRANCH  24  27
ENDBRANCH  22  23
ENDBRANCH   1  22
TORSDOF 7
ENDMDL
