MODEL 1
REMARK VINA RESULT:      -8.6      0.000      0.000
REMARK  8 active torsions:
REMARK  status: ('A' for Active; 'I' for Inactive)
REMARK    1  A    between atoms: C_2  and  O_3 
REMARK    2  A    between atoms: O_3  and  C_4 
REMARK    3  A    between atoms: C_5  and  O_6 
REMARK    4  A    between atoms: O_6  and  C_7 
REMARK    5  A    between atoms: C_7  and  C_8 
REMARK       I    between atoms: C_8  and  N_9 
REMARK    6  A    between atoms: C_13  and  C_14 
REMARK    7  A    between atoms: C_21  and  C_22 
REMARK       I    between atoms: C_22  and  N_23 
REMARK    8  A    between atoms: N_23  and  C_24 
ROOT
HETATM    1  C   UNL     1      43.107 -13.481   4.805  1.00  0.00     0.160 C 
HETATM    2  N   UNL     1      43.649 -12.293   5.438  1.00  0.00    -0.330 N 
HETATM    3  C   UNL     1      43.777 -12.117   6.778  1.00  0.00     0.321 C 
HETATM    4  O   UNL     1      44.101 -11.034   7.254  1.00  0.00    -0.247 OA
HETATM    5  N   UNL     1      43.550 -13.210   7.561  1.00  0.00    -0.312 N 
HETATM    6  C   UNL     1      43.204 -14.460   7.101  1.00  0.00     0.024 C 
HETATM    7  C   UNL     1      43.072 -15.533   8.142  1.00  0.00     0.069 C 
HETATM    8  C   UNL     1      43.014 -14.616   5.780  1.00  0.00     0.059 C 
HETATM    9  H   UNL     1      43.767 -11.454   4.887  1.00  0.00     0.165 HD
HETATM   10  H   UNL     1      43.674 -13.050   8.554  1.00  0.00     0.170 HD
ENDROOT
BRANCH   1  11
HETATM   11  C   UNL     1      41.788 -13.175   4.113  1.00  0.00    -0.028 A 
HETATM   12  C   UNL     1      40.676 -12.710   4.830  1.00  0.00     0.012 A 
HETATM   13  C   UNL     1      39.459 -12.492   4.186  1.00  0.00     0.040 A 
HETATM   14  C   UNL     1      39.335 -12.764   2.822  1.00  0.00     0.102 A 
HETATM   15  C   UNL     1      40.435 -13.216   2.076  1.00  0.00     0.102 A 
HETATM   16  C   UNL     1      41.653 -13.420   2.731  1.00  0.00     0.049 A 
BRANCH  14  17
HETATM   17  O   UNL     1      38.154 -12.547   2.156  1.00  0.00    -0.339 OA
BRANCH  17  18
HETATM   18  C   UNL     1      37.963 -11.177   1.793  1.00  0.00     0.278 C 
BRANCH  18  19
HETATM   19  C   UNL     1      37.403 -11.104   0.376  1.00  0.00     0.239 C 
HETATM   20  N   UNL     1      37.739 -12.151  -0.437  1.00  0.00    -0.368 N 
HETATM   21  H   UNL     1      38.493 -12.771  -0.156  1.00  0.00     0.159 HD
HETATM   22  H   UNL     1      37.460 -12.114  -1.406  1.00  0.00     0.159 HD
HETATM   23  O   UNL     1      36.654 -10.213  -0.012  1.00  0.00    -0.271 OA
ENDBRANCH  18  19
ENDBRANCH  17  18
ENDBRANCH  14  17
BRANCH  15  24
HETATM   24  O   UNL     1      40.197 -13.455   0.747  1.00  0.00    -0.349 OA
BRANCH  24  25
HETATM   25  C   UNL     1      40.446 -14.755   0.215  1.00  0.00     0.171 C 
HETATM   26  C   UNL     1      39.802 -15.832   1.072  1.00  0.00     0.034 C 
ENDBRANCH  24  25
ENDBRANCH  15  24
ENDBRANCH   1  11
BRANCH   8  27
HETATM   27  C   UNL     1      42.628 -15.935   5.224  1.00  0.00     0.256 C 
HETATM   28  N   UNL     1      43.726 -16.650   4.796  1.00  0.00    -0.323 N 
HETATM   29  H   UNL     1      44.632 -16.248   4.994  1.00  0.00     0.169 HD
HETATM   30  O   UNL     1      41.452 -16.267   5.212  1.00  0.00    -0.267 OA
BRANCH  28  31
HETATM   31  C   UNL     1      43.732 -17.913   4.154  1.00  0.00     0.041 A 
HETATM   32  C   UNL     1      43.459 -17.976   2.769  1.00  0.00    -0.035 A 
HETATM   33  C   UNL     1      43.173 -16.750   1.944  1.00  0.00     0.050 C 
HETATM   34  C   UNL     1      43.456 -19.226   2.123  1.00  0.00     0.009 A 
HETATM   35  C   UNL     1      43.714 -20.397   2.828  1.00  0.00     0.001 A 
HETATM   36  C   UNL     1      43.976 -20.336   4.190  1.00  0.00     0.002 A 
HETATM   37  C   UNL     1      43.984 -19.103   4.848  1.00  0.00     0.030 A 
ENDBRANCH  28  31
ENDBRANCH   8  27
TORSDOF 8
ENDMDL
MODEL 2
REMARK VINA RESULT:      -8.4      2.187      3.342
REMARK  8 active torsions:
REMARK  status: ('A' for Active; 'I' for Inactive)
REMARK    1  A    between atoms: C_2  and  O_3 
REMARK    2  A    between atoms: O_3  and  C_4 
REMARK    3  A    between atoms: C_5  and  O_6 
REMARK    4  A    between atoms: O_6  and  C_7 
REMARK    5  A    between atoms: C_7  and  C_8 
REMARK       I    between atoms: C_8  and  N_9 
REMARK    6  A    between atoms: C_13  and  C_14 
REMARK    7  A    between atoms: C_21  and  C_22 
REMARK       I    between atoms: C_22  and  N_23 
REMARK    8  A    between atoms: N_23  and  C_24 
ROOT
HETATM    1  C   UNL     1      42.939 -13.783   2.826  1.00  0.00     0.160 C 
HETATM    2  N   UNL     1      43.358 -12.421   3.098  1.00  0.00    -0.330 N 
HETATM    3  C   UNL     1      43.183 -11.777   4.279  1.00  0.00     0.321 C 
HETATM    4  O   UNL     1      43.423 -10.580   4.398  1.00  0.00    -0.247 OA
HETATM    5  N   UNL     1      42.750 -12.533   5.328  1.00  0.00    -0.312 N 
HETATM    6  C   UNL     1      42.480 -13.880   5.279  1.00  0.00     0.024 C 
HETATM    7  C   UNL     1      42.081 -14.521   6.577  1.00  0.00     0.069 C 
HETATM    8  C   UNL     1      42.591 -14.503   4.094  1.00  0.00     0.059 C 
HETATM    9  H   UNL     1      43.624 -11.827   2.326  1.00  0.00     0.165 HD
HETATM   10  H   UNL     1      42.649 -12.025   6.200  1.00  0.00     0.170 HD
ENDROOT
BRANCH   1  11
HETATM   11  C   UNL     1      41.822 -13.813   1.793  1.00  0.00    -0.028 A 
HETATM   12  C   UNL     1      41.472 -14.998   1.129  1.00  0.00     0.012 A 
HETATM   13  C   UNL     1      40.486 -14.992   0.143  1.00  0.00     0.040 A 
HETATM   14  C   UNL     1      39.861 -13.793  -0.208  1.00  0.00     0.102 A 
HETATM   15  C   UNL     1      40.181 -12.596   0.451  1.00  0.00     0.102 A 
HETATM   16  C   UNL     1      41.163 -12.617   1.445  1.00  0.00     0.049 A 
BRANCH  14  17
HETATM   17  O   UNL     1      38.876 -13.756  -1.164  1.00  0.00    -0.339 OA
BRANCH  17  18
HETATM   18  C   UNL     1      39.383 -13.913  -2.492  1.00  0.00     0.278 C 
BRANCH  18  19
HETATM   19  C   UNL     1      38.560 -14.968  -3.224  1.00  0.00     0.239 C 
HETATM   20  N   UNL     1      38.298 -16.102  -2.507  1.00  0.00    -0.368 N 
HETATM   21  H   UNL     1      38.828 -16.284  -1.660  1.00  0.00     0.159 HD
HETATM   22  H   UNL     1      37.824 -16.864  -2.971  1.00  0.00     0.159 HD
HETATM   23  O   UNL     1      38.102 -14.809  -4.351  1.00  0.00    -0.271 OA
ENDBRANCH  18  19
ENDBRANCH  17  18
ENDBRANCH  14  17
BRANCH  15  24
HETATM   24  O   UNL     1      39.508 -11.480   0.021  1.00  0.00    -0.349 OA
BRANCH  24  25
HETATM   25  C   UNL     1      40.146 -10.206   0.099  1.00  0.00     0.171 C 
HETATM   26  C   UNL     1      40.783  -9.830  -1.228  1.00  0.00     0.034 C 
ENDBRANCH  24  25
ENDBRANCH  15  24
ENDBRANCH   1  11
BRANCH   8  27
HETATM   27  C   UNL     1      42.301 -15.953   3.973  1.00  0.00     0.256 C 
HETATM   28  N   UNL     1      43.455 -16.694   3.826  1.00  0.00    -0.323 N 
HETATM   29  H   UNL     1      44.328 -16.192   3.913  1.00  0.00     0.169 HD
HETATM   30  O   UNL     1      41.146 -16.348   4.032  1.00  0.00    -0.267 OA
BRANCH  28  31
HETATM   31  C   UNL     1      43.557 -18.091   3.618  1.00  0.00     0.041 A 
HETATM   32  C   UNL     1      43.761 -18.934   4.733  1.00  0.00    -0.035 A 
HETATM   33  C   UNL     1      43.862 -18.406   6.139  1.00  0.00     0.050 C 
HETATM   34  C   UNL     1      43.871 -20.323   4.537  1.00  0.00     0.009 A 
HETATM   35  C   UNL     1      43.785 -20.875   3.262  1.00  0.00     0.001 A 
HETATM   36  C   UNL     1      43.591 -20.046   2.166  1.00  0.00     0.002 A 
HETATM   37  C   UNL     1      43.479 -18.664   2.343  1.00  0.00     0.030 A 
ENDBRANCH  28  31
ENDBRANCH   8  27
TORSDOF 8
ENDMDL
MODEL 3
REMARK VINA RESULT:      -8.2      1.444      2.429
REMARK  8 active torsions:
REMARK  status: ('A' for Active; 'I' for Inactive)
REMARK    1  A    between atoms: C_2  and  O_3 
REMARK    2  A    between atoms: O_3  and  C_4 
REMARK    3  A    between atoms: C_5  and  O_6 
REMARK    4  A    between atoms: O_6  and  C_7 
REMARK    5  A    between atoms: C_7  and  C_8 
REMARK       I    between atoms: C_8  and  N_9 
REMARK    6  A    between atoms: C_13  and  C_14 
REMARK    7  A    between atoms: C_21  and  C_22 
REMARK       I    between atoms: C_22  and  N_23 
REMARK    8  A    between atoms: N_23  and  C_24 
ROOT
HETATM    1  C   UNL     1      43.110 -13.856   4.017  1.00  0.00     0.160 C 
HETATM    2  N   UNL     1      43.515 -12.572   4.557  1.00  0.00    -0.330 N 
HETATM    3  C   UNL     1      43.309 -12.168   5.836  1.00  0.00     0.321 C 
HETATM    4  O   UNL     1      43.539 -11.016   6.189  1.00  0.00    -0.247 OA
HETATM    5  N   UNL     1      42.857 -13.113   6.709  1.00  0.00    -0.312 N 
HETATM    6  C   UNL     1      42.595 -14.426   6.394  1.00  0.00     0.024 C 
HETATM    7  C   UNL     1      42.171 -15.306   7.534  1.00  0.00     0.069 C 
HETATM    8  C   UNL     1      42.738 -14.808   5.114  1.00  0.00     0.059 C 
HETATM    9  H   UNL     1      43.795 -11.839   3.921  1.00  0.00     0.165 HD
HETATM   10  H   UNL     1      42.733 -12.784   7.660  1.00  0.00     0.170 HD
ENDROOT
BRANCH   1  11
HETATM   11  C   UNL     1      42.018 -13.688   2.973  1.00  0.00    -0.028 A 
HETATM   12  C   UNL     1      42.196 -14.127   1.652  1.00  0.00     0.012 A 
HETATM   13  C   UNL     1      41.206 -13.910   0.695  1.00  0.00     0.040 A 
HETATM   14  C   UNL     1      40.039 -13.225   1.043  1.00  0.00     0.102 A 
HETATM   15  C   UNL     1      39.829 -12.787   2.360  1.00  0.00     0.102 A 
HETATM   16  C   UNL     1      40.824 -13.021   3.314  1.00  0.00     0.049 A 
BRANCH  14  17
HETATM   17  O   UNL     1      39.039 -13.007   0.128  1.00  0.00    -0.339 OA
BRANCH  17  18
HETATM   18  C   UNL     1      39.529 -12.533  -1.129  1.00  0.00     0.278 C 
BRANCH  18  19
HETATM   19  C   UNL     1      38.846 -13.300  -2.257  1.00  0.00     0.239 C 
HETATM   20  N   UNL     1      37.549 -13.659  -2.015  1.00  0.00    -0.368 N 
HETATM   21  H   UNL     1      37.193 -13.611  -1.065  1.00  0.00     0.159 HD
HETATM   22  H   UNL     1      37.076 -14.235  -2.696  1.00  0.00     0.159 HD
HETATM   23  O   UNL     1      39.380 -13.537  -3.337  1.00  0.00    -0.271 OA
ENDBRANCH  18  19
ENDBRANCH  17  18
ENDBRANCH  14  17
BRANCH  15  24
HETATM   24  O   UNL     1      38.651 -12.122   2.587  1.00  0.00    -0.349 OA
BRANCH  24  25
HETATM   25  C   UNL     1      38.688 -10.758   3.004  1.00  0.00     0.171 C 
HETATM   26  C   UNL     1      39.117  -9.847   1.865  1.00  0.00     0.034 C 
ENDBRANCH  24  25
ENDBRANCH  15  24
ENDBRANCH   1  11
BRANCH   8  27
HETATM   27  C   UNL     1      42.460 -16.207   4.708  1.00  0.00     0.256 C 
HETATM   28  N   UNL     1      43.613 -16.961   4.650  1.00  0.00    -0.323 N 
HETATM   29  H   UNL     1      44.461 -16.515   4.972  1.00  0.00     0.169 HD
HETATM   30  O   UNL     1      41.309 -16.560   4.496  1.00  0.00    -0.267 OA
BRANCH  28  31
HETATM   31  C   UNL     1      43.737 -18.310   4.238  1.00  0.00     0.041 A 
HETATM   32  C   UNL     1      43.576 -18.624   2.870  1.00  0.00    -0.035 A 
HETATM   33  C   UNL     1      43.288 -17.577   1.828  1.00  0.00     0.050 C 
HETATM   34  C   UNL     1      43.691 -19.962   2.451  1.00  0.00     0.009 A 
HETATM   35  C   UNL     1      43.957 -20.978   3.364  1.00  0.00     0.001 A 
HETATM   36  C   UNL     1      44.109 -20.671   4.709  1.00  0.00     0.002 A 
HETATM   37  C   UNL     1      43.999 -19.347   5.142  1.00  0.00     0.030 A 
ENDBRANCH  28  31
ENDBRANCH   8  27
TORSDOF 8
ENDMDL
MODEL 4
REMARK VINA RESULT:      -7.9      2.477      3.830
REMARK  8 active torsions:
REMARK  status: ('A' for Active; 'I' for Inactive)
REMARK    1  A    between atoms: C_2  and  O_3 
REMARK    2  A    between atoms: O_3  and  C_4 
REMARK    3  A    between atoms: C_5  and  O_6 
REMARK    4  A    between atoms: O_6  and  C_7 
REMARK    5  A    between atoms: C_7  and  C_8 
REMARK       I    between atoms: C_8  and  N_9 
REMARK    6  A    between atoms: C_13  and  C_14 
REMARK    7  A    between atoms: C_21  and  C_22 
REMARK       I    between atoms: C_22  and  N_23 
REMARK    8  A    between atoms: N_23  and  C_24 
ROOT
HETATM    1  C   UNL     1      41.812 -12.208   2.596  1.00  0.00     0.160 C 
HETATM    2  N   UNL     1      41.906 -10.772   2.779  1.00  0.00    -0.330 N 
HETATM    3  C   UNL     1      41.462 -10.098   3.870  1.00  0.00     0.321 C 
HETATM    4  O   UNL     1      41.434  -8.872   3.898  1.00  0.00    -0.247 OA
HETATM    5  N   UNL     1      41.072 -10.853   4.936  1.00  0.00    -0.312 N 
HETATM    6  C   UNL     1      41.092 -12.227   4.988  1.00  0.00     0.024 C 
HETATM    7  C   UNL     1      40.682 -12.845   6.293  1.00  0.00     0.069 C 
HETATM    8  C   UNL     1      41.471 -12.894   3.885  1.00  0.00     0.059 C 
HETATM    9  H   UNL     1      42.135 -10.190   1.985  1.00  0.00     0.165 HD
HETATM   10  H   UNL     1      40.765 -10.318   5.741  1.00  0.00     0.170 HD
ENDROOT
BRANCH   1  11
HETATM   11  C   UNL     1      40.858 -12.550   1.463  1.00  0.00    -0.028 A 
HETATM   12  C   UNL     1      41.147 -13.574   0.548  1.00  0.00     0.012 A 
HETATM   13  C   UNL     1      40.287 -13.833  -0.519  1.00  0.00     0.040 A 
HETATM   14  C   UNL     1      39.144 -13.050  -0.698  1.00  0.00     0.102 A 
HETATM   15  C   UNL     1      38.823 -12.029   0.211  1.00  0.00     0.102 A 
HETATM   16  C   UNL     1      39.686 -11.787   1.283  1.00  0.00     0.049 A 
BRANCH  14  17
HETATM   17  O   UNL     1      38.270 -13.289  -1.730  1.00  0.00    -0.339 OA
BRANCH  17  18
HETATM   18  C   UNL     1      38.932 -13.586  -2.962  1.00  0.00     0.278 C 
BRANCH  18  19
HETATM   19  C   UNL     1      38.355 -14.872  -3.545  1.00  0.00     0.239 C 
HETATM   20  N   UNL     1      38.239 -15.911  -2.664  1.00  0.00    -0.368 N 
HETATM   21  H   UNL     1      38.730 -15.861  -1.776  1.00  0.00     0.159 HD
HETATM   22  H   UNL     1      37.936 -16.807  -3.015  1.00  0.00     0.159 HD
HETATM   23  O   UNL     1      37.959 -14.974  -4.702  1.00  0.00    -0.271 OA
ENDBRANCH  18  19
ENDBRANCH  17  18
ENDBRANCH  14  17
BRANCH  15  24
HETATM   24  O   UNL     1      37.680 -11.323  -0.065  1.00  0.00    -0.349 OA
BRANCH  24  25
HETATM   25  C   UNL     1      37.204 -10.366   0.880  1.00  0.00     0.171 C 
HETATM   26  C   UNL     1      35.763  -9.981   0.593  1.00  0.00     0.034 C 
ENDBRANCH  24  25
ENDBRANCH  15  24
ENDBRANCH   1  11
BRANCH   8  27
HETATM   27  C   UNL     1      41.502 -14.376   3.872  1.00  0.00     0.256 C 
HETATM   28  N   UNL     1      42.778 -14.862   4.064  1.00  0.00    -0.323 N 
HETATM   29  H   UNL     1      43.493 -14.180   4.278  1.00  0.00     0.169 HD
HETATM   30  O   UNL     1      40.464 -15.004   3.727  1.00  0.00    -0.267 OA
BRANCH  28  31
HETATM   31  C   UNL     1      43.194 -16.216   4.046  1.00  0.00     0.041 A 
HETATM   32  C   UNL     1      43.414 -16.845   2.800  1.00  0.00    -0.035 A 
HETATM   33  C   UNL     1      43.236 -16.129   1.488  1.00  0.00     0.050 C 
HETATM   34  C   UNL     1      43.822 -18.192   2.770  1.00  0.00     0.009 A 
HETATM   35  C   UNL     1      44.007 -18.910   3.948  1.00  0.00     0.001 A 
HETATM   36  C   UNL     1      43.784 -18.293   5.172  1.00  0.00     0.002 A 
HETATM   37  C   UNL     1      43.380 -16.957   5.219  1.00  0.00     0.030 A 
ENDBRANCH  28  31
ENDBRANCH   8  27
TORSDOF 8
ENDMDL
MODEL 5
REMARK VINA RESULT:      -7.9      2.660      7.357
REMARK  8 active torsions:
REMARK  status: ('A' for Active; 'I' for Inactive)
REMARK    1  A    between atoms: C_2  and  O_3 
REMARK    2  A    between atoms: O_3  and  C_4 
REMARK    3  A    between atoms: C_5  and  O_6 
REMARK    4  A    between atoms: O_6  and  C_7 
REMARK    5  A    between atoms: C_7  and  C_8 
REMARK       I    between atoms: C_8  and  N_9 
REMARK    6  A    between atoms: C_13  and  C_14 
REMARK    7  A    between atoms: C_21  and  C_22 
REMARK       I    between atoms: C_22  and  N_23 
REMARK    8  A    between atoms: N_23  and  C_24 
ROOT
HETATM    1  C   UNL     1      39.638 -13.532   3.590  1.00  0.00     0.160 C 
HETATM    2  N   UNL     1      39.327 -13.189   4.965  1.00  0.00    -0.330 N 
HETATM    3  C   UNL     1      39.640 -12.010   5.560  1.00  0.00     0.321 C 
HETATM    4  O   UNL     1      39.484 -11.839   6.765  1.00  0.00    -0.247 OA
HETATM    5  N   UNL     1      40.113 -11.023   4.747  1.00  0.00    -0.312 N 
HETATM    6  C   UNL     1      40.297 -11.132   3.388  1.00  0.00     0.024 C 
HETATM    7  C   UNL     1      40.764  -9.891   2.684  1.00  0.00     0.069 C 
HETATM    8  C   UNL     1      40.048 -12.319   2.811  1.00  0.00     0.059 C 
HETATM    9  H   UNL     1      39.033 -13.918   5.599  1.00  0.00     0.165 HD
HETATM   10  H   UNL     1      40.318 -10.150   5.219  1.00  0.00     0.170 HD
ENDROOT
BRANCH   1  11
HETATM   11  C   UNL     1      40.659 -14.658   3.529  1.00  0.00    -0.028 A 
HETATM   12  C   UNL     1      40.523 -15.720   2.622  1.00  0.00     0.012 A 
HETATM   13  C   UNL     1      41.438 -16.772   2.622  1.00  0.00     0.040 A 
HETATM   14  C   UNL     1      42.482 -16.786   3.550  1.00  0.00     0.102 A 
HETATM   15  C   UNL     1      42.651 -15.730   4.459  1.00  0.00     0.102 A 
HETATM   16  C   UNL     1      41.734 -14.675   4.442  1.00  0.00     0.049 A 
BRANCH  14  17
HETATM   17  O   UNL     1      43.408 -17.800   3.567  1.00  0.00    -0.339 OA
BRANCH  17  18
HETATM   18  C   UNL     1      43.460 -18.528   2.337  1.00  0.00     0.278 C 
BRANCH  18  19
HETATM   19  C   UNL     1      43.706 -20.003   2.635  1.00  0.00     0.239 C 
HETATM   20  N   UNL     1      43.966 -20.298   3.945  1.00  0.00    -0.368 N 
HETATM   21  H   UNL     1      44.203 -19.543   4.582  1.00  0.00     0.159 HD
HETATM   22  H   UNL     1      44.213 -21.247   4.183  1.00  0.00     0.159 HD
HETATM   23  O   UNL     1      43.623 -20.889   1.789  1.00  0.00    -0.271 OA
ENDBRANCH  18  19
ENDBRANCH  17  18
ENDBRANCH  14  17
BRANCH  15  24
HETATM   24  O   UNL     1      43.706 -15.851   5.327  1.00  0.00    -0.349 OA
BRANCH  24  25
HETATM   25  C   UNL     1      43.450 -16.043   6.717  1.00  0.00     0.171 C 
HETATM   26  C   UNL     1      43.475 -17.518   7.081  1.00  0.00     0.034 C 
ENDBRANCH  24  25
ENDBRANCH  15  24
ENDBRANCH   1  11
BRANCH   8  27
HETATM   27  C   UNL     1      40.238 -12.504   1.352  1.00  0.00     0.256 C 
HETATM   28  N   UNL     1      39.076 -12.917   0.734  1.00  0.00    -0.323 N 
HETATM   29  H   UNL     1      38.245 -12.948   1.308  1.00  0.00     0.169 HD
HETATM   30  O   UNL     1      41.326 -12.270   0.847  1.00  0.00    -0.267 OA
BRANCH  28  31
HETATM   31  C   UNL     1      38.903 -13.254  -0.631  1.00  0.00     0.041 A 
HETATM   32  C   UNL     1      38.118 -12.409  -1.448  1.00  0.00    -0.035 A 
HETATM   33  C   UNL     1      37.467 -11.155  -0.927  1.00  0.00     0.050 C 
HETATM   34  C   UNL     1      37.933 -12.738  -2.804  1.00  0.00     0.009 A 
HETATM   35  C   UNL     1      38.509 -13.882  -3.347  1.00  0.00     0.001 A 
HETATM   36  C   UNL     1      39.275 -14.715  -2.543  1.00  0.00     0.002 A 
HETATM   37  C   UNL     1      39.469 -14.403  -1.195  1.00  0.00     0.030 A 
ENDBRANCH  28  31
ENDBRANCH   8  27
TORSDOF 8
ENDMDL
MODEL 6
REMARK VINA RESULT:      -7.8      2.048      6.403
REMARK  8 active torsions:
REMARK  status: ('A' for Active; 'I' for Inactive)
REMARK    1  A    between atoms: C_2  and  O_3 
REMARK    2  A    between atoms: O_3  and  C_4 
REMARK    3  A    between atoms: C_5  and  O_6 
REMARK    4  A    between atoms: O_6  and  C_7 
REMARK    5  A    between atoms: C_7  and  C_8 
REMARK       I    between atoms: C_8  and  N_9 
REMARK    6  A    between atoms: C_13  and  C_14 
REMARK    7  A    between atoms: C_21  and  C_22 
REMARK       I    between atoms: C_22  and  N_23 
REMARK    8  A    between atoms: N_23  and  C_24 
ROOT
HETATM    1  C   UNL     1      39.922 -12.891   3.547  1.00  0.00     0.160 C 
HETATM    2  N   UNL     1      39.167 -11.917   2.781  1.00  0.00    -0.330 N 
HETATM    3  C   UNL     1      38.921 -12.000   1.449  1.00  0.00     0.321 C 
HETATM    4  O   UNL     1      38.408 -11.072   0.833  1.00  0.00    -0.247 OA
HETATM    5  N   UNL     1      39.253 -13.174   0.839  1.00  0.00    -0.312 N 
HETATM    6  C   UNL     1      39.812 -14.264   1.464  1.00  0.00     0.024 C 
HETATM    7  C   UNL     1      40.029 -15.477   0.606  1.00  0.00     0.069 C 
HETATM    8  C   UNL     1      40.115 -14.158   2.768  1.00  0.00     0.059 C 
HETATM    9  H   UNL     1      38.965 -11.018   3.195  1.00  0.00     0.165 HD
HETATM   10  H   UNL     1      39.038 -13.210  -0.151  1.00  0.00     0.170 HD
ENDROOT
BRANCH   1  11
HETATM   11  C   UNL     1      41.226 -12.293   4.052  1.00  0.00    -0.028 A 
HETATM   12  C   UNL     1      42.399 -12.343   3.284  1.00  0.00     0.012 A 
HETATM   13  C   UNL     1      43.598 -11.842   3.790  1.00  0.00     0.040 A 
HETATM   14  C   UNL     1      43.641 -11.311   5.081  1.00  0.00     0.102 A 
HETATM   15  C   UNL     1      42.480 -11.236   5.866  1.00  0.00     0.102 A 
HETATM   16  C   UNL     1      41.281 -11.731   5.344  1.00  0.00     0.049 A 
BRANCH  14  17
HETATM   17  O   UNL     1      44.802 -10.797   5.603  1.00  0.00    -0.339 OA
BRANCH  17  18
HETATM   18  C   UNL     1      45.414 -11.665   6.561  1.00  0.00     0.278 C 
BRANCH  18  19
HETATM   19  C   UNL     1      45.922 -10.837   7.738  1.00  0.00     0.239 C 
HETATM   20  N   UNL     1      46.811  -9.850   7.415  1.00  0.00    -0.368 N 
HETATM   21  H   UNL     1      47.250  -9.862   6.499  1.00  0.00     0.159 HD
HETATM   22  H   UNL     1      47.237  -9.325   8.164  1.00  0.00     0.159 HD
HETATM   23  O   UNL     1      45.530 -10.987   8.891  1.00  0.00    -0.271 OA
ENDBRANCH  18  19
ENDBRANCH  17  18
ENDBRANCH  14  17
BRANCH  15  24
HETATM   24  O   UNL     1      42.639 -10.701   7.119  1.00  0.00    -0.349 OA
BRANCH  24  25
HETATM   25  C   UNL     1      42.235  -9.355   7.362  1.00  0.00     0.171 C 
HETATM   26  C   UNL     1      40.911  -9.305   8.106  1.00  0.00     0.034 C 
ENDBRANCH  24  25
ENDBRANCH  15  24
ENDBRANCH   1  11
BRANCH   8  27
HETATM   27  C   UNL     1      40.731 -15.293   3.496  1.00  0.00     0.256 C 
HETATM   28  N   UNL     1      42.004 -15.562   3.040  1.00  0.00    -0.323 N 
HETATM   29  H   UNL     1      42.386 -14.917   2.360  1.00  0.00     0.169 HD
HETATM   30  O   UNL     1      40.113 -15.846   4.394  1.00  0.00    -0.267 OA
BRANCH  28  31
HETATM   31  C   UNL     1      42.861 -16.610   3.453  1.00  0.00     0.041 A 
HETATM   32  C   UNL     1      43.562 -16.479   4.673  1.00  0.00    -0.035 A 
HETATM   33  C   UNL     1      43.424 -15.271   5.560  1.00  0.00     0.050 C 
HETATM   34  C   UNL     1      44.421 -17.512   5.090  1.00  0.00     0.009 A 
HETATM   35  C   UNL     1      44.593 -18.657   4.316  1.00  0.00     0.001 A 
HETATM   36  C   UNL     1      43.909 -18.783   3.114  1.00  0.00     0.002 A 
HETATM   37  C   UNL     1      43.051 -17.767   2.686  1.00  0.00     0.030 A 
ENDBRANCH  28  31
ENDBRANCH   8  27
TORSDOF 8
ENDMDL
MODEL 7
REMARK VINA RESULT:      -7.6      2.755      7.389
REMARK  8 active torsions:
REMARK  status: ('A' for Active; 'I' for Inactive)
REMARK    1  A    between atoms: C_2  and  O_3 
REMARK    2  A    between atoms: O_3  and  C_4 
REMARK    3  A    between atoms: C_5  and  O_6 
REMARK    4  A    between atoms: O_6  and  C_7 
REMARK    5  A    between atoms: C_7  and  C_8 
REMARK       I    between atoms: C_8  and  N_9 
REMARK    6  A    between atoms: C_13  and  C_14 
REMARK    7  A    between atoms: C_21  and  C_22 
REMARK       I    between atoms: C_22  and  N_23 
REMARK    8  A    between atoms: N_23  and  C_24 
ROOT
HETATM    1  C   UNL     1      40.413 -13.929   3.825  1.00  0.00     0.160 C 
HETATM    2  N   UNL     1      39.788 -13.710   5.116  1.00  0.00    -0.330 N 
HETATM    3  C   UNL     1      39.904 -12.576   5.852  1.00  0.00     0.321 C 
HETATM    4  O   UNL     1      39.477 -12.510   6.999  1.00  0.00    -0.247 OA
HETATM    5  N   UNL     1      40.497 -11.511   5.241  1.00  0.00    -0.312 N 
HETATM    6  C   UNL     1      40.983 -11.501   3.954  1.00  0.00     0.024 C 
HETATM    7  C   UNL     1      41.534 -10.192   3.466  1.00  0.00     0.069 C 
HETATM    8  C   UNL     1      40.926 -12.644   3.249  1.00  0.00     0.059 C 
HETATM    9  H   UNL     1      39.397 -14.499   5.611  1.00  0.00     0.165 HD
HETATM   10  H   UNL     1      40.550 -10.674   5.810  1.00  0.00     0.170 HD
ENDROOT
BRANCH   1  11
HETATM   11  C   UNL     1      41.476 -15.014   3.912  1.00  0.00    -0.028 A 
HETATM   12  C   UNL     1      41.496 -16.092   3.014  1.00  0.00     0.012 A 
HETATM   13  C   UNL     1      42.443 -17.106   3.147  1.00  0.00     0.040 A 
HETATM   14  C   UNL     1      43.361 -17.068   4.199  1.00  0.00     0.102 A 
HETATM   15  C   UNL     1      43.373 -15.994   5.103  1.00  0.00     0.102 A 
HETATM   16  C   UNL     1      42.427 -14.976   4.952  1.00  0.00     0.049 A 
BRANCH  14  17
HETATM   17  O   UNL     1      44.315 -18.044   4.350  1.00  0.00    -0.339 OA
BRANCH  17  18
HETATM   18  C   UNL     1      43.856 -19.155   5.123  1.00  0.00     0.278 C 
BRANCH  18  19
HETATM   19  C   UNL     1      43.954 -20.426   4.285  1.00  0.00     0.239 C 
HETATM   20  N   UNL     1      44.067 -21.587   4.999  1.00  0.00    -0.368 N 
HETATM   21  H   UNL     1      44.306 -21.537   5.985  1.00  0.00     0.159 HD
HETATM   22  H   UNL     1      44.214 -22.448   4.494  1.00  0.00     0.159 HD
HETATM   23  O   UNL     1      43.877 -20.439   3.061  1.00  0.00    -0.271 OA
ENDBRANCH  18  19
ENDBRANCH  17  18
ENDBRANCH  14  17
BRANCH  15  24
HETATM   24  O   UNL     1      44.314 -16.062   6.098  1.00  0.00    -0.349 OA
BRANCH  24  25
HETATM   25  C   UNL     1      43.936 -16.542   7.387  1.00  0.00     0.171 C 
HETATM   26  C   UNL     1      43.085 -15.522   8.125  1.00  0.00     0.034 C 
ENDBRANCH  24  25
ENDBRANCH  15  24
ENDBRANCH   1  11
BRANCH   8  27
HETATM   27  C   UNL     1      41.443 -12.701   1.861  1.00  0.00     0.256 C 
HETATM   28  N   UNL     1      40.447 -12.478   0.934  1.00  0.00    -0.323 N 
HETATM   29  H   UNL     1      39.541 -12.217   1.299  1.00  0.00     0.169 HD
HETATM   30  O   UNL     1      42.632 -12.904   1.664  1.00  0.00    -0.267 OA
BRANCH  28  31
HETATM   31  C   UNL     1      40.560 -12.524  -0.476  1.00  0.00     0.041 A 
HETATM   32  C   UNL     1      40.209 -13.714  -1.151  1.00  0.00    -0.035 A 
HETATM   33  C   UNL     1      39.706 -14.936  -0.430  1.00  0.00     0.050 C 
HETATM   34  C   UNL     1      40.323 -13.772  -2.553  1.00  0.00     0.009 A 
HETATM   35  C   UNL     1      40.780 -12.677  -3.280  1.00  0.00     0.001 A 
HETATM   36  C   UNL     1      41.131 -11.509  -2.616  1.00  0.00     0.002 A 
HETATM   37  C   UNL     1      41.022 -11.434  -1.225  1.00  0.00     0.030 A 
ENDBRANCH  28  31
ENDBRANCH   8  27
TORSDOF 8
ENDMDL
MODEL 8
REMARK VINA RESULT:      -7.5      2.289      7.625
REMARK  8 active torsions:
REMARK  status: ('A' for Active; 'I' for Inactive)
REMARK    1  A    between atoms: C_2  and  O_3 
REMARK    2  A    between atoms: O_3  and  C_4 
REMARK    3  A    between atoms: C_5  and  O_6 
REMARK    4  A    between atoms: O_6  and  C_7 
REMARK    5  A    between atoms: C_7  and  C_8 
REMARK       I    between atoms: C_8  and  N_9 
REMARK    6  A    between atoms: C_13  and  C_14 
REMARK    7  A    between atoms: C_21  and  C_22 
REMARK       I    between atoms: C_22  and  N_23 
REMARK    8  A    between atoms: N_23  and  C_24 
ROOT
HETATM    1  C   UNL     1      42.066 -13.740   1.322  1.00  0.00     0.160 C 
HETATM    2  N   UNL     1      41.160 -14.134   0.259  1.00  0.00    -0.330 N 
HETATM    3  C   UNL     1      39.872 -13.722   0.145  1.00  0.00     0.321 C 
HETATM    4  O   UNL     1      39.116 -14.207  -0.689  1.00  0.00    -0.247 OA
HETATM    5  N   UNL     1      39.473 -12.727   0.988  1.00  0.00    -0.312 N 
HETATM    6  C   UNL     1      40.267 -12.120   1.934  1.00  0.00     0.024 C 
HETATM    7  C   UNL     1      39.634 -10.997   2.703  1.00  0.00     0.069 C 
HETATM    8  C   UNL     1      41.522 -12.573   2.089  1.00  0.00     0.059 C 
HETATM    9  H   UNL     1      41.412 -14.909  -0.338  1.00  0.00     0.165 HD
HETATM   10  H   UNL     1      38.513 -12.429   0.863  1.00  0.00     0.170 HD
ENDROOT
BRANCH   1  11
HETATM   11  C   UNL     1      42.418 -14.928   2.205  1.00  0.00    -0.028 A 
HETATM   12  C   UNL     1      43.501 -15.767   1.903  1.00  0.00     0.012 A 
HETATM   13  C   UNL     1      43.771 -16.885   2.692  1.00  0.00     0.040 A 
HETATM   14  C   UNL     1      42.942 -17.190   3.774  1.00  0.00     0.102 A 
HETATM   15  C   UNL     1      41.860 -16.359   4.107  1.00  0.00     0.102 A 
HETATM   16  C   UNL     1      41.606 -15.235   3.316  1.00  0.00     0.049 A 
BRANCH  14  17
HETATM   17  O   UNL     1      43.188 -18.275   4.578  1.00  0.00    -0.339 OA
BRANCH  17  18
HETATM   18  C   UNL     1      44.362 -18.997   4.195  1.00  0.00     0.278 C 
BRANCH  18  19
HETATM   19  C   UNL     1      44.000 -20.461   3.967  1.00  0.00     0.239 C 
HETATM   20  N   UNL     1      44.014 -21.246   5.086  1.00  0.00    -0.368 N 
HETATM   21  H   UNL     1      44.466 -20.897   5.927  1.00  0.00     0.159 HD
HETATM   22  H   UNL     1      43.859 -22.237   4.979  1.00  0.00     0.159 HD
HETATM   23  O   UNL     1      43.658 -20.913   2.878  1.00  0.00    -0.271 OA
ENDBRANCH  18  19
ENDBRANCH  17  18
ENDBRANCH  14  17
BRANCH  15  24
HETATM   24  O   UNL     1      41.111 -16.758   5.185  1.00  0.00    -0.349 OA
BRANCH  24  25
HETATM   25  C   UNL     1      41.216 -16.040   6.413  1.00  0.00     0.171 C 
HETATM   26  C   UNL     1      40.250 -14.867   6.448  1.00  0.00     0.034 C 
ENDBRANCH  24  25
ENDBRANCH  15  24
ENDBRANCH   1  11
BRANCH   8  27
HETATM   27  C   UNL     1      42.423 -11.969   3.100  1.00  0.00     0.256 C 
HETATM   28  N   UNL     1      41.913 -12.090   4.376  1.00  0.00    -0.323 N 
HETATM   29  H   UNL     1      41.070 -12.639   4.475  1.00  0.00     0.169 HD
HETATM   30  O   UNL     1      43.481 -11.469   2.749  1.00  0.00    -0.267 OA
BRANCH  28  31
HETATM   31  C   UNL     1      42.465 -11.575   5.574  1.00  0.00     0.041 A 
HETATM   32  C   UNL     1      43.373 -12.373   6.306  1.00  0.00    -0.035 A 
HETATM   33  C   UNL     1      43.787 -13.749   5.855  1.00  0.00     0.050 C 
HETATM   34  C   UNL     1      43.923 -11.874   7.501  1.00  0.00     0.009 A 
HETATM   35  C   UNL     1      43.582 -10.609   7.972  1.00  0.00     0.001 A 
HETATM   36  C   UNL     1      42.685  -9.827   7.256  1.00  0.00     0.002 A 
HETATM   37  C   UNL     1      42.131 -10.308   6.067  1.00  0.00     0.030 A 
ENDBRANCH  28  31
ENDBRANCH   8  27
TORSDOF 8
ENDMDL
MODEL 9
REMARK VINA RESULT:      -7.3      2.439      7.885
REMARK  8 active torsions:
REMARK  status: ('A' for Active; 'I' for Inactive)
REMARK    1  A    between atoms: C_2  and  O_3 
REMARK    2  A    between atoms: O_3  and  C_4 
REMARK    3  A    between atoms: C_5  and  O_6 
REMARK    4  A    between atoms: O_6  and  C_7 
REMARK    5  A    between atoms: C_7  and  C_8 
REMARK       I    between atoms: C_8  and  N_9 
REMARK    6  A    between atoms: C_13  and  C_14 
REMARK    7  A    between atoms: C_21  and  C_22 
REMARK       I    between atoms: C_22  and  N_23 
REMARK    8  A    between atoms: N_23  and  C_24 
ROOT
HETATM    1  C   UNL     1      41.890 -13.575   1.766  1.00  0.00     0.160 C 
HETATM    2  N   UNL     1      41.621 -13.763   0.353  1.00  0.00    -0.330 N 
HETATM    3  C   UNL     1      40.399 -13.649  -0.227  1.00  0.00     0.321 C 
HETATM    4  O   UNL     1      40.213 -13.967  -1.397  1.00  0.00    -0.247 OA
HETATM    5  N   UNL     1      39.401 -13.141   0.550  1.00  0.00    -0.312 N 
HETATM    6  C   UNL     1      39.536 -12.744   1.860  1.00  0.00     0.024 C 
HETATM    7  C   UNL     1      38.315 -12.149   2.499  1.00  0.00     0.069 C 
HETATM    8  C   UNL     1      40.730 -12.919   2.452  1.00  0.00     0.059 C 
HETATM    9  H   UNL     1      42.327 -14.194  -0.227  1.00  0.00     0.165 HD
HETATM   10  H   UNL     1      38.507 -13.050   0.081  1.00  0.00     0.170 HD
ENDROOT
BRANCH   1  11
HETATM   11  C   UNL     1      42.311 -14.883   2.419  1.00  0.00    -0.028 A 
HETATM   12  C   UNL     1      41.979 -16.123   1.852  1.00  0.00     0.012 A 
HETATM   13  C   UNL     1      42.324 -17.310   2.497  1.00  0.00     0.040 A 
HETATM   14  C   UNL     1      42.979 -17.268   3.730  1.00  0.00     0.102 A 
HETATM   15  C   UNL     1      43.337 -16.042   4.312  1.00  0.00     0.102 A 
HETATM   16  C   UNL     1      42.996 -14.858   3.651  1.00  0.00     0.049 A 
BRANCH  14  17
HETATM   17  O   UNL     1      43.345 -18.419   4.383  1.00  0.00    -0.339 OA
BRANCH  17  18
HETATM   18  C   UNL     1      44.400 -19.122   3.724  1.00  0.00     0.278 C 
BRANCH  18  19
HETATM   19  C   UNL     1      43.931 -20.533   3.385  1.00  0.00     0.239 C 
HETATM   20  N   UNL     1      43.981 -21.428   4.419  1.00  0.00    -0.368 N 
HETATM   21  H   UNL     1      44.517 -21.191   5.249  1.00  0.00     0.159 HD
HETATM   22  H   UNL     1      43.755 -22.393   4.230  1.00  0.00     0.159 HD
HETATM   23  O   UNL     1      43.478 -20.854   2.290  1.00  0.00    -0.271 OA
ENDBRANCH  18  19
ENDBRANCH  17  18
ENDBRANCH  14  17
BRANCH  15  24
HETATM   24  O   UNL     1      43.972 -16.120   5.525  1.00  0.00    -0.349 OA
BRANCH  24  25
HETATM   25  C   UNL     1      43.198 -16.087   6.723  1.00  0.00     0.171 C 
HETATM   26  C   UNL     1      43.143 -14.683   7.303  1.00  0.00     0.034 C 
ENDBRANCH  24  25
ENDBRANCH  15  24
ENDBRANCH   1  11
BRANCH   8  27
HETATM   27  C   UNL     1      40.936 -12.523   3.866  1.00  0.00     0.256 C 
HETATM   28  N   UNL     1      41.822 -11.472   3.978  1.00  0.00    -0.323 N 
HETATM   29  H   UNL     1      42.136 -11.052   3.114  1.00  0.00     0.169 HD
HETATM   30  O   UNL     1      40.329 -13.103   4.754  1.00  0.00    -0.267 OA
BRANCH  28  31
HETATM   31  C   UNL     1      42.305 -10.879   5.170  1.00  0.00     0.041 A 
HETATM   32  C   UNL     1      41.602  -9.783   5.720  1.00  0.00    -0.035 A 
HETATM   33  C   UNL     1      40.350  -9.227   5.095  1.00  0.00     0.050 C 
HETATM   34  C   UNL     1      42.076  -9.182   6.901  1.00  0.00     0.009 A 
HETATM   35  C   UNL     1      43.227  -9.649   7.530  1.00  0.00     0.001 A 
HETATM   36  C   UNL     1      43.920 -10.721   6.986  1.00  0.00     0.002 A 
HETATM   37  C   UNL     1      43.463 -11.330   5.814  1.00  0.00     0.030 A 
ENDBRANCH  28  31
ENDBRANCH   8  27
TORSDOF 8
ENDMDL
MODEL 10
REMARK VINA RESULT:      -7.2      2.366      3.730
REMARK  8 active torsions:
REMARK  status: ('A' for Active; 'I' for Inactive)
REMARK    1  A    between atoms: C_2  and  O_3 
REMARK    2  A    between atoms: O_3  and  C_4 
REMARK    3  A    between atoms: C_5  and  O_6 
REMARK    4  A    between atoms: O_6  and  C_7 
REMARK    5  A    between atoms: C_7  and  C_8 
REMARK       I    between atoms: C_8  and  N_9 
REMARK    6  A    between atoms: C_13  and  C_14 
REMARK    7  A    between atoms: C_21  and  C_22 
REMARK       I    between atoms: C_22  and  N_23 
REMARK    8  A    between atoms: N_23  and  C_24 
ROOT
HETATM    1  C   UNL     1      40.967 -12.639   3.936  1.00  0.00     0.160 C 
HETATM    2  N   UNL     1      40.068 -11.792   4.697  1.00  0.00    -0.330 N 
HETATM    3  C   UNL     1      39.341 -12.198   5.769  1.00  0.00     0.321 C 
HETATM    4  O   UNL     1      38.488 -11.476   6.275  1.00  0.00    -0.247 OA
HETATM    5  N   UNL     1      39.625 -13.436   6.265  1.00  0.00    -0.312 N 
HETATM    6  C   UNL     1      40.578 -14.293   5.766  1.00  0.00     0.024 C 
HETATM    7  C   UNL     1      40.766 -15.579   6.517  1.00  0.00     0.069 C 
HETATM    8  C   UNL     1      41.252 -13.916   4.666  1.00  0.00     0.059 C 
HETATM    9  H   UNL     1      39.798 -10.896   4.317  1.00  0.00     0.165 HD
HETATM   10  H   UNL     1      39.079 -13.700   7.077  1.00  0.00     0.170 HD
ENDROOT
BRANCH   1  11
HETATM   11  C   UNL     1      40.444 -12.857   2.525  1.00  0.00    -0.028 A 
HETATM   12  C   UNL     1      41.025 -13.804   1.668  1.00  0.00     0.012 A 
HETATM   13  C   UNL     1      40.569 -13.948   0.359  1.00  0.00     0.040 A 
HETATM   14  C   UNL     1      39.545 -13.125  -0.116  1.00  0.00     0.102 A 
HETATM   15  C   UNL     1      38.936 -12.179   0.723  1.00  0.00     0.102 A 
HETATM   16  C   UNL     1      39.394 -12.053   2.038  1.00  0.00     0.049 A 
BRANCH  14  17
HETATM   17  O   UNL     1      39.064 -13.251  -1.396  1.00  0.00    -0.339 OA
BRANCH  17  18
HETATM   18  C   UNL     1      39.757 -14.244  -2.156  1.00  0.00     0.278 C 
BRANCH  18  19
HETATM   19  C   UNL     1      38.755 -15.015  -3.010  1.00  0.00     0.239 C 
HETATM   20  N   UNL     1      38.316 -16.193  -2.472  1.00  0.00    -0.368 N 
HETATM   21  H   UNL     1      38.823 -16.596  -1.689  1.00  0.00     0.159 HD
HETATM   22  H   UNL     1      37.713 -16.779  -3.029  1.00  0.00     0.159 HD
HETATM   23  O   UNL     1      38.311 -14.600  -4.076  1.00  0.00    -0.271 OA
ENDBRANCH  18  19
ENDBRANCH  17  18
ENDBRANCH  14  17
BRANCH  15  24
HETATM   24  O   UNL     1      37.946 -11.423   0.150  1.00  0.00    -0.349 OA
BRANCH  24  25
HETATM   25  C   UNL     1      37.495 -10.243   0.813  1.00  0.00     0.171 C 
HETATM   26  C   UNL     1      36.013 -10.010   0.573  1.00  0.00     0.034 C 
ENDBRANCH  24  25
ENDBRANCH  15  24
ENDBRANCH   1  11
BRANCH   8  27
HETATM   27  C   UNL     1      42.283 -14.801   4.073  1.00  0.00     0.256 C 
HETATM   28  N   UNL     1      41.893 -16.124   4.091  1.00  0.00    -0.323 N 
HETATM   29  H   UNL     1      40.951 -16.312   4.405  1.00  0.00     0.169 HD
HETATM   30  O   UNL     1      43.312 -14.318   3.625  1.00  0.00    -0.267 OA
BRANCH  28  31
HETATM   31  C   UNL     1      42.647 -17.247   3.672  1.00  0.00     0.041 A 
HETATM   32  C   UNL     1      43.654 -17.750   4.526  1.00  0.00    -0.035 A 
HETATM   33  C   UNL     1      43.951 -17.146   5.872  1.00  0.00     0.050 C 
HETATM   34  C   UNL     1      44.413 -18.863   4.116  1.00  0.00     0.009 A 
HETATM   35  C   UNL     1      44.187 -19.469   2.884  1.00  0.00     0.001 A 
HETATM   36  C   UNL     1      43.201 -18.971   2.043  1.00  0.00     0.002 A 
HETATM   37  C   UNL     1      42.438 -17.867   2.434  1.00  0.00     0.030 A 
ENDBRANCH  28  31
ENDBRANCH   8  27
TORSDOF 8
ENDMDL
