MODEL 1
REMARK VINA RESULT:      -8.0      0.000      0.000
REMARK  3 active torsions:
REMARK  status: ('A' for Active; 'I' for Inactive)
REMARK    1  A    between atoms: C_8  and  N_9 
REMARK       I    between atoms: N_9  and  C_10 
REMARK       I    between atoms: C_10  and  N_11 
REMARK    2  A    between atoms: N_11  and  C_12 
REMARK    3  A    between atoms: C_16  and  O_17 
ROOT
HETATM    1  N   UNL     1      41.007 -14.178   0.307  1.00  0.00    -0.305 N 
HETATM    2  C   UNL     1      41.071 -15.285   1.133  1.00  0.00     0.325 C 
HETATM    3  N   UNL     1      42.400 -15.617   1.375  1.00  0.00    -0.309 N 
HETATM    4  O   UNL     1      40.113 -15.877   1.607  1.00  0.00    -0.247 OA
HETATM    5  H   UNL     1      41.853 -13.639   0.210  1.00  0.00     0.171 HD
HETATM    6  H   UNL     1      43.073 -15.202   0.748  1.00  0.00     0.170 HD
ENDROOT
BRANCH   1   7
HETATM    7  C   UNL     1      39.869 -13.570  -0.197  1.00  0.00     0.086 A 
HETATM    8  C   UNL     1      39.213 -12.574   0.506  1.00  0.00     0.052 A 
HETATM    9  C   UNL     1      39.470 -11.941   1.821  1.00  0.00     0.072 C 
HETATM   10  N   UNL     1      38.144 -12.214  -0.264  1.00  0.00    -0.280 N 
HETATM   11  H   UNL     1      37.431 -11.521  -0.063  1.00  0.00     0.189 HD
HETATM   12  N   UNL     1      38.067 -12.875  -1.421  1.00  0.00    -0.177 NA
HETATM   13  C   UNL     1      39.117 -13.710  -1.401  1.00  0.00     0.079 A 
HETATM   14  C   UNL     1      39.336 -14.583  -2.582  1.00  0.00     0.075 C 
ENDBRANCH   1   7
BRANCH   3  15
HETATM   15  C   UNL     1      42.909 -16.529   2.324  1.00  0.00     0.039 A 
HETATM   16  C   UNL     1      43.373 -16.167   3.589  1.00  0.00     0.056 A 
HETATM   17  C   UNL     1      43.920 -17.132   4.446  1.00  0.00     0.071 A 
HETATM   18 CL   UNL     1      44.492 -16.623   5.995  1.00  0.00    -0.081 Cl
HETATM   19  C   UNL     1      44.003 -18.472   4.050  1.00  0.00     0.111 A 
HETATM   20  C   UNL     1      43.547 -18.833   2.781  1.00  0.00     0.071 A 
HETATM   21 CL   UNL     1      43.674 -20.451   2.189  1.00  0.00    -0.081 Cl
HETATM   22  C   UNL     1      42.991 -17.870   1.930  1.00  0.00     0.056 A 
BRANCH  19  23
HETATM   23  O   UNL     1      44.621 -19.379   4.873  1.00  0.00    -0.352 OA
HETATM   24  C   UNL     1      43.683 -20.079   5.693  1.00  0.00     0.210 C 
ENDBRANCH  19  23
ENDBRANCH   3  15
TORSDOF 3
ENDMDL
MODEL 2
REMARK VINA RESULT:      -7.7      0.741      2.105
REMARK  3 active torsions:
REMARK  status: ('A' for Active; 'I' for Inactive)
REMARK    1  A    between atoms: C_8  and  N_9 
REMARK       I    between atoms: N_9  and  C_10 
REMARK       I    between atoms: C_10  and  N_11 
REMARK    2  A    between atoms: N_11  and  C_12 
REMARK    3  A    between atoms: C_16  and  O_17 
ROOT
HETATM    1  N   UNL     1      40.814 -14.016   0.060  1.00  0.00    -0.305 N 
HETATM    2  C   UNL     1      40.949 -15.080   0.935  1.00  0.00     0.325 C 
HETATM    3  N   UNL     1      42.293 -15.282   1.228  1.00  0.00    -0.309 N 
HETATM    4  O   UNL     1      40.032 -15.734   1.407  1.00  0.00    -0.247 OA
HETATM    5  H   UNL     1      41.612 -13.409  -0.036  1.00  0.00     0.171 HD
HETATM    6  H   UNL     1      42.947 -14.836   0.602  1.00  0.00     0.170 HD
ENDROOT
BRANCH   1   7
HETATM    7  C   UNL     1      39.643 -13.533  -0.500  1.00  0.00     0.086 A 
HETATM    8  C   UNL     1      39.003 -12.420   0.017  1.00  0.00     0.052 A 
HETATM    9  C   UNL     1      39.309 -11.531   1.162  1.00  0.00     0.072 C 
HETATM   10  N   UNL     1      37.894 -12.232  -0.758  1.00  0.00    -0.280 N 
HETATM   11  H   UNL     1      37.179 -11.519  -0.667  1.00  0.00     0.189 HD
HETATM   12  N   UNL     1      37.775 -13.116  -1.751  1.00  0.00    -0.177 NA
HETATM   13  C   UNL     1      38.840 -13.921  -1.613  1.00  0.00     0.079 A 
HETATM   14  C   UNL     1      39.019 -15.014  -2.601  1.00  0.00     0.075 C 
ENDBRANCH   1   7
BRANCH   3  15
HETATM   15  C   UNL     1      42.850 -16.106   2.229  1.00  0.00     0.039 A 
HETATM   16  C   UNL     1      43.061 -17.479   2.086  1.00  0.00     0.056 A 
HETATM   17  C   UNL     1      43.562 -18.233   3.156  1.00  0.00     0.071 A 
HETATM   18 CL   UNL     1      43.790 -19.931   2.925  1.00  0.00    -0.081 Cl
HETATM   19  C   UNL     1      43.864 -17.624   4.378  1.00  0.00     0.111 A 
HETATM   20  C   UNL     1      43.645 -16.252   4.525  1.00  0.00     0.071 A 
HETATM   21 CL   UNL     1      43.927 -15.435   6.020  1.00  0.00    -0.081 Cl
HETATM   22  C   UNL     1      43.154 -15.498   3.453  1.00  0.00     0.056 A 
BRANCH  19  23
HETATM   23  O   UNL     1      44.271 -18.400   5.434  1.00  0.00    -0.352 OA
HETATM   24  C   UNL     1      43.194 -18.692   6.326  1.00  0.00     0.210 C 
ENDBRANCH  19  23
ENDBRANCH   3  15
TORSDOF 3
ENDMDL
MODEL 3
REMARK VINA RESULT:      -7.6      0.404      2.687
REMARK  3 active torsions:
REMARK  status: ('A' for Active; 'I' for Inactive)
REMARK    1  A    between atoms: C_8  and  N_9 
REMARK       I    between atoms: N_9  and  C_10 
REMARK       I    between atoms: C_10  and  N_11 
REMARK    2  A    between atoms: N_11  and  C_12 
REMARK    3  A    between atoms: C_16  and  O_17 
ROOT
HETATM    1  N   UNL     1      41.148 -14.071   0.527  1.00  0.00    -0.305 N 
HETATM    2  C   UNL     1      41.210 -15.168   1.367  1.00  0.00     0.325 C 
HETATM    3  N   UNL     1      42.500 -15.686   1.371  1.00  0.00    -0.309 N 
HETATM    4  O   UNL     1      40.284 -15.609   2.032  1.00  0.00    -0.247 OA
HETATM    5  H   UNL     1      42.027 -13.661   0.255  1.00  0.00     0.171 HD
HETATM    6  H   UNL     1      43.094 -15.381   0.615  1.00  0.00     0.170 HD
ENDROOT
BRANCH   1   7
HETATM    7  C   UNL     1      40.032 -13.309   0.221  1.00  0.00     0.086 A 
HETATM    8  C   UNL     1      39.251 -13.589  -0.887  1.00  0.00     0.052 A 
HETATM    9  C   UNL     1      39.345 -14.624  -1.944  1.00  0.00     0.072 C 
HETATM   10  N   UNL     1      38.259 -12.650  -0.893  1.00  0.00    -0.280 N 
HETATM   11  H   UNL     1      37.508 -12.534  -1.564  1.00  0.00     0.189 HD
HETATM   12  N   UNL     1      38.316 -11.800   0.135  1.00  0.00    -0.177 NA
HETATM   13  C   UNL     1      39.395 -12.189   0.832  1.00  0.00     0.079 A 
HETATM   14  C   UNL     1      39.724 -11.449   2.076  1.00  0.00     0.075 C 
ENDBRANCH   1   7
BRANCH   3  15
HETATM   15  C   UNL     1      43.045 -16.654   2.242  1.00  0.00     0.039 A 
HETATM   16  C   UNL     1      43.132 -18.015   1.946  1.00  0.00     0.056 A 
HETATM   17  C   UNL     1      43.631 -18.916   2.896  1.00  0.00     0.071 A 
HETATM   18 CL   UNL     1      43.703 -20.592   2.479  1.00  0.00    -0.081 Cl
HETATM   19  C   UNL     1      44.056 -18.466   4.151  1.00  0.00     0.111 A 
HETATM   20  C   UNL     1      43.961 -17.106   4.451  1.00  0.00     0.071 A 
HETATM   21 CL   UNL     1      44.400 -16.477   5.999  1.00  0.00    -0.081 Cl
HETATM   22  C   UNL     1      43.471 -16.205   3.498  1.00  0.00     0.056 A 
BRANCH  19  23
HETATM   23  O   UNL     1      44.459 -19.380   5.092  1.00  0.00    -0.352 OA
HETATM   24  C   UNL     1      43.387 -19.766   5.953  1.00  0.00     0.210 C 
ENDBRANCH  19  23
ENDBRANCH   3  15
TORSDOF 3
ENDMDL
MODEL 4
REMARK VINA RESULT:      -7.6      1.045      2.021
REMARK  3 active torsions:
REMARK  status: ('A' for Active; 'I' for Inactive)
REMARK    1  A    between atoms: C_8  and  N_9 
REMARK       I    between atoms: N_9  and  C_10 
REMARK       I    between atoms: C_10  and  N_11 
REMARK    2  A    between atoms: N_11  and  C_12 
REMARK    3  A    between atoms: C_16  and  O_17 
ROOT
HETATM    1  N   UNL     1      40.583 -14.043  -0.305  1.00  0.00    -0.305 N 
HETATM    2  C   UNL     1      40.649 -14.835   0.828  1.00  0.00     0.325 C 
HETATM    3  N   UNL     1      41.951 -15.288   1.011  1.00  0.00    -0.309 N 
HETATM    4  O   UNL     1      39.717 -15.084   1.577  1.00  0.00    -0.247 OA
HETATM    5  H   UNL     1      41.459 -13.707  -0.671  1.00  0.00     0.171 HD
HETATM    6  H   UNL     1      42.557 -15.206   0.209  1.00  0.00     0.170 HD
ENDROOT
BRANCH   1   7
HETATM    7  C   UNL     1      39.458 -13.443  -0.846  1.00  0.00     0.086 A 
HETATM    8  C   UNL     1      38.741 -14.045  -1.866  1.00  0.00     0.052 A 
HETATM    9  C   UNL     1      38.921 -15.320  -2.600  1.00  0.00     0.072 C 
HETATM   10  N   UNL     1      37.719 -13.189  -2.161  1.00  0.00    -0.280 N 
HETATM   11  H   UNL     1      36.997 -13.292  -2.866  1.00  0.00     0.189 HD
HETATM   12  N   UNL     1      37.697 -12.093  -1.399  1.00  0.00    -0.177 NA
HETATM   13  C   UNL     1      38.755 -12.230  -0.584  1.00  0.00     0.079 A 
HETATM   14  C   UNL     1      38.998 -11.170   0.426  1.00  0.00     0.075 C 
ENDBRANCH   1   7
BRANCH   3  15
HETATM   15  C   UNL     1      42.495 -15.932   2.143  1.00  0.00     0.039 A 
HETATM   16  C   UNL     1      42.753 -15.296   3.358  1.00  0.00     0.056 A 
HETATM   17  C   UNL     1      43.353 -15.999   4.412  1.00  0.00     0.071 A 
HETATM   18 CL   UNL     1      43.663 -15.156   5.888  1.00  0.00    -0.081 Cl
HETATM   19  C   UNL     1      43.696 -17.347   4.266  1.00  0.00     0.111 A 
HETATM   20  C   UNL     1      43.446 -17.982   3.047  1.00  0.00     0.071 A 
HETATM   21 CL   UNL     1      43.899 -19.624   2.760  1.00  0.00    -0.081 Cl
HETATM   22  C   UNL     1      42.837 -17.282   1.999  1.00  0.00     0.056 A 
BRANCH  19  23
HETATM   23  O   UNL     1      44.360 -17.987   5.281  1.00  0.00    -0.352 OA
HETATM   24  C   UNL     1      43.462 -18.665   6.160  1.00  0.00     0.210 C 
ENDBRANCH  19  23
ENDBRANCH   3  15
TORSDOF 3
ENDMDL
MODEL 5
REMARK VINA RESULT:      -7.3      2.085      3.347
REMARK  3 active torsions:
REMARK  status: ('A' for Active; 'I' for Inactive)
REMARK    1  A    between atoms: C_8  and  N_9 
REMARK       I    between atoms: N_9  and  C_10 
REMARK       I    between atoms: C_10  and  N_11 
REMARK    2  A    between atoms: N_11  and  C_12 
REMARK    3  A    between atoms: C_16  and  O_17 
ROOT
HETATM    1  N   UNL     1      39.123 -14.055  -0.174  1.00  0.00    -0.305 N 
HETATM    2  C   UNL     1      40.192 -14.174   0.697  1.00  0.00     0.325 C 
HETATM    3  N   UNL     1      39.919 -15.152   1.648  1.00  0.00    -0.309 N 
HETATM    4  O   UNL     1      41.234 -13.540   0.636  1.00  0.00    -0.247 OA
HETATM    5  H   UNL     1      38.455 -14.808  -0.171  1.00  0.00     0.171 HD
HETATM    6  H   UNL     1      38.951 -15.424   1.726  1.00  0.00     0.170 HD
ENDROOT
BRANCH   1   7
HETATM    7  C   UNL     1      38.992 -13.164  -1.226  1.00  0.00     0.086 A 
HETATM    8  C   UNL     1      38.732 -13.602  -2.513  1.00  0.00     0.052 A 
HETATM    9  C   UNL     1      38.548 -14.954  -3.092  1.00  0.00     0.072 C 
HETATM   10  N   UNL     1      38.678 -12.479  -3.288  1.00  0.00    -0.280 N 
HETATM   11  H   UNL     1      38.519 -12.413  -4.287  1.00  0.00     0.189 HD
HETATM   12  N   UNL     1      38.855 -11.345  -2.606  1.00  0.00    -0.177 NA
HETATM   13  C   UNL     1      39.047 -11.743  -1.338  1.00  0.00     0.079 A 
HETATM   14  C   UNL     1      39.248 -10.698  -0.303  1.00  0.00     0.075 C 
ENDBRANCH   1   7
BRANCH   3  15
HETATM   15  C   UNL     1      40.810 -15.735   2.573  1.00  0.00     0.039 A 
HETATM   16  C   UNL     1      41.834 -16.618   2.226  1.00  0.00     0.056 A 
HETATM   17  C   UNL     1      42.634 -17.199   3.219  1.00  0.00     0.071 A 
HETATM   18 CL   UNL     1      43.878 -18.295   2.732  1.00  0.00    -0.081 Cl
HETATM   19  C   UNL     1      42.424 -16.901   4.570  1.00  0.00     0.111 A 
HETATM   20  C   UNL     1      41.394 -16.025   4.918  1.00  0.00     0.071 A 
HETATM   21 CL   UNL     1      41.024 -15.655   6.565  1.00  0.00    -0.081 Cl
HETATM   22  C   UNL     1      40.602 -15.437   3.925  1.00  0.00     0.056 A 
BRANCH  19  23
HETATM   23  O   UNL     1      43.165 -17.550   5.525  1.00  0.00    -0.352 OA
HETATM   24  C   UNL     1      44.325 -16.804   5.897  1.00  0.00     0.210 C 
ENDBRANCH  19  23
ENDBRANCH   3  15
TORSDOF 3
ENDMDL
MODEL 6
REMARK VINA RESULT:      -7.0      3.750      7.923
REMARK  3 active torsions:
REMARK  status: ('A' for Active; 'I' for Inactive)
REMARK    1  A    between atoms: C_8  and  N_9 
REMARK       I    between atoms: N_9  and  C_10 
REMARK       I    between atoms: C_10  and  N_11 
REMARK    2  A    between atoms: N_11  and  C_12 
REMARK    3  A    between atoms: C_16  and  O_17 
ROOT
HETATM    1  N   UNL     1      42.032 -16.643   3.155  1.00  0.00    -0.305 N 
HETATM    2  C   UNL     1      42.046 -16.020   1.920  1.00  0.00     0.325 C 
HETATM    3  N   UNL     1      40.816 -15.415   1.682  1.00  0.00    -0.309 N 
HETATM    4  O   UNL     1      42.997 -15.978   1.154  1.00  0.00    -0.247 OA
HETATM    5  H   UNL     1      41.292 -16.377   3.784  1.00  0.00     0.171 HD
HETATM    6  H   UNL     1      40.060 -15.720   2.276  1.00  0.00     0.170 HD
ENDROOT
BRANCH   1   7
HETATM    7  C   UNL     1      43.048 -17.388   3.732  1.00  0.00     0.086 A 
HETATM    8  C   UNL     1      43.675 -16.972   4.893  1.00  0.00     0.052 A 
HETATM    9  C   UNL     1      43.499 -15.779   5.755  1.00  0.00     0.072 C 
HETATM   10  N   UNL     1      44.617 -17.921   5.170  1.00  0.00    -0.280 N 
HETATM   11  H   UNL     1      45.278 -17.945   5.939  1.00  0.00     0.189 HD
HETATM   12  N   UNL     1      44.636 -18.932   4.299  1.00  0.00    -0.177 NA
HETATM   13  C   UNL     1      43.678 -18.625   3.409  1.00  0.00     0.079 A 
HETATM   14  C   UNL     1      43.421 -19.584   2.305  1.00  0.00     0.075 C 
ENDBRANCH   1   7
BRANCH   3  15
HETATM   15  C   UNL     1      40.479 -14.505   0.658  1.00  0.00     0.039 A 
HETATM   16  C   UNL     1      39.798 -14.855  -0.509  1.00  0.00     0.056 A 
HETATM   17  C   UNL     1      39.559 -13.897  -1.503  1.00  0.00     0.071 A 
HETATM   18 CL   UNL     1      38.723 -14.390  -2.933  1.00  0.00    -0.081 Cl
HETATM   19  C   UNL     1      39.992 -12.576  -1.340  1.00  0.00     0.111 A 
HETATM   20  C   UNL     1      40.681 -12.228  -0.177  1.00  0.00     0.071 A 
HETATM   21 CL   UNL     1      41.309 -10.638   0.074  1.00  0.00    -0.081 Cl
HETATM   22  C   UNL     1      40.911 -13.183   0.820  1.00  0.00     0.056 A 
BRANCH  19  23
HETATM   23  O   UNL     1      39.821 -11.681  -2.365  1.00  0.00    -0.352 OA
HETATM   24  C   UNL     1      40.944 -11.660  -3.247  1.00  0.00     0.210 C 
ENDBRANCH  19  23
ENDBRANCH   3  15
TORSDOF 3
ENDMDL
MODEL 7
REMARK VINA RESULT:      -7.0      3.808      7.777
REMARK  3 active torsions:
REMARK  status: ('A' for Active; 'I' for Inactive)
REMARK    1  A    between atoms: C_8  and  N_9 
REMARK       I    between atoms: N_9  and  C_10 
REMARK       I    between atoms: C_10  and  N_11 
REMARK    2  A    between atoms: N_11  and  C_12 
REMARK    3  A    between atoms: C_16  and  O_17 
ROOT
HETATM    1  N   UNL     1      42.007 -16.392   3.008  1.00  0.00    -0.305 N 
HETATM    2  C   UNL     1      42.082 -15.826   1.748  1.00  0.00     0.325 C 
HETATM    3  N   UNL     1      40.869 -15.226   1.427  1.00  0.00    -0.309 N 
HETATM    4  O   UNL     1      43.068 -15.823   1.026  1.00  0.00    -0.247 OA
HETATM    5  H   UNL     1      41.240 -16.094   3.590  1.00  0.00     0.171 HD
HETATM    6  H   UNL     1      40.084 -15.500   1.998  1.00  0.00     0.170 HD
ENDROOT
BRANCH   1   7
HETATM    7  C   UNL     1      42.989 -17.115   3.664  1.00  0.00     0.086 A 
HETATM    8  C   UNL     1      43.556 -16.657   4.840  1.00  0.00     0.052 A 
HETATM    9  C   UNL     1      43.338 -15.433   5.647  1.00  0.00     0.072 C 
HETATM   10  N   UNL     1      44.480 -17.596   5.201  1.00  0.00    -0.280 N 
HETATM   11  H   UNL     1      45.100 -17.590   6.004  1.00  0.00     0.189 HD
HETATM   12  N   UNL     1      44.542 -18.638   4.370  1.00  0.00    -0.177 NA
HETATM   13  C   UNL     1      43.633 -18.364   3.421  1.00  0.00     0.079 A 
HETATM   14  C   UNL     1      43.431 -19.363   2.341  1.00  0.00     0.075 C 
ENDBRANCH   1   7
BRANCH   3  15
HETATM   15  C   UNL     1      40.586 -14.361   0.348  1.00  0.00     0.039 A 
HETATM   16  C   UNL     1      41.022 -13.038   0.270  1.00  0.00     0.056 A 
HETATM   17  C   UNL     1      40.642 -12.230  -0.811  1.00  0.00     0.071 A 
HETATM   18 CL   UNL     1      41.201 -10.595  -0.848  1.00  0.00    -0.081 Cl
HETATM   19  C   UNL     1      39.827 -12.737  -1.829  1.00  0.00     0.111 A 
HETATM   20  C   UNL     1      39.383 -14.059  -1.746  1.00  0.00     0.071 A 
HETATM   21 CL   UNL     1      38.320 -14.743  -2.923  1.00  0.00    -0.081 Cl
HETATM   22  C   UNL     1      39.771 -14.868  -0.671  1.00  0.00     0.056 A 
BRANCH  19  23
HETATM   23  O   UNL     1      39.400 -11.901  -2.828  1.00  0.00    -0.352 OA
HETATM   24  C   UNL     1      38.158 -11.276  -2.504  1.00  0.00     0.210 C 
ENDBRANCH  19  23
ENDBRANCH   3  15
TORSDOF 3
ENDMDL
MODEL 8
REMARK VINA RESULT:      -7.0      6.381      7.916
REMARK  3 active torsions:
REMARK  status: ('A' for Active; 'I' for Inactive)
REMARK    1  A    between atoms: C_8  and  N_9 
REMARK       I    between atoms: N_9  and  C_10 
REMARK       I    between atoms: C_10  and  N_11 
REMARK    2  A    between atoms: N_11  and  C_12 
REMARK    3  A    between atoms: C_16  and  O_17 
ROOT
HETATM    1  N   UNL     1      43.585 -11.126   8.183  1.00  0.00    -0.305 N 
HETATM    2  C   UNL     1      43.718 -11.893   7.039  1.00  0.00     0.325 C 
HETATM    3  N   UNL     1      43.264 -13.185   7.281  1.00  0.00    -0.309 N 
HETATM    4  O   UNL     1      44.145 -11.500   5.964  1.00  0.00    -0.247 OA
HETATM    5  H   UNL     1      42.982 -11.493   8.903  1.00  0.00     0.171 HD
HETATM    6  H   UNL     1      43.161 -13.435   8.254  1.00  0.00     0.170 HD
ENDROOT
BRANCH   1   7
HETATM    7  C   UNL     1      43.964  -9.806   8.359  1.00  0.00     0.086 A 
HETATM    8  C   UNL     1      43.052  -8.840   8.747  1.00  0.00     0.052 A 
HETATM    9  C   UNL     1      41.602  -8.894   9.046  1.00  0.00     0.072 C 
HETATM   10  N   UNL     1      43.752  -7.669   8.812  1.00  0.00    -0.280 N 
HETATM   11  H   UNL     1      43.409  -6.745   9.050  1.00  0.00     0.189 HD
HETATM   12  N   UNL     1      45.048  -7.799   8.522  1.00  0.00    -0.177 NA
HETATM   13  C   UNL     1      45.200  -9.103   8.244  1.00  0.00     0.079 A 
HETATM   14  C   UNL     1      46.561  -9.589   7.905  1.00  0.00     0.075 C 
ENDBRANCH   1   7
BRANCH   3  15
HETATM   15  C   UNL     1      43.022 -14.211   6.343  1.00  0.00     0.039 A 
HETATM   16  C   UNL     1      43.816 -15.350   6.205  1.00  0.00     0.056 A 
HETATM   17  C   UNL     1      43.538 -16.290   5.203  1.00  0.00     0.071 A 
HETATM   18 CL   UNL     1      44.564 -17.674   5.071  1.00  0.00    -0.081 Cl
HETATM   19  C   UNL     1      42.459 -16.106   4.332  1.00  0.00     0.111 A 
HETATM   20  C   UNL     1      41.669 -14.961   4.465  1.00  0.00     0.071 A 
HETATM   21 CL   UNL     1      40.360 -14.624   3.389  1.00  0.00    -0.081 Cl
HETATM   22  C   UNL     1      41.941 -14.028   5.472  1.00  0.00     0.056 A 
BRANCH  19  23
HETATM   23  O   UNL     1      42.262 -16.996   3.308  1.00  0.00    -0.352 OA
HETATM   24  C   UNL     1      42.992 -16.630   2.136  1.00  0.00     0.210 C 
ENDBRANCH  19  23
ENDBRANCH   3  15
TORSDOF 3
ENDMDL
MODEL 9
REMARK VINA RESULT:      -6.9      3.581      8.096
REMARK  3 active torsions:
REMARK  status: ('A' for Active; 'I' for Inactive)
REMARK    1  A    between atoms: C_8  and  N_9 
REMARK       I    between atoms: N_9  and  C_10 
REMARK       I    between atoms: C_10  and  N_11 
REMARK    2  A    between atoms: N_11  and  C_12 
REMARK    3  A    between atoms: C_16  and  O_17 
ROOT
HETATM    1  N   UNL     1      43.324 -17.208   2.296  1.00  0.00    -0.305 N 
HETATM    2  C   UNL     1      42.331 -16.252   2.411  1.00  0.00     0.325 C 
HETATM    3  N   UNL     1      42.337 -15.429   1.289  1.00  0.00    -0.309 N 
HETATM    4  O   UNL     1      41.544 -16.150   3.339  1.00  0.00    -0.247 OA
HETATM    5  H   UNL     1      43.715 -17.343   1.378  1.00  0.00     0.171 HD
HETATM    6  H   UNL     1      43.171 -15.473   0.722  1.00  0.00     0.170 HD
ENDROOT
BRANCH   1   7
HETATM    7  C   UNL     1      43.665 -18.180   3.223  1.00  0.00     0.086 A 
HETATM    8  C   UNL     1      43.645 -19.525   2.896  1.00  0.00     0.052 A 
HETATM    9  C   UNL     1      43.297 -20.248   1.650  1.00  0.00     0.072 C 
HETATM   10  N   UNL     1      44.019 -20.191   4.028  1.00  0.00    -0.280 N 
HETATM   11  H   UNL     1      44.104 -21.192   4.169  1.00  0.00     0.189 HD
HETATM   12  N   UNL     1      44.305 -19.388   5.056  1.00  0.00    -0.177 NA
HETATM   13  C   UNL     1      44.097 -18.150   4.581  1.00  0.00     0.079 A 
HETATM   14  C   UNL     1      44.361 -17.004   5.487  1.00  0.00     0.075 C 
ENDBRANCH   1   7
BRANCH   3  15
HETATM   15  C   UNL     1      41.368 -14.479   0.904  1.00  0.00     0.039 A 
HETATM   16  C   UNL     1      40.466 -14.661  -0.146  1.00  0.00     0.056 A 
HETATM   17  C   UNL     1      39.577 -13.637  -0.500  1.00  0.00     0.071 A 
HETATM   18 CL   UNL     1      38.492 -13.914  -1.817  1.00  0.00    -0.081 Cl
HETATM   19  C   UNL     1      39.574 -12.422   0.194  1.00  0.00     0.111 A 
HETATM   20  C   UNL     1      40.483 -12.236   1.238  1.00  0.00     0.071 A 
HETATM   21 CL   UNL     1      40.592 -10.744   2.101  1.00  0.00    -0.081 Cl
HETATM   22  C   UNL     1      41.364 -13.263   1.598  1.00  0.00     0.056 A 
BRANCH  19  23
HETATM   23  O   UNL     1      38.754 -11.407  -0.230  1.00  0.00    -0.352 OA
HETATM   24  C   UNL     1      39.394 -10.575  -1.198  1.00  0.00     0.210 C 
ENDBRANCH  19  23
ENDBRANCH   3  15
TORSDOF 3
ENDMDL
MODEL 10
REMARK VINA RESULT:      -6.9      3.754      7.956
REMARK  3 active torsions:
REMARK  status: ('A' for Active; 'I' for Inactive)
REMARK    1  A    between atoms: C_8  and  N_9 
REMARK       I    between atoms: N_9  and  C_10 
REMARK       I    between atoms: C_10  and  N_11 
REMARK    2  A    between atoms: N_11  and  C_12 
REMARK    3  A    between atoms: C_16  and  O_17 
ROOT
HETATM    1  N   UNL     1      41.756 -16.520   3.216  1.00  0.00    -0.305 N 
HETATM    2  C   UNL     1      41.750 -15.730   2.079  1.00  0.00     0.325 C 
HETATM    3  N   UNL     1      40.441 -15.424   1.724  1.00  0.00    -0.309 N 
HETATM    4  O   UNL     1      42.740 -15.334   1.483  1.00  0.00    -0.247 OA
HETATM    5  H   UNL     1      40.901 -16.548   3.748  1.00  0.00     0.171 HD
HETATM    6  H   UNL     1      39.729 -15.996   2.152  1.00  0.00     0.170 HD
ENDROOT
BRANCH   1   7
HETATM    7  C   UNL     1      42.857 -17.066   3.854  1.00  0.00     0.086 A 
HETATM    8  C   UNL     1      43.468 -18.214   3.380  1.00  0.00     0.052 A 
HETATM    9  C   UNL     1      43.181 -19.097   2.224  1.00  0.00     0.072 C 
HETATM   10  N   UNL     1      44.496 -18.474   4.240  1.00  0.00    -0.280 N 
HETATM   11  H   UNL     1      45.155 -19.245   4.216  1.00  0.00     0.189 HD
HETATM   12  N   UNL     1      44.620 -17.575   5.219  1.00  0.00    -0.177 NA
HETATM   13  C   UNL     1      43.626 -16.701   4.998  1.00  0.00     0.079 A 
HETATM   14  C   UNL     1      43.504 -15.539   5.915  1.00  0.00     0.075 C 
ENDBRANCH   1   7
BRANCH   3  15
HETATM   15  C   UNL     1      39.997 -14.480   0.774  1.00  0.00     0.039 A 
HETATM   16  C   UNL     1      39.779 -13.130   1.052  1.00  0.00     0.056 A 
HETATM   17  C   UNL     1      39.278 -12.275   0.062  1.00  0.00     0.071 A 
HETATM   18 CL   UNL     1      39.014 -10.616   0.468  1.00  0.00    -0.081 Cl
HETATM   19  C   UNL     1      38.994 -12.757  -1.221  1.00  0.00     0.111 A 
HETATM   20  C   UNL     1      39.204 -14.110  -1.497  1.00  0.00     0.071 A 
HETATM   21 CL   UNL     1      38.817 -14.801  -3.033  1.00  0.00    -0.081 Cl
HETATM   22  C   UNL     1      39.714 -14.962  -0.510  1.00  0.00     0.056 A 
BRANCH  19  23
HETATM   23  O   UNL     1      38.424 -11.919  -2.144  1.00  0.00    -0.352 OA
HETATM   24  C   UNL     1      39.403 -11.311  -2.987  1.00  0.00     0.210 C 
ENDBRANCH  19  23
ENDBRANCH   3  15
TORSDOF 3
ENDMDL
