MODEL 1
REMARK VINA RESULT:      -9.7      0.000      0.000
REMARK  6 active torsions:
REMARK  status: ('A' for Active; 'I' for Inactive)
REMARK    1  A    between atoms: C_5  and  N_6 
REMARK       I    between atoms: N_6  and  C_7 
REMARK       I    between atoms: C_7  and  N_8 
REMARK    2  A    between atoms: N_8  and  C_9 
REMARK    3  A    between atoms: C_12  and  C_13 
REMARK    4  A    between atoms: C_13  and  C_14 
REMARK       I    between atoms: C_14  and  N_15 
REMARK    5  A    between atoms: N_18  and  C_19 
REMARK    6  A    between atoms: C_21  and  C_22 
ROOT
HETATM    1  C   UNL     1      40.985 -10.871   0.650  1.00  0.00     0.162 C 
ENDROOT
BRANCH   1   2
HETATM    2  C   UNL     1      40.168 -10.258   1.736  1.00  0.00     0.052 A 
HETATM    3  C   UNL     1      39.185  -9.299   1.558  1.00  0.00     0.081 A 
HETATM    4  S   UNL     1      38.324  -9.060   3.018  1.00  0.00    -0.062 SA
HETATM    5  C   UNL     1      39.345 -10.192   3.777  1.00  0.00     0.174 A 
HETATM    6  N   UNL     1      40.295 -10.725   3.044  1.00  0.00    -0.228 NA
BRANCH   5   7
HETATM    7  N   UNL     1      39.038 -10.437   5.081  1.00  0.00    -0.287 N 
HETATM    8  C   UNL     1      39.459 -11.486   5.844  1.00  0.00     0.326 C 
HETATM    9  N   UNL     1      40.449 -12.271   5.316  1.00  0.00    -0.309 N 
HETATM   10  O   UNL     1      38.968 -11.601   6.966  1.00  0.00    -0.247 OA
HETATM   11  H   UNL     1      40.780 -11.982   4.402  1.00  0.00     0.170 HD
HETATM   12  H   UNL     1      38.408  -9.798   5.543  1.00  0.00     0.172 HD
BRANCH   9  13
HETATM   13  C   UNL     1      41.145 -13.320   5.951  1.00  0.00     0.036 A 
HETATM   14  C   UNL     1      40.610 -14.585   6.187  1.00  0.00     0.030 A 
HETATM   15  C   UNL     1      41.360 -15.561   6.852  1.00  0.00     0.009 A 
HETATM   16  C   UNL     1      42.660 -15.289   7.289  1.00  0.00    -0.062 A 
HETATM   17  C   UNL     1      43.432 -16.322   8.057  1.00  0.00     0.048 C 
HETATM   18  C   UNL     1      43.197 -14.021   7.056  1.00  0.00     0.009 A 
HETATM   19  C   UNL     1      42.447 -13.051   6.382  1.00  0.00     0.030 A 
ENDBRANCH   9  13
ENDBRANCH   5   7
ENDBRANCH   1   2
BRANCH   1  20
HETATM   20  C   UNL     1      40.564 -12.292   0.314  1.00  0.00     0.225 C 
HETATM   21  N   UNL     1      41.243 -13.350   0.914  1.00  0.00    -0.349 N 
HETATM   22  C   UNL     1      40.505 -14.618   1.036  1.00  0.00     0.145 C 
HETATM   23  C   UNL     1      42.335 -13.154   1.875  1.00  0.00     0.145 C 
HETATM   24  C   UNL     1      41.376 -15.853   1.342  1.00  0.00     0.143 C 
HETATM   25  N   UNL     1      42.324 -15.558   2.438  1.00  0.00    -0.378 N 
HETATM   26  C   UNL     1      43.191 -14.410   2.099  1.00  0.00     0.143 C 
HETATM   27  O   UNL     1      39.601 -12.481  -0.437  1.00  0.00    -0.273 OA
BRANCH  25  28
HETATM   28  C   UNL     1      42.993 -16.612   3.072  1.00  0.00     0.030 A 
HETATM   29  C   UNL     1      42.960 -17.894   2.493  1.00  0.00     0.045 A 
HETATM   30  C   UNL     1      43.601 -19.002   3.074  1.00  0.00     0.050 A 
HETATM   31  C   UNL     1      44.324 -18.817   4.256  1.00  0.00     0.016 A 
HETATM   32  C   UNL     1      44.396 -17.553   4.837  1.00  0.00     0.003 A 
HETATM   33  C   UNL     1      43.739 -16.466   4.247  1.00  0.00     0.029 A 
BRANCH  30  34
HETATM   34  C   UNL     1      43.527 -20.362   2.430  1.00  0.00     0.417 C 
HETATM   35  F   UNL     1      44.478 -20.570   1.476  1.00  0.00    -0.166 F 
HETATM   36  F   UNL     1      43.673 -21.375   3.328  1.00  0.00    -0.166 F 
HETATM   37  F   UNL     1      42.333 -20.581   1.811  1.00  0.00    -0.166 F 
ENDBRANCH  30  34
ENDBRANCH  25  28
ENDBRANCH   1  20
TORSDOF 6
ENDMDL
MODEL 2
REMARK VINA RESULT:      -9.3      3.568      6.766
REMARK  6 active torsions:
REMARK  status: ('A' for Active; 'I' for Inactive)
REMARK    1  A    between atoms: C_5  and  N_6 
REMARK       I    between atoms: N_6  and  C_7 
REMARK       I    between atoms: C_7  and  N_8 
REMARK    2  A    between atoms: N_8  and  C_9 
REMARK    3  A    between atoms: C_12  and  C_13 
REMARK    4  A    between atoms: C_13  and  C_14 
REMARK       I    between atoms: C_14  and  N_15 
REMARK    5  A    between atoms: N_18  and  C_19 
REMARK    6  A    between atoms: C_21  and  C_22 
ROOT
HETATM    1  C   UNL     1      42.229  -9.869   4.656  1.00  0.00     0.162 C 
ENDROOT
BRANCH   1   2
HETATM    2  C   UNL     1      42.796 -11.037   5.388  1.00  0.00     0.052 A 
HETATM    3  C   UNL     1      44.009 -11.055   6.055  1.00  0.00     0.081 A 
HETATM    4  S   UNL     1      44.157 -12.495   6.969  1.00  0.00    -0.062 SA
HETATM    5  C   UNL     1      42.645 -13.001   6.373  1.00  0.00     0.174 A 
HETATM    6  N   UNL     1      42.038 -12.200   5.529  1.00  0.00    -0.228 NA
BRANCH   5   7
HETATM    7  N   UNL     1      42.218 -14.195   6.869  1.00  0.00    -0.287 N 
HETATM    8  C   UNL     1      42.180 -15.392   6.215  1.00  0.00     0.326 C 
HETATM    9  N   UNL     1      42.817 -15.453   5.005  1.00  0.00    -0.309 N 
HETATM   10  O   UNL     1      41.640 -16.334   6.794  1.00  0.00    -0.247 OA
HETATM   11  H   UNL     1      43.267 -14.590   4.718  1.00  0.00     0.170 HD
HETATM   12  H   UNL     1      41.862 -14.211   7.812  1.00  0.00     0.172 HD
BRANCH   9  13
HETATM   13  C   UNL     1      43.038 -16.592   4.205  1.00  0.00     0.036 A 
HETATM   14  C   UNL     1      42.364 -16.854   3.013  1.00  0.00     0.030 A 
HETATM   15  C   UNL     1      42.622 -18.027   2.294  1.00  0.00     0.009 A 
HETATM   16  C   UNL     1      43.561 -18.955   2.755  1.00  0.00    -0.062 A 
HETATM   17  C   UNL     1      43.784 -20.239   2.009  1.00  0.00     0.048 C 
HETATM   18  C   UNL     1      44.234 -18.696   3.951  1.00  0.00     0.009 A 
HETATM   19  C   UNL     1      43.980 -17.518   4.661  1.00  0.00     0.030 A 
ENDBRANCH   9  13
ENDBRANCH   5   7
ENDBRANCH   1   2
BRANCH   1  20
HETATM   20  C   UNL     1      40.715  -9.919   4.531  1.00  0.00     0.225 C 
HETATM   21  N   UNL     1      40.157 -10.269   3.303  1.00  0.00    -0.349 N 
HETATM   22  C   UNL     1      38.804 -10.849   3.340  1.00  0.00     0.145 C 
HETATM   23  C   UNL     1      40.967 -10.616   2.129  1.00  0.00     0.145 C 
HETATM   24  C   UNL     1      38.068 -10.874   1.985  1.00  0.00     0.143 C 
HETATM   25  N   UNL     1      38.957 -11.393   0.923  1.00  0.00    -0.378 N 
HETATM   26  C   UNL     1      40.184 -10.576   0.808  1.00  0.00     0.143 C 
HETATM   27  O   UNL     1      40.014  -9.701   5.524  1.00  0.00    -0.273 OA
BRANCH  25  28
HETATM   28  C   UNL     1      38.409 -11.778  -0.306  1.00  0.00     0.030 A 
HETATM   29  C   UNL     1      38.863 -12.959  -0.922  1.00  0.00     0.045 A 
HETATM   30  C   UNL     1      38.364 -13.405  -2.159  1.00  0.00     0.050 A 
HETATM   31  C   UNL     1      37.359 -12.663  -2.786  1.00  0.00     0.016 A 
HETATM   32  C   UNL     1      36.871 -11.505  -2.185  1.00  0.00     0.003 A 
HETATM   33  C   UNL     1      37.391 -11.073  -0.959  1.00  0.00     0.029 A 
BRANCH  30  34
HETATM   34  C   UNL     1      38.890 -14.666  -2.793  1.00  0.00     0.417 C 
HETATM   35  F   UNL     1      38.717 -15.779  -2.026  1.00  0.00    -0.166 F 
HETATM   36  F   UNL     1      38.294 -14.940  -3.986  1.00  0.00    -0.166 F 
HETATM   37  F   UNL     1      40.227 -14.602  -3.050  1.00  0.00    -0.166 F 
ENDBRANCH  30  34
ENDBRANCH  25  28
ENDBRANCH   1  20
TORSDOF 6
ENDMDL
MODEL 3
REMARK VINA RESULT:      -9.1      2.968      5.523
REMARK  6 active torsions:
REMARK  status: ('A' for Active; 'I' for Inactive)
REMARK    1  A    between atoms: C_5  and  N_6 
REMARK       I    between atoms: N_6  and  C_7 
REMARK       I    between atoms: C_7  and  N_8 
REMARK    2  A    between atoms: N_8  and  C_9 
REMARK    3  A    between atoms: C_12  and  C_13 
REMARK    4  A    between atoms: C_13  and  C_14 
REMARK       I    between atoms: C_14  and  N_15 
REMARK    5  A    between atoms: N_18  and  C_19 
REMARK    6  A    between atoms: C_21  and  C_22 
ROOT
HETATM    1  C   UNL     1      37.380  -9.376   1.049  1.00  0.00     0.162 C 
ENDROOT
BRANCH   1   2
HETATM    2  C   UNL     1      37.358 -10.196  -0.196  1.00  0.00     0.052 A 
HETATM    3  C   UNL     1      37.273  -9.697  -1.485  1.00  0.00     0.081 A 
HETATM    4  S   UNL     1      37.537 -10.951  -2.620  1.00  0.00    -0.062 SA
HETATM    5  C   UNL     1      37.687 -12.053  -1.332  1.00  0.00     0.174 A 
HETATM    6  N   UNL     1      37.536 -11.577  -0.118  1.00  0.00    -0.228 NA
BRANCH   5   7
HETATM    7  N   UNL     1      37.975 -13.328  -1.716  1.00  0.00    -0.287 N 
HETATM    8  C   UNL     1      38.926 -14.152  -1.190  1.00  0.00     0.326 C 
HETATM    9  N   UNL     1      39.523 -13.740  -0.028  1.00  0.00    -0.309 N 
HETATM   10  O   UNL     1      39.121 -15.224  -1.760  1.00  0.00    -0.247 OA
HETATM   11  H   UNL     1      39.184 -12.854   0.333  1.00  0.00     0.170 HD
HETATM   12  H   UNL     1      37.458 -13.712  -2.492  1.00  0.00     0.172 HD
BRANCH   9  13
HETATM   13  C   UNL     1      40.424 -14.462   0.779  1.00  0.00     0.036 A 
HETATM   14  C   UNL     1      40.134 -15.692   1.370  1.00  0.00     0.030 A 
HETATM   15  C   UNL     1      41.077 -16.329   2.184  1.00  0.00     0.009 A 
HETATM   16  C   UNL     1      42.328 -15.748   2.419  1.00  0.00    -0.062 A 
HETATM   17  C   UNL     1      43.307 -16.409   3.344  1.00  0.00     0.048 C 
HETATM   18  C   UNL     1      42.618 -14.514   1.830  1.00  0.00     0.009 A 
HETATM   19  C   UNL     1      41.676 -13.886   1.010  1.00  0.00     0.030 A 
ENDBRANCH   9  13
ENDBRANCH   5   7
ENDBRANCH   1   2
BRANCH   1  20
HETATM   20  C   UNL     1      38.783  -8.986   1.484  1.00  0.00     0.225 C 
HETATM   21  N   UNL     1      39.453  -9.804   2.392  1.00  0.00    -0.349 N 
HETATM   22  C   UNL     1      40.923  -9.750   2.362  1.00  0.00     0.145 C 
HETATM   23  C   UNL     1      38.871 -11.039   2.931  1.00  0.00     0.145 C 
HETATM   24  C   UNL     1      41.623 -10.352   3.597  1.00  0.00     0.143 C 
HETATM   25  N   UNL     1      41.039 -11.669   3.931  1.00  0.00    -0.378 N 
HETATM   26  C   UNL     1      39.588 -11.560   4.187  1.00  0.00     0.143 C 
HETATM   27  O   UNL     1      39.320  -7.990   0.989  1.00  0.00    -0.273 OA
BRANCH  25  28
HETATM   28  C   UNL     1      41.714 -12.516   4.819  1.00  0.00     0.030 A 
HETATM   29  C   UNL     1      41.121 -13.737   5.190  1.00  0.00     0.045 A 
HETATM   30  C   UNL     1      41.735 -14.634   6.081  1.00  0.00     0.050 A 
HETATM   31  C   UNL     1      42.995 -14.315   6.595  1.00  0.00     0.016 A 
HETATM   32  C   UNL     1      43.617 -13.126   6.224  1.00  0.00     0.003 A 
HETATM   33  C   UNL     1      42.982 -12.241   5.344  1.00  0.00     0.029 A 
BRANCH  30  34
HETATM   34  C   UNL     1      41.058 -15.924   6.465  1.00  0.00     0.417 C 
HETATM   35  F   UNL     1      39.932 -15.751   7.213  1.00  0.00    -0.166 F 
HETATM   36  F   UNL     1      40.677 -16.658   5.383  1.00  0.00    -0.166 F 
HETATM   37  F   UNL     1      41.867 -16.738   7.201  1.00  0.00    -0.166 F 
ENDBRANCH  30  34
ENDBRANCH  25  28
ENDBRANCH   1  20
TORSDOF 6
ENDMDL
MODEL 4
REMARK VINA RESULT:      -9.0      2.049      2.551
REMARK  6 active torsions:
REMARK  status: ('A' for Active; 'I' for Inactive)
REMARK    1  A    between atoms: C_5  and  N_6 
REMARK       I    between atoms: N_6  and  C_7 
REMARK       I    between atoms: C_7  and  N_8 
REMARK    2  A    between atoms: N_8  and  C_9 
REMARK    3  A    between atoms: C_12  and  C_13 
REMARK    4  A    between atoms: C_13  and  C_14 
REMARK       I    between atoms: C_14  and  N_15 
REMARK    5  A    between atoms: N_18  and  C_19 
REMARK    6  A    between atoms: C_21  and  C_22 
ROOT
HETATM    1  C   UNL     1      41.188 -10.716   0.984  1.00  0.00     0.162 C 
ENDROOT
BRANCH   1   2
HETATM    2  C   UNL     1      40.399  -9.995   2.024  1.00  0.00     0.052 A 
HETATM    3  C   UNL     1      39.486  -8.983   1.781  1.00  0.00     0.081 A 
HETATM    4  S   UNL     1      38.623  -8.612   3.212  1.00  0.00    -0.062 SA
HETATM    5  C   UNL     1      39.554  -9.770   4.044  1.00  0.00     0.174 A 
HETATM    6  N   UNL     1      40.475 -10.401   3.355  1.00  0.00    -0.228 NA
BRANCH   5   7
HETATM    7  N   UNL     1      39.213  -9.926   5.353  1.00  0.00    -0.287 N 
HETATM    8  C   UNL     1      40.058 -10.104   6.409  1.00  0.00     0.326 C 
HETATM    9  N   UNL     1      41.392  -9.909   6.169  1.00  0.00    -0.309 N 
HETATM   10  O   UNL     1      39.551 -10.356   7.501  1.00  0.00    -0.247 OA
HETATM   11  H   UNL     1      41.617  -9.638   5.218  1.00  0.00     0.170 HD
HETATM   12  H   UNL     1      38.230  -9.943   5.583  1.00  0.00     0.172 HD
BRANCH   9  13
HETATM   13  C   UNL     1      42.441  -9.896   7.109  1.00  0.00     0.036 A 
HETATM   14  C   UNL     1      43.349 -10.941   7.283  1.00  0.00     0.030 A 
HETATM   15  C   UNL     1      44.346 -10.860   8.262  1.00  0.00     0.009 A 
HETATM   16  C   UNL     1      44.453  -9.732   9.082  1.00  0.00    -0.062 A 
HETATM   17  C   UNL     1      45.485  -9.683  10.170  1.00  0.00     0.048 C 
HETATM   18  C   UNL     1      43.543  -8.686   8.911  1.00  0.00     0.009 A 
HETATM   19  C   UNL     1      42.554  -8.767   7.924  1.00  0.00     0.030 A 
ENDBRANCH   9  13
ENDBRANCH   5   7
ENDBRANCH   1   2
BRANCH   1  20
HETATM   20  C   UNL     1      40.652 -12.106   0.685  1.00  0.00     0.225 C 
HETATM   21  N   UNL     1      41.303 -13.207   1.240  1.00  0.00    -0.349 N 
HETATM   22  C   UNL     1      40.495 -14.424   1.419  1.00  0.00     0.145 C 
HETATM   23  C   UNL     1      42.471 -13.082   2.120  1.00  0.00     0.145 C 
HETATM   24  C   UNL     1      41.304 -15.713   1.668  1.00  0.00     0.143 C 
HETATM   25  N   UNL     1      42.345 -15.480   2.693  1.00  0.00    -0.378 N 
HETATM   26  C   UNL     1      43.258 -14.391   2.288  1.00  0.00     0.143 C 
HETATM   27  O   UNL     1      39.629 -12.232   0.005  1.00  0.00    -0.273 OA
BRANCH  25  28
HETATM   28  C   UNL     1      42.987 -16.576   3.282  1.00  0.00     0.030 A 
HETATM   29  C   UNL     1      42.969 -17.820   2.623  1.00  0.00     0.045 A 
HETATM   30  C   UNL     1      43.586 -18.965   3.156  1.00  0.00     0.050 A 
HETATM   31  C   UNL     1      44.269 -18.858   4.371  1.00  0.00     0.016 A 
HETATM   32  C   UNL     1      44.326 -17.633   5.031  1.00  0.00     0.003 A 
HETATM   33  C   UNL     1      43.694 -16.508   4.489  1.00  0.00     0.029 A 
BRANCH  30  34
HETATM   34  C   UNL     1      43.529 -20.282   2.426  1.00  0.00     0.417 C 
HETATM   35  F   UNL     1      44.462 -20.404   1.440  1.00  0.00    -0.166 F 
HETATM   36  F   UNL     1      43.720 -21.347   3.253  1.00  0.00    -0.166 F 
HETATM   37  F   UNL     1      42.325 -20.490   1.821  1.00  0.00    -0.166 F 
ENDBRANCH  30  34
ENDBRANCH  25  28
ENDBRANCH   1  20
TORSDOF 6
ENDMDL
MODEL 5
REMARK VINA RESULT:      -8.9      2.022      5.304
REMARK  6 active torsions:
REMARK  status: ('A' for Active; 'I' for Inactive)
REMARK    1  A    between atoms: C_5  and  N_6 
REMARK       I    between atoms: N_6  and  C_7 
REMARK       I    between atoms: C_7  and  N_8 
REMARK    2  A    between atoms: N_8  and  C_9 
REMARK    3  A    between atoms: C_12  and  C_13 
REMARK    4  A    between atoms: C_13  and  C_14 
REMARK       I    between atoms: C_14  and  N_15 
REMARK    5  A    between atoms: N_18  and  C_19 
REMARK    6  A    between atoms: C_21  and  C_22 
ROOT
HETATM    1  C   UNL     1      41.299 -10.930   6.008  1.00  0.00     0.162 C 
ENDROOT
BRANCH   1   2
HETATM    2  C   UNL     1      40.864  -9.985   4.940  1.00  0.00     0.052 A 
HETATM    3  C   UNL     1      40.210  -8.782   5.150  1.00  0.00     0.081 A 
HETATM    4  S   UNL     1      40.126  -7.895   3.689  1.00  0.00    -0.062 SA
HETATM    5  C   UNL     1      40.905  -9.181   2.891  1.00  0.00     0.174 A 
HETATM    6  N   UNL     1      41.208 -10.235   3.612  1.00  0.00    -0.228 NA
BRANCH   5   7
HETATM    7  N   UNL     1      41.150  -8.955   1.570  1.00  0.00    -0.287 N 
HETATM    8  C   UNL     1      40.964  -9.826   0.537  1.00  0.00     0.326 C 
HETATM    9  N   UNL     1      40.276 -10.976   0.818  1.00  0.00    -0.309 N 
HETATM   10  O   UNL     1      41.366  -9.478  -0.573  1.00  0.00    -0.247 OA
HETATM   11  H   UNL     1      39.962 -11.059   1.779  1.00  0.00     0.170 HD
HETATM   12  H   UNL     1      41.538  -8.060   1.312  1.00  0.00     0.172 HD
BRANCH   9  13
HETATM   13  C   UNL     1      39.839 -11.960  -0.091  1.00  0.00     0.036 A 
HETATM   14  C   UNL     1      38.733 -11.817  -0.928  1.00  0.00     0.030 A 
HETATM   15  C   UNL     1      38.348 -12.858  -1.780  1.00  0.00     0.009 A 
HETATM   16  C   UNL     1      39.065 -14.059  -1.812  1.00  0.00    -0.062 A 
HETATM   17  C   UNL     1      38.605 -15.191  -2.683  1.00  0.00     0.048 C 
HETATM   18  C   UNL     1      40.170 -14.205  -0.971  1.00  0.00     0.009 A 
HETATM   19  C   UNL     1      40.557 -13.158  -0.128  1.00  0.00     0.030 A 
ENDBRANCH   9  13
ENDBRANCH   5   7
ENDBRANCH   1   2
BRANCH   1  20
HETATM   20  C   UNL     1      40.482 -12.211   6.040  1.00  0.00     0.225 C 
HETATM   21  N   UNL     1      41.011 -13.356   5.447  1.00  0.00    -0.349 N 
HETATM   22  C   UNL     1      40.519 -14.646   5.957  1.00  0.00     0.145 C 
HETATM   23  C   UNL     1      42.335 -13.386   4.811  1.00  0.00     0.145 C 
HETATM   24  C   UNL     1      40.817 -15.861   5.055  1.00  0.00     0.143 C 
HETATM   25  N   UNL     1      42.229 -15.845   4.616  1.00  0.00    -0.378 N 
HETATM   26  C   UNL     1      42.548 -14.597   3.891  1.00  0.00     0.143 C 
HETATM   27  O   UNL     1      39.398 -12.229   6.631  1.00  0.00    -0.273 OA
BRANCH  25  28
HETATM   28  C   UNL     1      42.785 -16.996   4.046  1.00  0.00     0.030 A 
HETATM   29  C   UNL     1      43.101 -18.090   4.873  1.00  0.00     0.045 A 
HETATM   30  C   UNL     1      43.668 -19.276   4.374  1.00  0.00     0.050 A 
HETATM   31  C   UNL     1      43.898 -19.384   3.000  1.00  0.00     0.016 A 
HETATM   32  C   UNL     1      43.569 -18.328   2.153  1.00  0.00     0.003 A 
HETATM   33  C   UNL     1      43.018 -17.151   2.674  1.00  0.00     0.029 A 
BRANCH  30  34
HETATM   34  C   UNL     1      44.007 -20.417   5.297  1.00  0.00     0.417 C 
HETATM   35  F   UNL     1      45.311 -20.807   5.231  1.00  0.00    -0.166 F 
HETATM   36  F   UNL     1      43.772 -20.119   6.605  1.00  0.00    -0.166 F 
HETATM   37  F   UNL     1      43.275 -21.536   5.032  1.00  0.00    -0.166 F 
ENDBRANCH  30  34
ENDBRANCH  25  28
ENDBRANCH   1  20
TORSDOF 6
ENDMDL
MODEL 6
REMARK VINA RESULT:      -8.9      5.999      8.672
REMARK  6 active torsions:
REMARK  status: ('A' for Active; 'I' for Inactive)
REMARK    1  A    between atoms: C_5  and  N_6 
REMARK       I    between atoms: N_6  and  C_7 
REMARK       I    between atoms: C_7  and  N_8 
REMARK    2  A    between atoms: N_8  and  C_9 
REMARK    3  A    between atoms: C_12  and  C_13 
REMARK    4  A    between atoms: C_13  and  C_14 
REMARK       I    between atoms: C_14  and  N_15 
REMARK    5  A    between atoms: N_18  and  C_19 
REMARK    6  A    between atoms: C_21  and  C_22 
ROOT
HETATM    1  C   UNL     1      40.925  -9.957   3.817  1.00  0.00     0.162 C 
ENDROOT
BRANCH   1   2
HETATM    2  C   UNL     1      40.651 -10.831   2.641  1.00  0.00     0.052 A 
HETATM    3  C   UNL     1      41.094 -10.602   1.349  1.00  0.00     0.081 A 
HETATM    4  S   UNL     1      40.778 -11.968   0.367  1.00  0.00    -0.062 SA
HETATM    5  C   UNL     1      40.038 -12.725   1.700  1.00  0.00     0.174 A 
HETATM    6  N   UNL     1      39.982 -12.042   2.819  1.00  0.00    -0.228 NA
BRANCH   5   7
HETATM    7  N   UNL     1      39.599 -13.990   1.453  1.00  0.00    -0.287 N 
HETATM    8  C   UNL     1      40.267 -15.156   1.690  1.00  0.00     0.326 C 
HETATM    9  N   UNL     1      41.412 -15.067   2.435  1.00  0.00    -0.309 N 
HETATM   10  O   UNL     1      39.753 -16.194   1.278  1.00  0.00    -0.247 OA
HETATM   11  H   UNL     1      41.646 -14.130   2.747  1.00  0.00     0.170 HD
HETATM   12  H   UNL     1      38.693 -14.096   1.020  1.00  0.00     0.172 HD
BRANCH   9  13
HETATM   13  C   UNL     1      42.201 -16.125   2.929  1.00  0.00     0.036 A 
HETATM   14  C   UNL     1      42.840 -17.068   2.125  1.00  0.00     0.030 A 
HETATM   15  C   UNL     1      43.581 -18.107   2.699  1.00  0.00     0.009 A 
HETATM   16  C   UNL     1      43.697 -18.218   4.089  1.00  0.00    -0.062 A 
HETATM   17  C   UNL     1      44.441 -19.372   4.695  1.00  0.00     0.048 C 
HETATM   18  C   UNL     1      43.055 -17.277   4.896  1.00  0.00     0.009 A 
HETATM   19  C   UNL     1      42.323 -16.234   4.317  1.00  0.00     0.030 A 
ENDBRANCH   9  13
ENDBRANCH   5   7
ENDBRANCH   1   2
BRANCH   1  20
HETATM   20  C   UNL     1      42.194 -10.338   4.561  1.00  0.00     0.225 C 
HETATM   21  N   UNL     1      42.312  -9.986   5.905  1.00  0.00    -0.349 N 
HETATM   22  C   UNL     1      43.218 -10.811   6.721  1.00  0.00     0.145 C 
HETATM   23  C   UNL     1      41.254  -9.282   6.640  1.00  0.00     0.145 C 
HETATM   24  C   UNL     1      43.622 -10.191   8.074  1.00  0.00     0.143 C 
HETATM   25  N   UNL     1      42.433  -9.661   8.776  1.00  0.00    -0.378 N 
HETATM   26  C   UNL     1      41.735  -8.650   7.955  1.00  0.00     0.143 C 
HETATM   27  O   UNL     1      43.067 -10.993   3.983  1.00  0.00    -0.273 OA
BRANCH  25  28
HETATM   28  C   UNL     1      42.526  -9.331  10.133  1.00  0.00     0.030 A 
HETATM   29  C   UNL     1      41.460  -9.652  10.994  1.00  0.00     0.045 A 
HETATM   30  C   UNL     1      41.479  -9.345  12.366  1.00  0.00     0.050 A 
HETATM   31  C   UNL     1      42.612  -8.725  12.901  1.00  0.00     0.016 A 
HETATM   32  C   UNL     1      43.693  -8.421  12.078  1.00  0.00     0.003 A 
HETATM   33  C   UNL     1      43.648  -8.723  10.711  1.00  0.00     0.029 A 
BRANCH  30  34
HETATM   34  C   UNL     1      40.309  -9.691  13.250  1.00  0.00     0.417 C 
HETATM   35  F   UNL     1      39.168  -9.014  12.939  1.00  0.00    -0.166 F 
HETATM   36  F   UNL     1      39.985 -11.013  13.195  1.00  0.00    -0.166 F 
HETATM   37  F   UNL     1      40.551  -9.421  14.564  1.00  0.00    -0.166 F 
ENDBRANCH  30  34
ENDBRANCH  25  28
ENDBRANCH   1  20
TORSDOF 6
ENDMDL
MODEL 7
REMARK VINA RESULT:      -8.8      5.523      6.515
REMARK  6 active torsions:
REMARK  status: ('A' for Active; 'I' for Inactive)
REMARK    1  A    between atoms: C_5  and  N_6 
REMARK       I    between atoms: N_6  and  C_7 
REMARK       I    between atoms: C_7  and  N_8 
REMARK    2  A    between atoms: N_8  and  C_9 
REMARK    3  A    between atoms: C_12  and  C_13 
REMARK    4  A    between atoms: C_13  and  C_14 
REMARK       I    between atoms: C_14  and  N_15 
REMARK    5  A    between atoms: N_18  and  C_19 
REMARK    6  A    between atoms: C_21  and  C_22 
ROOT
HETATM    1  C   UNL     1      42.041 -11.234   6.708  1.00  0.00     0.162 C 
ENDROOT
BRANCH   1   2
HETATM    2  C   UNL     1      42.951 -10.314   7.448  1.00  0.00     0.052 A 
HETATM    3  C   UNL     1      44.323 -10.463   7.563  1.00  0.00     0.081 A 
HETATM    4  S   UNL     1      45.010  -9.063   8.268  1.00  0.00    -0.062 SA
HETATM    5  C   UNL     1      43.449  -8.400   8.415  1.00  0.00     0.174 A 
HETATM    6  N   UNL     1      42.446  -9.140   8.003  1.00  0.00    -0.228 NA
BRANCH   5   7
HETATM    7  N   UNL     1      43.421  -7.141   8.934  1.00  0.00    -0.287 N 
HETATM    8  C   UNL     1      42.962  -6.767  10.163  1.00  0.00     0.326 C 
HETATM    9  N   UNL     1      42.683  -7.774  11.049  1.00  0.00    -0.309 N 
HETATM   10  O   UNL     1      42.903  -5.561  10.400  1.00  0.00    -0.247 OA
HETATM   11  H   UNL     1      42.858  -8.710  10.697  1.00  0.00     0.170 HD
HETATM   12  H   UNL     1      43.746  -6.386   8.350  1.00  0.00     0.172 HD
BRANCH   9  13
HETATM   13  C   UNL     1      42.332  -7.651  12.407  1.00  0.00     0.036 A 
HETATM   14  C   UNL     1      43.226  -7.303  13.419  1.00  0.00     0.030 A 
HETATM   15  C   UNL     1      42.801  -7.233  14.751  1.00  0.00     0.009 A 
HETATM   16  C   UNL     1      41.472  -7.507  15.092  1.00  0.00    -0.062 A 
HETATM   17  C   UNL     1      41.042  -7.491  16.529  1.00  0.00     0.048 C 
HETATM   18  C   UNL     1      40.576  -7.860  14.080  1.00  0.00     0.009 A 
HETATM   19  C   UNL     1      41.004  -7.919  12.749  1.00  0.00     0.030 A 
ENDBRANCH   9  13
ENDBRANCH   5   7
ENDBRANCH   1   2
BRANCH   1  20
HETATM   20  C   UNL     1      42.484 -11.491   5.277  1.00  0.00     0.225 C 
HETATM   21  N   UNL     1      42.752 -12.801   4.884  1.00  0.00    -0.349 N 
HETATM   22  C   UNL     1      42.619 -13.095   3.448  1.00  0.00     0.145 C 
HETATM   23  C   UNL     1      42.604 -13.949   5.787  1.00  0.00     0.145 C 
HETATM   24  C   UNL     1      43.274 -14.414   2.990  1.00  0.00     0.143 C 
HETATM   25  N   UNL     1      42.910 -15.517   3.905  1.00  0.00    -0.378 N 
HETATM   26  C   UNL     1      43.318 -15.216   5.293  1.00  0.00     0.143 C 
HETATM   27  O   UNL     1      42.547 -10.549   4.480  1.00  0.00    -0.273 OA
BRANCH  25  28
HETATM   28  C   UNL     1      43.145 -16.841   3.514  1.00  0.00     0.030 A 
HETATM   29  C   UNL     1      43.412 -17.812   4.497  1.00  0.00     0.045 A 
HETATM   30  C   UNL     1      43.665 -19.158   4.181  1.00  0.00     0.050 A 
HETATM   31  C   UNL     1      43.620 -19.553   2.840  1.00  0.00     0.016 A 
HETATM   32  C   UNL     1      43.331 -18.619   1.848  1.00  0.00     0.003 A 
HETATM   33  C   UNL     1      43.095 -17.281   2.186  1.00  0.00     0.029 A 
BRANCH  30  34
HETATM   34  C   UNL     1      43.964 -20.162   5.263  1.00  0.00     0.417 C 
HETATM   35  F   UNL     1      43.263 -21.324   5.141  1.00  0.00    -0.166 F 
HETATM   36  F   UNL     1      45.277 -20.520   5.297  1.00  0.00    -0.166 F 
HETATM   37  F   UNL     1      43.675 -19.687   6.508  1.00  0.00    -0.166 F 
ENDBRANCH  30  34
ENDBRANCH  25  28
ENDBRANCH   1  20
TORSDOF 6
ENDMDL
MODEL 8
REMARK VINA RESULT:      -8.7      6.296      7.766
REMARK  6 active torsions:
REMARK  status: ('A' for Active; 'I' for Inactive)
REMARK    1  A    between atoms: C_5  and  N_6 
REMARK       I    between atoms: N_6  and  C_7 
REMARK       I    between atoms: C_7  and  N_8 
REMARK    2  A    between atoms: N_8  and  C_9 
REMARK    3  A    between atoms: C_12  and  C_13 
REMARK    4  A    between atoms: C_13  and  C_14 
REMARK       I    between atoms: C_14  and  N_15 
REMARK    5  A    between atoms: N_18  and  C_19 
REMARK    6  A    between atoms: C_21  and  C_22 
ROOT
HETATM    1  C   UNL     1      44.088  -9.053   8.244  1.00  0.00     0.162 C 
ENDROOT
BRANCH   1   2
HETATM    2  C   UNL     1      42.783  -8.864   8.940  1.00  0.00     0.052 A 
HETATM    3  C   UNL     1      41.769  -8.015   8.528  1.00  0.00     0.081 A 
HETATM    4  S   UNL     1      40.358  -8.291   9.456  1.00  0.00    -0.062 SA
HETATM    5  C   UNL     1      41.207  -9.460  10.357  1.00  0.00     0.174 A 
HETATM    6  N   UNL     1      42.467  -9.655  10.044  1.00  0.00    -0.228 NA
BRANCH   5   7
HETATM    7  N   UNL     1      40.459 -10.089  11.305  1.00  0.00    -0.287 N 
HETATM    8  C   UNL     1      40.356  -9.761  12.625  1.00  0.00     0.326 C 
HETATM    9  N   UNL     1      40.898  -8.562  13.005  1.00  0.00    -0.309 N 
HETATM   10  O   UNL     1      39.728 -10.530  13.350  1.00  0.00    -0.247 OA
HETATM   11  H   UNL     1      41.319  -8.028  12.251  1.00  0.00     0.170 HD
HETATM   12  H   UNL     1      39.938 -10.907  11.026  1.00  0.00     0.172 HD
BRANCH   9  13
HETATM   13  C   UNL     1      40.806  -7.937  14.264  1.00  0.00     0.036 A 
HETATM   14  C   UNL     1      41.567  -8.298  15.375  1.00  0.00     0.030 A 
HETATM   15  C   UNL     1      41.391  -7.644  16.600  1.00  0.00     0.009 A 
HETATM   16  C   UNL     1      40.453  -6.615  16.732  1.00  0.00    -0.062 A 
HETATM   17  C   UNL     1      40.228  -5.964  18.066  1.00  0.00     0.048 C 
HETATM   18  C   UNL     1      39.687  -6.255  15.621  1.00  0.00     0.009 A 
HETATM   19  C   UNL     1      39.873  -6.905  14.397  1.00  0.00     0.030 A 
ENDBRANCH   9  13
ENDBRANCH   5   7
ENDBRANCH   1   2
BRANCH   1  20
HETATM   20  C   UNL     1      44.530 -10.506   8.188  1.00  0.00     0.225 C 
HETATM   21  N   UNL     1      43.857 -11.378   7.335  1.00  0.00    -0.349 N 
HETATM   22  C   UNL     1      44.609 -12.557   6.875  1.00  0.00     0.145 C 
HETATM   23  C   UNL     1      42.751 -10.950   6.469  1.00  0.00     0.145 C 
HETATM   24  C   UNL     1      43.749 -13.679   6.260  1.00  0.00     0.143 C 
HETATM   25  N   UNL     1      42.785 -13.118   5.289  1.00  0.00    -0.378 N 
HETATM   26  C   UNL     1      41.908 -12.114   5.926  1.00  0.00     0.143 C 
HETATM   27  O   UNL     1      45.504 -10.873   8.854  1.00  0.00    -0.273 OA
BRANCH  25  28
HETATM   28  C   UNL     1      42.122 -13.977   4.404  1.00  0.00     0.030 A 
HETATM   29  C   UNL     1      42.737 -15.185   4.026  1.00  0.00     0.045 A 
HETATM   30  C   UNL     1      42.136 -16.093   3.137  1.00  0.00     0.050 A 
HETATM   31  C   UNL     1      40.866 -15.800   2.633  1.00  0.00     0.016 A 
HETATM   32  C   UNL     1      40.221 -14.624   3.011  1.00  0.00     0.003 A 
HETATM   33  C   UNL     1      40.844 -13.728   3.888  1.00  0.00     0.029 A 
BRANCH  30  34
HETATM   34  C   UNL     1      42.837 -17.368   2.746  1.00  0.00     0.417 C 
HETATM   35  F   UNL     1      43.859 -17.183   1.864  1.00  0.00    -0.166 F 
HETATM   36  F   UNL     1      43.379 -18.016   3.813  1.00  0.00    -0.166 F 
HETATM   37  F   UNL     1      41.997 -18.263   2.153  1.00  0.00    -0.166 F 
ENDBRANCH  30  34
ENDBRANCH  25  28
ENDBRANCH   1  20
TORSDOF 6
ENDMDL
MODEL 9
REMARK VINA RESULT:      -8.6      7.419     10.415
REMARK  6 active torsions:
REMARK  status: ('A' for Active; 'I' for Inactive)
REMARK    1  A    between atoms: C_5  and  N_6 
REMARK       I    between atoms: N_6  and  C_7 
REMARK       I    between atoms: C_7  and  N_8 
REMARK    2  A    between atoms: N_8  and  C_9 
REMARK    3  A    between atoms: C_12  and  C_13 
REMARK    4  A    between atoms: C_13  and  C_14 
REMARK       I    between atoms: C_14  and  N_15 
REMARK    5  A    between atoms: N_18  and  C_19 
REMARK    6  A    between atoms: C_21  and  C_22 
ROOT
HETATM    1  C   UNL     1      43.584 -10.852   5.820  1.00  0.00     0.162 C 
ENDROOT
BRANCH   1   2
HETATM    2  C   UNL     1      42.361 -11.655   5.535  1.00  0.00     0.052 A 
HETATM    3  C   UNL     1      41.083 -11.358   5.981  1.00  0.00     0.081 A 
HETATM    4  S   UNL     1      39.942 -12.383   5.221  1.00  0.00    -0.062 SA
HETATM    5  C   UNL     1      41.220 -13.166   4.413  1.00  0.00     0.174 A 
HETATM    6  N   UNL     1      42.436 -12.748   4.673  1.00  0.00    -0.228 NA
BRANCH   5   7
HETATM    7  N   UNL     1      40.822 -14.144   3.553  1.00  0.00    -0.287 N 
HETATM    8  C   UNL     1      41.373 -15.383   3.402  1.00  0.00     0.326 C 
HETATM    9  N   UNL     1      42.293 -15.766   4.342  1.00  0.00    -0.309 N 
HETATM   10  O   UNL     1      40.952 -16.080   2.480  1.00  0.00    -0.247 OA
HETATM   11  H   UNL     1      42.466 -15.081   5.071  1.00  0.00     0.170 HD
HETATM   12  H   UNL     1      40.054 -13.939   2.931  1.00  0.00     0.172 HD
BRANCH   9  13
HETATM   13  C   UNL     1      42.899 -17.029   4.488  1.00  0.00     0.036 A 
HETATM   14  C   UNL     1      43.383 -17.793   3.427  1.00  0.00     0.030 A 
HETATM   15  C   UNL     1      43.944 -19.054   3.657  1.00  0.00     0.009 A 
HETATM   16  C   UNL     1      44.032 -19.572   4.954  1.00  0.00    -0.062 A 
HETATM   17  C   UNL     1      44.577 -20.951   5.182  1.00  0.00     0.048 C 
HETATM   18  C   UNL     1      43.544 -18.809   6.017  1.00  0.00     0.009 A 
HETATM   19  C   UNL     1      42.993 -17.545   5.783  1.00  0.00     0.030 A 
ENDBRANCH   9  13
ENDBRANCH   5   7
ENDBRANCH   1   2
BRANCH   1  20
HETATM   20  C   UNL     1      44.120 -11.057   7.227  1.00  0.00     0.225 C 
HETATM   21  N   UNL     1      43.853 -10.088   8.193  1.00  0.00    -0.349 N 
HETATM   22  C   UNL     1      43.865 -10.537   9.594  1.00  0.00     0.145 C 
HETATM   23  C   UNL     1      43.057  -8.886   7.916  1.00  0.00     0.145 C 
HETATM   24  C   UNL     1      43.947  -9.407  10.641  1.00  0.00     0.143 C 
HETATM   25  N   UNL     1      42.978  -8.337  10.322  1.00  0.00    -0.378 N 
HETATM   26  C   UNL     1      43.220  -7.783   8.973  1.00  0.00     0.143 C 
HETATM   27  O   UNL     1      44.731 -12.095   7.502  1.00  0.00    -0.273 OA
BRANCH  25  28
HETATM   28  C   UNL     1      42.676  -7.372  11.290  1.00  0.00     0.030 A 
HETATM   29  C   UNL     1      42.549  -7.764  12.636  1.00  0.00     0.045 A 
HETATM   30  C   UNL     1      42.241  -6.854  13.662  1.00  0.00     0.050 A 
HETATM   31  C   UNL     1      42.084  -5.503  13.338  1.00  0.00     0.016 A 
HETATM   32  C   UNL     1      42.232  -5.082  12.019  1.00  0.00     0.003 A 
HETATM   33  C   UNL     1      42.527  -6.008  11.011  1.00  0.00     0.029 A 
BRANCH  30  34
HETATM   34  C   UNL     1      42.097  -7.319  15.088  1.00  0.00     0.417 C 
HETATM   35  F   UNL     1      43.088  -6.877  15.912  1.00  0.00    -0.166 F 
HETATM   36  F   UNL     1      40.929  -6.908  15.657  1.00  0.00    -0.166 F 
HETATM   37  F   UNL     1      42.107  -8.677  15.196  1.00  0.00    -0.166 F 
ENDBRANCH  30  34
ENDBRANCH  25  28
ENDBRANCH   1  20
TORSDOF 6
ENDMDL
MODEL 10
REMARK VINA RESULT:      -8.5      2.852      3.397
REMARK  6 active torsions:
REMARK  status: ('A' for Active; 'I' for Inactive)
REMARK    1  A    between atoms: C_5  and  N_6 
REMARK       I    between atoms: N_6  and  C_7 
REMARK       I    between atoms: C_7  and  N_8 
REMARK    2  A    between atoms: N_8  and  C_9 
REMARK    3  A    between atoms: C_12  and  C_13 
REMARK    4  A    between atoms: C_13  and  C_14 
REMARK       I    between atoms: C_14  and  N_15 
REMARK    5  A    between atoms: N_18  and  C_19 
REMARK    6  A    between atoms: C_21  and  C_22 
ROOT
HETATM    1  C   UNL     1      39.463 -11.148   2.974  1.00  0.00     0.162 C 
ENDROOT
BRANCH   1   2
HETATM    2  C   UNL     1      39.592  -9.682   3.214  1.00  0.00     0.052 A 
HETATM    3  C   UNL     1      38.636  -8.730   2.902  1.00  0.00     0.081 A 
HETATM    4  S   UNL     1      39.071  -7.217   3.573  1.00  0.00    -0.062 SA
HETATM    5  C   UNL     1      40.502  -7.920   4.170  1.00  0.00     0.174 A 
HETATM    6  N   UNL     1      40.702  -9.188   3.897  1.00  0.00    -0.228 NA
BRANCH   5   7
HETATM    7  N   UNL     1      41.280  -7.073   4.899  1.00  0.00    -0.287 N 
HETATM    8  C   UNL     1      41.800  -7.293   6.140  1.00  0.00     0.326 C 
HETATM    9  N   UNL     1      41.703  -8.568   6.630  1.00  0.00    -0.309 N 
HETATM   10  O   UNL     1      42.373  -6.353   6.687  1.00  0.00    -0.247 OA
HETATM   11  H   UNL     1      41.254  -9.231   6.006  1.00  0.00     0.170 HD
HETATM   12  H   UNL     1      41.482  -6.166   4.505  1.00  0.00     0.172 HD
BRANCH   9  13
HETATM   13  C   UNL     1      42.273  -9.082   7.812  1.00  0.00     0.036 A 
HETATM   14  C   UNL     1      43.460  -9.813   7.855  1.00  0.00     0.030 A 
HETATM   15  C   UNL     1      43.943 -10.313   9.069  1.00  0.00     0.009 A 
HETATM   16  C   UNL     1      43.247 -10.089  10.262  1.00  0.00    -0.062 A 
HETATM   17  C   UNL     1      43.740 -10.684  11.548  1.00  0.00     0.048 C 
HETATM   18  C   UNL     1      42.056  -9.360  10.220  1.00  0.00     0.009 A 
HETATM   19  C   UNL     1      41.583  -8.853   9.005  1.00  0.00     0.030 A 
ENDBRANCH   9  13
ENDBRANCH   5   7
ENDBRANCH   1   2
BRANCH   1  20
HETATM   20  C   UNL     1      40.577 -11.712   2.108  1.00  0.00     0.225 C 
HETATM   21  N   UNL     1      41.263 -12.840   2.553  1.00  0.00    -0.349 N 
HETATM   22  C   UNL     1      41.896 -13.673   1.517  1.00  0.00     0.145 C 
HETATM   23  C   UNL     1      40.943 -13.524   3.812  1.00  0.00     0.145 C 
HETATM   24  C   UNL     1      42.946 -14.676   2.038  1.00  0.00     0.143 C 
HETATM   25  N   UNL     1      42.425 -15.405   3.214  1.00  0.00    -0.378 N 
HETATM   26  C   UNL     1      42.049 -14.472   4.297  1.00  0.00     0.143 C 
HETATM   27  O   UNL     1      40.817 -11.196   1.012  1.00  0.00    -0.273 OA
BRANCH  25  28
HETATM   28  C   UNL     1      43.086 -16.558   3.656  1.00  0.00     0.030 A 
HETATM   29  C   UNL     1      43.003 -17.735   2.889  1.00  0.00     0.045 A 
HETATM   30  C   UNL     1      43.633 -18.932   3.272  1.00  0.00     0.050 A 
HETATM   31  C   UNL     1      44.395 -18.945   4.444  1.00  0.00     0.016 A 
HETATM   32  C   UNL     1      44.516 -17.788   5.209  1.00  0.00     0.003 A 
HETATM   33  C   UNL     1      43.869 -16.610   4.815  1.00  0.00     0.029 A 
BRANCH  30  34
HETATM   34  C   UNL     1      43.506 -20.174   2.430  1.00  0.00     0.417 C 
HETATM   35  F   UNL     1      43.694 -21.330   3.126  1.00  0.00    -0.166 F 
HETATM   36  F   UNL     1      42.281 -20.286   1.844  1.00  0.00    -0.166 F 
HETATM   37  F   UNL     1      44.411 -20.207   1.411  1.00  0.00    -0.166 F 
ENDBRANCH  30  34
ENDBRANCH  25  28
ENDBRANCH   1  20
TORSDOF 6
ENDMDL
