MODEL 1
REMARK VINA RESULT:      -8.2      0.000      0.000
REMARK  6 active torsions:
REMARK  status: ('A' for Active; 'I' for Inactive)
REMARK    1  A    between atoms: C_2  and  O_3 
REMARK    2  A    between atoms: O_3  and  C_4 
REMARK    3  A    between atoms: C_5  and  O_6 
REMARK    4  A    between atoms: C_9  and  C_10 
REMARK    5  A    between atoms: C_19  and  C_20 
REMARK    6  A    between atoms: C_22  and  O_23 
ROOT
HETATM    1  C   UNL     1      40.298 -15.154   2.409  1.00  0.00     0.156 A 
HETATM    2  N   UNL     1      39.733 -15.642   1.138  1.00  0.00    -0.343 N 
HETATM    3  C   UNL     1      39.857 -14.752   0.076  1.00  0.00     0.271 A 
HETATM    4  O   UNL     1      39.477 -14.906  -1.068  1.00  0.00    -0.266 OA
HETATM    5  C   UNL     1      40.538 -13.655   0.648  1.00  0.00     0.128 A 
HETATM    6  C   UNL     1      40.823 -13.845   1.969  1.00  0.00     0.034 A 
HETATM    7  N   UNL     1      41.035 -12.463   0.286  1.00  0.00    -0.272 N 
HETATM    8  H   UNL     1      41.013 -12.005  -0.620  1.00  0.00     0.189 HD
HETATM    9  N   UNL     1      41.656 -11.851   1.324  1.00  0.00    -0.173 NA
HETATM   10  C   UNL     1      41.524 -12.699   2.376  1.00  0.00     0.098 A 
HETATM   11  H   UNL     1      39.308 -16.548   1.017  1.00  0.00     0.163 HD
ENDROOT
BRANCH   1  12
HETATM   12  C   UNL     1      41.433 -16.008   2.913  1.00  0.00    -0.028 A 
HETATM   13  C   UNL     1      42.345 -16.655   2.055  1.00  0.00     0.012 A 
HETATM   14  C   UNL     1      43.362 -17.469   2.562  1.00  0.00     0.040 A 
HETATM   15  C   UNL     1      43.473 -17.652   3.933  1.00  0.00     0.099 A 
HETATM   16  C   UNL     1      42.603 -16.997   4.801  1.00  0.00     0.102 A 
HETATM   17  C   UNL     1      41.575 -16.201   4.299  1.00  0.00     0.049 A 
BRANCH  15  18
HETATM   18  O   UNL     1      44.432 -18.501   4.401  1.00  0.00    -0.358 OA
HETATM   19  H   UNL     1      44.316 -18.527   5.369  1.00  0.00     0.218 HD
ENDBRANCH  15  18
BRANCH  16  20
HETATM   20  O   UNL     1      42.700 -17.170   6.155  1.00  0.00    -0.349 OA
BRANCH  20  21
HETATM   21  C   UNL     1      41.989 -16.133   6.849  1.00  0.00     0.171 C 
HETATM   22  C   UNL     1      42.956 -15.461   7.806  1.00  0.00     0.034 C 
ENDBRANCH  20  21
ENDBRANCH  16  20
ENDBRANCH   1  12
BRANCH  10  23
HETATM   23  C   UNL     1      42.096 -12.380   3.685  1.00  0.00    -0.002 A 
HETATM   24  C   UNL     1      43.422 -11.921   3.775  1.00  0.00     0.050 A 
HETATM   25  C   UNL     1      43.996 -11.632   5.013  1.00  0.00     0.069 A 
HETATM   26  C   UNL     1      43.239 -11.801   6.174  1.00  0.00     0.037 A 
HETATM   27  C   UNL     1      41.919 -12.243   6.101  1.00  0.00     0.004 A 
HETATM   28  C   UNL     1      41.347 -12.529   4.860  1.00  0.00     0.014 A 
BRANCH  25  29
HETATM   29  O   UNL     1      45.273 -11.186   5.223  1.00  0.00    -0.356 OA
HETATM   30  C   UNL     1      45.747 -11.213   6.564  1.00  0.00     0.210 C 
ENDBRANCH  25  29
ENDBRANCH  10  23
TORSDOF 6
ENDMDL
MODEL 2
REMARK VINA RESULT:      -7.9      2.824      5.198
REMARK  6 active torsions:
REMARK  status: ('A' for Active; 'I' for Inactive)
REMARK    1  A    between atoms: C_2  and  O_3 
REMARK    2  A    between atoms: O_3  and  C_4 
REMARK    3  A    between atoms: C_5  and  O_6 
REMARK    4  A    between atoms: C_9  and  C_10 
REMARK    5  A    between atoms: C_19  and  C_20 
REMARK    6  A    between atoms: C_22  and  O_23 
ROOT
HETATM    1  C   UNL     1      43.699 -16.383   4.369  1.00  0.00     0.156 A 
HETATM    2  N   UNL     1      43.713 -17.856   4.409  1.00  0.00    -0.343 N 
HETATM    3  C   UNL     1      43.579 -18.397   5.683  1.00  0.00     0.271 A 
HETATM    4  O   UNL     1      43.562 -19.573   5.991  1.00  0.00    -0.266 OA
HETATM    5  C   UNL     1      43.451 -17.258   6.509  1.00  0.00     0.128 A 
HETATM    6  C   UNL     1      43.499 -16.091   5.804  1.00  0.00     0.034 A 
HETATM    7  N   UNL     1      43.262 -16.952   7.801  1.00  0.00    -0.272 N 
HETATM    8  H   UNL     1      43.172 -17.570   8.602  1.00  0.00     0.189 HD
HETATM    9  N   UNL     1      43.171 -15.612   7.983  1.00  0.00    -0.173 NA
HETATM   10  C   UNL     1      43.323 -15.067   6.748  1.00  0.00     0.098 A 
HETATM   11  H   UNL     1      43.790 -18.446   3.594  1.00  0.00     0.163 HD
ENDROOT
BRANCH   1  12
HETATM   12  C   UNL     1      42.543 -15.828   3.576  1.00  0.00    -0.028 A 
HETATM   13  C   UNL     1      41.287 -16.465   3.505  1.00  0.00     0.012 A 
HETATM   14  C   UNL     1      40.252 -15.937   2.727  1.00  0.00     0.040 A 
HETATM   15  C   UNL     1      40.465 -14.771   2.007  1.00  0.00     0.099 A 
HETATM   16  C   UNL     1      41.686 -14.107   2.088  1.00  0.00     0.102 A 
HETATM   17  C   UNL     1      42.728 -14.641   2.845  1.00  0.00     0.049 A 
BRANCH  15  18
HETATM   18  O   UNL     1      39.462 -14.309   1.205  1.00  0.00    -0.358 OA
HETATM   19  H   UNL     1      39.696 -14.585   0.300  1.00  0.00     0.218 HD
ENDBRANCH  15  18
BRANCH  16  20
HETATM   20  O   UNL     1      41.910 -12.957   1.380  1.00  0.00    -0.349 OA
BRANCH  20  21
HETATM   21  C   UNL     1      42.117 -11.849   2.271  1.00  0.00     0.171 C 
HETATM   22  C   UNL     1      40.803 -11.103   2.405  1.00  0.00     0.034 C 
ENDBRANCH  20  21
ENDBRANCH  16  20
ENDBRANCH   1  12
BRANCH  10  23
HETATM   23  C   UNL     1      43.261 -13.620   6.544  1.00  0.00    -0.002 A 
HETATM   24  C   UNL     1      44.393 -12.828   6.806  1.00  0.00     0.050 A 
HETATM   25  C   UNL     1      44.351 -11.444   6.639  1.00  0.00     0.069 A 
HETATM   26  C   UNL     1      43.168 -10.843   6.204  1.00  0.00     0.037 A 
HETATM   27  C   UNL     1      42.040 -11.615   5.928  1.00  0.00     0.004 A 
HETATM   28  C   UNL     1      42.087 -13.000   6.094  1.00  0.00     0.014 A 
BRANCH  25  29
HETATM   29  O   UNL     1      45.384 -10.575   6.867  1.00  0.00    -0.356 OA
HETATM   30  C   UNL     1      45.800 -10.417   8.218  1.00  0.00     0.210 C 
ENDBRANCH  25  29
ENDBRANCH  10  23
TORSDOF 6
ENDMDL
MODEL 3
REMARK VINA RESULT:      -7.8      2.609      6.280
REMARK  6 active torsions:
REMARK  status: ('A' for Active; 'I' for Inactive)
REMARK    1  A    between atoms: C_2  and  O_3 
REMARK    2  A    between atoms: O_3  and  C_4 
REMARK    3  A    between atoms: C_5  and  O_6 
REMARK    4  A    between atoms: C_9  and  C_10 
REMARK    5  A    between atoms: C_19  and  C_20 
REMARK    6  A    between atoms: C_22  and  O_23 
ROOT
HETATM    1  C   UNL     1      40.107 -14.352   4.451  1.00  0.00     0.156 A 
HETATM    2  N   UNL     1      39.575 -13.104   5.028  1.00  0.00    -0.343 N 
HETATM    3  C   UNL     1      40.461 -12.437   5.867  1.00  0.00     0.271 A 
HETATM    4  O   UNL     1      40.272 -11.396   6.467  1.00  0.00    -0.266 OA
HETATM    5  C   UNL     1      41.617 -13.247   5.832  1.00  0.00     0.128 A 
HETATM    6  C   UNL     1      41.467 -14.339   5.028  1.00  0.00     0.034 A 
HETATM    7  N   UNL     1      42.862 -13.268   6.329  1.00  0.00    -0.272 N 
HETATM    8  H   UNL     1      43.317 -12.609   6.955  1.00  0.00     0.189 HD
HETATM    9  N   UNL     1      43.558 -14.338   5.873  1.00  0.00    -0.173 NA
HETATM   10  C   UNL     1      42.698 -15.014   5.069  1.00  0.00     0.098 A 
HETATM   11  H   UNL     1      38.659 -12.732   4.830  1.00  0.00     0.163 HD
ENDROOT
BRANCH   1  12
HETATM   12  C   UNL     1      40.197 -14.311   2.947  1.00  0.00    -0.028 A 
HETATM   13  C   UNL     1      39.875 -15.414   2.130  1.00  0.00     0.012 A 
HETATM   14  C   UNL     1      40.008 -15.346   0.740  1.00  0.00     0.040 A 
HETATM   15  C   UNL     1      40.471 -14.179   0.153  1.00  0.00     0.099 A 
HETATM   16  C   UNL     1      40.765 -13.067   0.937  1.00  0.00     0.102 A 
HETATM   17  C   UNL     1      40.655 -13.135   2.325  1.00  0.00     0.049 A 
BRANCH  15  18
HETATM   18  O   UNL     1      40.654 -14.157  -1.199  1.00  0.00    -0.358 OA
HETATM   19  H   UNL     1      41.423 -14.730  -1.373  1.00  0.00     0.218 HD
ENDBRANCH  15  18
BRANCH  16  20
HETATM   20  O   UNL     1      41.225 -11.909   0.371  1.00  0.00    -0.349 OA
BRANCH  20  21
HETATM   21  C   UNL     1      40.362 -10.809   0.698  1.00  0.00     0.171 C 
HETATM   22  C   UNL     1      39.404 -10.604  -0.461  1.00  0.00     0.034 C 
ENDBRANCH  20  21
ENDBRANCH  16  20
ENDBRANCH   1  12
BRANCH  10  23
HETATM   23  C   UNL     1      43.109 -16.233   4.371  1.00  0.00    -0.002 A 
HETATM   24  C   UNL     1      43.521 -17.355   5.111  1.00  0.00     0.050 A 
HETATM   25  C   UNL     1      43.937 -18.521   4.467  1.00  0.00     0.069 A 
HETATM   26  C   UNL     1      43.941 -18.568   3.072  1.00  0.00     0.037 A 
HETATM   27  C   UNL     1      43.524 -17.468   2.324  1.00  0.00     0.004 A 
HETATM   28  C   UNL     1      43.106 -16.304   2.972  1.00  0.00     0.014 A 
BRANCH  25  29
HETATM   29  O   UNL     1      44.363 -19.669   5.079  1.00  0.00    -0.356 OA
HETATM   30  C   UNL     1      43.986 -20.897   4.468  1.00  0.00     0.210 C 
ENDBRANCH  25  29
ENDBRANCH  10  23
TORSDOF 6
ENDMDL
MODEL 4
REMARK VINA RESULT:      -7.6      1.026      2.290
REMARK  6 active torsions:
REMARK  status: ('A' for Active; 'I' for Inactive)
REMARK    1  A    between atoms: C_2  and  O_3 
REMARK    2  A    between atoms: O_3  and  C_4 
REMARK    3  A    between atoms: C_5  and  O_6 
REMARK    4  A    between atoms: C_9  and  C_10 
REMARK    5  A    between atoms: C_19  and  C_20 
REMARK    6  A    between atoms: C_22  and  O_23 
ROOT
HETATM    1  C   UNL     1      40.245 -14.857   2.726  1.00  0.00     0.156 A 
HETATM    2  N   UNL     1      39.730 -15.524   1.516  1.00  0.00    -0.343 N 
HETATM    3  C   UNL     1      39.885 -14.789   0.346  1.00  0.00     0.271 A 
HETATM    4  O   UNL     1      39.547 -15.106  -0.778  1.00  0.00    -0.266 OA
HETATM    5  C   UNL     1      40.536 -13.614   0.782  1.00  0.00     0.128 A 
HETATM    6  C   UNL     1      40.775 -13.615   2.125  1.00  0.00     0.034 A 
HETATM    7  N   UNL     1      41.037 -12.479   0.274  1.00  0.00    -0.272 N 
HETATM    8  H   UNL     1      41.044 -12.151  -0.687  1.00  0.00     0.189 HD
HETATM    9  N   UNL     1      41.614 -11.720   1.238  1.00  0.00    -0.173 NA
HETATM   10  C   UNL     1      41.452 -12.414   2.393  1.00  0.00     0.098 A 
HETATM   11  H   UNL     1      39.317 -16.444   1.508  1.00  0.00     0.163 HD
ENDROOT
BRANCH   1  12
HETATM   12  C   UNL     1      41.368 -15.618   3.383  1.00  0.00    -0.028 A 
HETATM   13  C   UNL     1      41.790 -15.371   4.705  1.00  0.00     0.012 A 
HETATM   14  C   UNL     1      42.861 -16.074   5.265  1.00  0.00     0.040 A 
HETATM   15  C   UNL     1      43.526 -17.026   4.507  1.00  0.00     0.099 A 
HETATM   16  C   UNL     1      43.106 -17.308   3.209  1.00  0.00     0.102 A 
HETATM   17  C   UNL     1      42.054 -16.595   2.639  1.00  0.00     0.049 A 
BRANCH  15  18
HETATM   18  O   UNL     1      44.608 -17.653   5.052  1.00  0.00    -0.358 OA
HETATM   19  H   UNL     1      44.573 -18.573   4.729  1.00  0.00     0.218 HD
ENDBRANCH  15  18
BRANCH  16  20
HETATM   20  O   UNL     1      43.756 -18.243   2.449  1.00  0.00    -0.349 OA
BRANCH  20  21
HETATM   21  C   UNL     1      43.292 -19.564   2.768  1.00  0.00     0.171 C 
HETATM   22  C   UNL     1      43.585 -20.463   1.581  1.00  0.00     0.034 C 
ENDBRANCH  20  21
ENDBRANCH  16  20
ENDBRANCH   1  12
BRANCH  10  23
HETATM   23  C   UNL     1      41.974 -11.909   3.663  1.00  0.00    -0.002 A 
HETATM   24  C   UNL     1      43.363 -11.795   3.851  1.00  0.00     0.050 A 
HETATM   25  C   UNL     1      43.884 -11.336   5.061  1.00  0.00     0.069 A 
HETATM   26  C   UNL     1      43.012 -10.987   6.094  1.00  0.00     0.037 A 
HETATM   27  C   UNL     1      41.632 -11.083   5.918  1.00  0.00     0.004 A 
HETATM   28  C   UNL     1      41.114 -11.540   4.705  1.00  0.00     0.014 A 
BRANCH  25  29
HETATM   29  O   UNL     1      45.212 -11.189   5.360  1.00  0.00    -0.356 OA
HETATM   30  C   UNL     1      45.584 -11.362   6.722  1.00  0.00     0.210 C 
ENDBRANCH  25  29
ENDBRANCH  10  23
TORSDOF 6
ENDMDL
MODEL 5
REMARK VINA RESULT:      -7.5      1.239      4.863
REMARK  6 active torsions:
REMARK  status: ('A' for Active; 'I' for Inactive)
REMARK    1  A    between atoms: C_2  and  O_3 
REMARK    2  A    between atoms: O_3  and  C_4 
REMARK    3  A    between atoms: C_5  and  O_6 
REMARK    4  A    between atoms: C_9  and  C_10 
REMARK    5  A    between atoms: C_19  and  C_20 
REMARK    6  A    between atoms: C_22  and  O_23 
ROOT
HETATM    1  C   UNL     1      42.019 -12.984   1.695  1.00  0.00     0.156 A 
HETATM    2  N   UNL     1      41.266 -12.069   0.820  1.00  0.00    -0.343 N 
HETATM    3  C   UNL     1      40.206 -12.665   0.143  1.00  0.00     0.271 A 
HETATM    4  O   UNL     1      39.435 -12.139  -0.635  1.00  0.00    -0.266 OA
HETATM    5  C   UNL     1      40.243 -14.003   0.594  1.00  0.00     0.128 A 
HETATM    6  C   UNL     1      41.248 -14.227   1.489  1.00  0.00     0.034 A 
HETATM    7  N   UNL     1      39.563 -15.148   0.441  1.00  0.00    -0.272 N 
HETATM    8  H   UNL     1      38.754 -15.344  -0.140  1.00  0.00     0.189 HD
HETATM    9  N   UNL     1      40.078 -16.135   1.215  1.00  0.00    -0.173 NA
HETATM   10  C   UNL     1      41.128 -15.574   1.867  1.00  0.00     0.098 A 
HETATM   11  H   UNL     1      41.466 -11.085   0.719  1.00  0.00     0.163 HD
ENDROOT
BRANCH   1  12
HETATM   12  C   UNL     1      41.959 -12.588   3.149  1.00  0.00    -0.028 A 
HETATM   13  C   UNL     1      40.810 -12.030   3.744  1.00  0.00     0.012 A 
HETATM   14  C   UNL     1      40.808 -11.642   5.087  1.00  0.00     0.040 A 
HETATM   15  C   UNL     1      41.957 -11.801   5.847  1.00  0.00     0.099 A 
HETATM   16  C   UNL     1      43.093 -12.380   5.289  1.00  0.00     0.102 A 
HETATM   17  C   UNL     1      43.108 -12.749   3.945  1.00  0.00     0.049 A 
BRANCH  15  18
HETATM   18  O   UNL     1      41.951 -11.356   7.137  1.00  0.00    -0.358 OA
HETATM   19  H   UNL     1      41.632 -10.435   7.100  1.00  0.00     0.218 HD
ENDBRANCH  15  18
BRANCH  16  20
HETATM   20  O   UNL     1      44.235 -12.540   6.027  1.00  0.00    -0.349 OA
BRANCH  20  21
HETATM   21  C   UNL     1      45.103 -11.407   5.865  1.00  0.00     0.171 C 
HETATM   22  C   UNL     1      45.586 -10.987   7.240  1.00  0.00     0.034 C 
ENDBRANCH  20  21
ENDBRANCH  16  20
ENDBRANCH   1  12
BRANCH  10  23
HETATM   23  C   UNL     1      41.928 -16.342   2.822  1.00  0.00    -0.002 A 
HETATM   24  C   UNL     1      41.739 -16.152   4.203  1.00  0.00     0.050 A 
HETATM   25  C   UNL     1      42.504 -16.857   5.132  1.00  0.00     0.069 A 
HETATM   26  C   UNL     1      43.466 -17.761   4.680  1.00  0.00     0.037 A 
HETATM   27  C   UNL     1      43.657 -17.970   3.315  1.00  0.00     0.004 A 
HETATM   28  C   UNL     1      42.888 -17.266   2.388  1.00  0.00     0.014 A 
BRANCH  25  29
HETATM   29  O   UNL     1      42.413 -16.751   6.494  1.00  0.00    -0.356 OA
HETATM   30  C   UNL     1      42.012 -15.488   7.012  1.00  0.00     0.210 C 
ENDBRANCH  25  29
ENDBRANCH  10  23
TORSDOF 6
ENDMDL
MODEL 6
REMARK VINA RESULT:      -7.3      1.643      2.836
REMARK  6 active torsions:
REMARK  status: ('A' for Active; 'I' for Inactive)
REMARK    1  A    between atoms: C_2  and  O_3 
REMARK    2  A    between atoms: O_3  and  C_4 
REMARK    3  A    between atoms: C_5  and  O_6 
REMARK    4  A    between atoms: C_9  and  C_10 
REMARK    5  A    between atoms: C_19  and  C_20 
REMARK    6  A    between atoms: C_22  and  O_23 
ROOT
HETATM    1  C   UNL     1      40.319 -14.015   3.896  1.00  0.00     0.156 A 
HETATM    2  N   UNL     1      39.645 -14.383   2.638  1.00  0.00    -0.343 N 
HETATM    3  C   UNL     1      40.032 -13.626   1.537  1.00  0.00     0.271 A 
HETATM    4  O   UNL     1      39.631 -13.722   0.394  1.00  0.00    -0.266 OA
HETATM    5  C   UNL     1      41.001 -12.747   2.070  1.00  0.00     0.128 A 
HETATM    6  C   UNL     1      41.208 -12.942   3.404  1.00  0.00     0.034 A 
HETATM    7  N   UNL     1      41.829 -11.775   1.661  1.00  0.00    -0.272 N 
HETATM    8  H   UNL     1      41.949 -11.379   0.734  1.00  0.00     0.189 HD
HETATM    9  N   UNL     1      42.595 -11.317   2.683  1.00  0.00    -0.173 NA
HETATM   10  C   UNL     1      42.213 -12.032   3.771  1.00  0.00     0.098 A 
HETATM   11  H   UNL     1      38.973 -15.130   2.551  1.00  0.00     0.163 HD
ENDROOT
BRANCH   1  12
HETATM   12  C   UNL     1      41.150 -15.137   4.466  1.00  0.00    -0.028 A 
HETATM   13  C   UNL     1      41.126 -15.490   5.830  1.00  0.00     0.012 A 
HETATM   14  C   UNL     1      41.940 -16.513   6.326  1.00  0.00     0.040 A 
HETATM   15  C   UNL     1      42.791 -17.188   5.464  1.00  0.00     0.099 A 
HETATM   16  C   UNL     1      42.808 -16.877   4.107  1.00  0.00     0.102 A 
HETATM   17  C   UNL     1      42.014 -15.844   3.612  1.00  0.00     0.049 A 
BRANCH  15  18
HETATM   18  O   UNL     1      43.622 -18.138   5.982  1.00  0.00    -0.358 OA
HETATM   19  H   UNL     1      43.708 -17.929   6.930  1.00  0.00     0.218 HD
ENDBRANCH  15  18
BRANCH  16  20
HETATM   20  O   UNL     1      43.646 -17.534   3.246  1.00  0.00    -0.349 OA
BRANCH  20  21
HETATM   21  C   UNL     1      42.891 -18.286   2.284  1.00  0.00     0.171 C 
HETATM   22  C   UNL     1      43.422 -19.707   2.279  1.00  0.00     0.034 C 
ENDBRANCH  20  21
ENDBRANCH  16  20
ENDBRANCH   1  12
BRANCH  10  23
HETATM   23  C   UNL     1      42.843 -11.826   5.076  1.00  0.00    -0.002 A 
HETATM   24  C   UNL     1      42.577 -10.653   5.802  1.00  0.00     0.050 A 
HETATM   25  C   UNL     1      43.184 -10.424   7.038  1.00  0.00     0.069 A 
HETATM   26  C   UNL     1      44.064 -11.378   7.554  1.00  0.00     0.037 A 
HETATM   27  C   UNL     1      44.328 -12.552   6.852  1.00  0.00     0.004 A 
HETATM   28  C   UNL     1      43.717 -12.778   5.617  1.00  0.00     0.014 A 
BRANCH  25  29
HETATM   29  O   UNL     1      43.006  -9.322   7.829  1.00  0.00    -0.356 OA
HETATM   30  C   UNL     1      44.180  -8.722   8.364  1.00  0.00     0.210 C 
ENDBRANCH  25  29
ENDBRANCH  10  23
TORSDOF 6
ENDMDL
MODEL 7
REMARK VINA RESULT:      -7.2      1.690      5.006
REMARK  6 active torsions:
REMARK  status: ('A' for Active; 'I' for Inactive)
REMARK    1  A    between atoms: C_2  and  O_3 
REMARK    2  A    between atoms: O_3  and  C_4 
REMARK    3  A    between atoms: C_5  and  O_6 
REMARK    4  A    between atoms: C_9  and  C_10 
REMARK    5  A    between atoms: C_19  and  C_20 
REMARK    6  A    between atoms: C_22  and  O_23 
ROOT
HETATM    1  C   UNL     1      42.160 -13.269   1.519  1.00  0.00     0.156 A 
HETATM    2  N   UNL     1      41.371 -12.359   0.669  1.00  0.00    -0.343 N 
HETATM    3  C   UNL     1      40.223 -12.930   0.130  1.00  0.00     0.271 A 
HETATM    4  O   UNL     1      39.406 -12.402  -0.600  1.00  0.00    -0.266 OA
HETATM    5  C   UNL     1      40.237 -14.243   0.648  1.00  0.00     0.128 A 
HETATM    6  C   UNL     1      41.312 -14.477   1.455  1.00  0.00     0.034 A 
HETATM    7  N   UNL     1      39.491 -15.357   0.622  1.00  0.00    -0.272 N 
HETATM    8  H   UNL     1      38.620 -15.538   0.131  1.00  0.00     0.189 HD
HETATM    9  N   UNL     1      40.029 -16.330   1.397  1.00  0.00    -0.173 NA
HETATM   10  C   UNL     1      41.164 -15.795   1.915  1.00  0.00     0.098 A 
HETATM   11  H   UNL     1      41.608 -11.394   0.497  1.00  0.00     0.163 HD
ENDROOT
BRANCH   1  12
HETATM   12  C   UNL     1      42.260 -12.798   2.948  1.00  0.00    -0.028 A 
HETATM   13  C   UNL     1      43.222 -13.293   3.852  1.00  0.00     0.012 A 
HETATM   14  C   UNL     1      43.257 -12.858   5.180  1.00  0.00     0.040 A 
HETATM   15  C   UNL     1      42.327 -11.928   5.620  1.00  0.00     0.099 A 
HETATM   16  C   UNL     1      41.389 -11.401   4.736  1.00  0.00     0.102 A 
HETATM   17  C   UNL     1      41.335 -11.848   3.417  1.00  0.00     0.049 A 
BRANCH  15  18
HETATM   18  O   UNL     1      42.340 -11.565   6.935  1.00  0.00    -0.358 OA
HETATM   19  H   UNL     1      41.641 -10.893   7.033  1.00  0.00     0.218 HD
ENDBRANCH  15  18
BRANCH  16  20
HETATM   20  O   UNL     1      40.463 -10.485   5.158  1.00  0.00    -0.349 OA
BRANCH  20  21
HETATM   21  C   UNL     1      39.191 -11.115   5.373  1.00  0.00     0.171 C 
HETATM   22  C   UNL     1      38.790 -10.882   6.817  1.00  0.00     0.034 C 
ENDBRANCH  20  21
ENDBRANCH  16  20
ENDBRANCH   1  12
BRANCH  10  23
HETATM   23  C   UNL     1      42.013 -16.556   2.832  1.00  0.00    -0.002 A 
HETATM   24  C   UNL     1      41.857 -16.401   4.221  1.00  0.00     0.050 A 
HETATM   25  C   UNL     1      42.669 -17.100   5.114  1.00  0.00     0.069 A 
HETATM   26  C   UNL     1      43.647 -17.963   4.617  1.00  0.00     0.037 A 
HETATM   27  C   UNL     1      43.807 -18.137   3.243  1.00  0.00     0.004 A 
HETATM   28  C   UNL     1      42.990 -17.439   2.353  1.00  0.00     0.014 A 
BRANCH  25  29
HETATM   29  O   UNL     1      42.612 -17.026   6.480  1.00  0.00    -0.356 OA
HETATM   30  C   UNL     1      41.917 -15.914   7.031  1.00  0.00     0.210 C 
ENDBRANCH  25  29
ENDBRANCH  10  23
TORSDOF 6
ENDMDL
MODEL 8
REMARK VINA RESULT:      -7.1      2.211      5.129
REMARK  6 active torsions:
REMARK  status: ('A' for Active; 'I' for Inactive)
REMARK    1  A    between atoms: C_2  and  O_3 
REMARK    2  A    between atoms: O_3  and  C_4 
REMARK    3  A    between atoms: C_5  and  O_6 
REMARK    4  A    between atoms: C_9  and  C_10 
REMARK    5  A    between atoms: C_19  and  C_20 
REMARK    6  A    between atoms: C_22  and  O_23 
ROOT
HETATM    1  C   UNL     1      43.032 -12.919   3.131  1.00  0.00     0.156 A 
HETATM    2  N   UNL     1      43.279 -12.529   4.531  1.00  0.00    -0.343 N 
HETATM    3  C   UNL     1      42.218 -11.863   5.136  1.00  0.00     0.271 A 
HETATM    4  O   UNL     1      42.164 -11.436   6.272  1.00  0.00    -0.266 OA
HETATM    5  C   UNL     1      41.235 -11.827   4.123  1.00  0.00     0.128 A 
HETATM    6  C   UNL     1      41.648 -12.428   2.970  1.00  0.00     0.034 A 
HETATM    7  N   UNL     1      39.976 -11.403   3.940  1.00  0.00    -0.272 N 
HETATM    8  H   UNL     1      39.358 -10.922   4.586  1.00  0.00     0.189 HD
HETATM    9  N   UNL     1      39.527 -11.712   2.698  1.00  0.00    -0.173 NA
HETATM   10  C   UNL     1      40.560 -12.344   2.086  1.00  0.00     0.098 A 
HETATM   11  H   UNL     1      44.127 -12.736   5.037  1.00  0.00     0.163 HD
ENDROOT
BRANCH   1  12
HETATM   12  C   UNL     1      43.065 -14.412   2.923  1.00  0.00    -0.028 A 
HETATM   13  C   UNL     1      43.262 -15.005   1.659  1.00  0.00     0.012 A 
HETATM   14  C   UNL     1      43.249 -16.395   1.503  1.00  0.00     0.040 A 
HETATM   15  C   UNL     1      43.031 -17.205   2.608  1.00  0.00     0.099 A 
HETATM   16  C   UNL     1      42.867 -16.642   3.870  1.00  0.00     0.102 A 
HETATM   17  C   UNL     1      42.857 -15.257   4.028  1.00  0.00     0.049 A 
BRANCH  15  18
HETATM   18  O   UNL     1      42.958 -18.554   2.421  1.00  0.00    -0.358 OA
HETATM   19  H   UNL     1      42.018 -18.788   2.527  1.00  0.00     0.218 HD
ENDBRANCH  15  18
BRANCH  16  20
HETATM   20  O   UNL     1      42.648 -17.430   4.968  1.00  0.00    -0.349 OA
BRANCH  20  21
HETATM   21  C   UNL     1      43.895 -17.869   5.530  1.00  0.00     0.171 C 
HETATM   22  C   UNL     1      43.842 -19.379   5.668  1.00  0.00     0.034 C 
ENDBRANCH  20  21
ENDBRANCH  16  20
ENDBRANCH   1  12
BRANCH  10  23
HETATM   23  C   UNL     1      40.438 -12.851   0.718  1.00  0.00    -0.002 A 
HETATM   24  C   UNL     1      40.882 -12.066  -0.360  1.00  0.00     0.050 A 
HETATM   25  C   UNL     1      40.756 -12.519  -1.674  1.00  0.00     0.069 A 
HETATM   26  C   UNL     1      40.182 -13.769  -1.914  1.00  0.00     0.037 A 
HETATM   27  C   UNL     1      39.748 -14.564  -0.855  1.00  0.00     0.004 A 
HETATM   28  C   UNL     1      39.878 -14.109   0.458  1.00  0.00     0.014 A 
BRANCH  25  29
HETATM   29  O   UNL     1      41.147 -11.843  -2.798  1.00  0.00    -0.356 OA
HETATM   30  C   UNL     1      40.512 -10.594  -3.045  1.00  0.00     0.210 C 
ENDBRANCH  25  29
ENDBRANCH  10  23
TORSDOF 6
ENDMDL
MODEL 9
REMARK VINA RESULT:      -7.1      2.555      6.173
REMARK  6 active torsions:
REMARK  status: ('A' for Active; 'I' for Inactive)
REMARK    1  A    between atoms: C_2  and  O_3 
REMARK    2  A    between atoms: O_3  and  C_4 
REMARK    3  A    between atoms: C_5  and  O_6 
REMARK    4  A    between atoms: C_9  and  C_10 
REMARK    5  A    between atoms: C_19  and  C_20 
REMARK    6  A    between atoms: C_22  and  O_23 
ROOT
HETATM    1  C   UNL     1      41.436 -15.623   6.265  1.00  0.00     0.156 A 
HETATM    2  N   UNL     1      42.169 -16.101   7.452  1.00  0.00    -0.343 N 
HETATM    3  C   UNL     1      43.307 -16.846   7.161  1.00  0.00     0.271 A 
HETATM    4  O   UNL     1      44.081 -17.354   7.949  1.00  0.00    -0.266 OA
HETATM    5  C   UNL     1      43.345 -16.847   5.750  1.00  0.00     0.128 A 
HETATM    6  C   UNL     1      42.309 -16.152   5.197  1.00  0.00     0.034 A 
HETATM    7  N   UNL     1      44.115 -17.303   4.751  1.00  0.00    -0.272 N 
HETATM    8  H   UNL     1      44.969 -17.851   4.796  1.00  0.00     0.189 HD
HETATM    9  N   UNL     1      43.632 -16.925   3.542  1.00  0.00    -0.173 NA
HETATM   10  C   UNL     1      42.506 -16.214   3.808  1.00  0.00     0.098 A 
HETATM   11  H   UNL     1      41.902 -15.900   8.404  1.00  0.00     0.163 HD
ENDROOT
BRANCH   1  12
HETATM   12  C   UNL     1      41.382 -14.120   6.175  1.00  0.00    -0.028 A 
HETATM   13  C   UNL     1      40.180 -13.405   5.999  1.00  0.00     0.012 A 
HETATM   14  C   UNL     1      40.177 -12.012   5.882  1.00  0.00     0.040 A 
HETATM   15  C   UNL     1      41.378 -11.319   5.933  1.00  0.00     0.099 A 
HETATM   16  C   UNL     1      42.574 -12.001   6.139  1.00  0.00     0.102 A 
HETATM   17  C   UNL     1      42.584 -13.392   6.234  1.00  0.00     0.049 A 
BRANCH  15  18
HETATM   18  O   UNL     1      41.358  -9.967   5.753  1.00  0.00    -0.358 OA
HETATM   19  H   UNL     1      42.115  -9.619   6.259  1.00  0.00     0.218 HD
ENDBRANCH  15  18
BRANCH  16  20
HETATM   20  O   UNL     1      43.766 -11.330   6.188  1.00  0.00    -0.349 OA
BRANCH  20  21
HETATM   21  C   UNL     1      44.375 -11.478   7.480  1.00  0.00     0.171 C 
HETATM   22  C   UNL     1      45.774 -10.894   7.409  1.00  0.00     0.034 C 
ENDBRANCH  20  21
ENDBRANCH  16  20
ENDBRANCH   1  12
BRANCH  10  23
HETATM   23  C   UNL     1      41.712 -15.617   2.733  1.00  0.00    -0.002 A 
HETATM   24  C   UNL     1      41.959 -14.291   2.336  1.00  0.00     0.050 A 
HETATM   25  C   UNL     1      41.201 -13.694   1.329  1.00  0.00     0.069 A 
HETATM   26  C   UNL     1      40.187 -14.428   0.710  1.00  0.00     0.037 A 
HETATM   27  C   UNL     1      39.939 -15.748   1.083  1.00  0.00     0.004 A 
HETATM   28  C   UNL     1      40.701 -16.343   2.089  1.00  0.00     0.014 A 
BRANCH  25  29
HETATM   29  O   UNL     1      41.345 -12.415   0.865  1.00  0.00    -0.356 OA
HETATM   30  C   UNL     1      40.877 -12.156  -0.453  1.00  0.00     0.210 C 
ENDBRANCH  25  29
ENDBRANCH  10  23
TORSDOF 6
ENDMDL
MODEL 10
REMARK VINA RESULT:      -7.1      2.004      5.389
REMARK  6 active torsions:
REMARK  status: ('A' for Active; 'I' for Inactive)
REMARK    1  A    between atoms: C_2  and  O_3 
REMARK    2  A    between atoms: O_3  and  C_4 
REMARK    3  A    between atoms: C_5  and  O_6 
REMARK    4  A    between atoms: C_9  and  C_10 
REMARK    5  A    between atoms: C_19  and  C_20 
REMARK    6  A    between atoms: C_22  and  O_23 
ROOT
HETATM    1  C   UNL     1      43.067 -13.039   4.935  1.00  0.00     0.156 A 
HETATM    2  N   UNL     1      43.396 -12.162   6.073  1.00  0.00    -0.343 N 
HETATM    3  C   UNL     1      42.401 -11.245   6.396  1.00  0.00     0.271 A 
HETATM    4  O   UNL     1      42.420 -10.413   7.283  1.00  0.00    -0.266 OA
HETATM    5  C   UNL     1      41.378 -11.532   5.466  1.00  0.00     0.128 A 
HETATM    6  C   UNL     1      41.706 -12.554   4.624  1.00  0.00     0.034 A 
HETATM    7  N   UNL     1      40.138 -11.126   5.158  1.00  0.00    -0.272 N 
HETATM    8  H   UNL     1      39.576 -10.393   5.581  1.00  0.00     0.189 HD
HETATM    9  N   UNL     1      39.619 -11.854   4.139  1.00  0.00    -0.173 NA
HETATM   10  C   UNL     1      40.588 -12.741   3.796  1.00  0.00     0.098 A 
HETATM   11  H   UNL     1      44.252 -12.217   6.604  1.00  0.00     0.163 HD
ENDROOT
BRANCH   1  12
HETATM   12  C   UNL     1      43.008 -14.497   5.315  1.00  0.00    -0.028 A 
HETATM   13  C   UNL     1      42.503 -14.946   6.552  1.00  0.00     0.012 A 
HETATM   14  C   UNL     1      42.500 -16.305   6.881  1.00  0.00     0.040 A 
HETATM   15  C   UNL     1      43.011 -17.228   5.980  1.00  0.00     0.099 A 
HETATM   16  C   UNL     1      43.485 -16.810   4.740  1.00  0.00     0.102 A 
HETATM   17  C   UNL     1      43.510 -15.454   4.415  1.00  0.00     0.049 A 
BRANCH  15  18
HETATM   18  O   UNL     1      43.057 -18.540   6.348  1.00  0.00    -0.358 OA
HETATM   19  H   UNL     1      42.423 -19.002   5.770  1.00  0.00     0.218 HD
ENDBRANCH  15  18
BRANCH  16  20
HETATM   20  O   UNL     1      43.994 -17.710   3.842  1.00  0.00    -0.349 OA
BRANCH  20  21
HETATM   21  C   UNL     1      43.110 -17.857   2.720  1.00  0.00     0.171 C 
HETATM   22  C   UNL     1      43.205 -19.292   2.234  1.00  0.00     0.034 C 
ENDBRANCH  20  21
ENDBRANCH  16  20
ENDBRANCH   1  12
BRANCH  10  23
HETATM   23  C   UNL     1      40.378 -13.722   2.731  1.00  0.00    -0.002 A 
HETATM   24  C   UNL     1      40.274 -13.291   1.396  1.00  0.00     0.050 A 
HETATM   25  C   UNL     1      40.053 -14.206   0.366  1.00  0.00     0.069 A 
HETATM   26  C   UNL     1      39.935 -15.563   0.670  1.00  0.00     0.037 A 
HETATM   27  C   UNL     1      40.048 -16.007   1.987  1.00  0.00     0.004 A 
HETATM   28  C   UNL     1      40.273 -15.090   3.014  1.00  0.00     0.014 A 
BRANCH  25  29
HETATM   29  O   UNL     1      39.929 -13.904  -0.964  1.00  0.00    -0.356 OA
HETATM   30  C   UNL     1      40.535 -12.695  -1.404  1.00  0.00     0.210 C 
ENDBRANCH  25  29
ENDBRANCH  10  23
TORSDOF 6
ENDMDL
