MODEL 1
REMARK VINA RESULT:      -8.6      0.000      0.000
REMARK  7 active torsions:
REMARK  status: ('A' for Active; 'I' for Inactive)
REMARK    1  A    between atoms: O_2  and  C_3 
REMARK    2  A    between atoms: C_4  and  O_5 
REMARK    3  A    between atoms: C_8  and  C_9 
REMARK    4  A    between atoms: N_10  and  N_11 
REMARK    5  A    between atoms: C_22  and  C_23 
REMARK       I    between atoms: C_23  and  N_24 
REMARK    6  A    between atoms: N_24  and  C_25 
REMARK    7  A    between atoms: C_32  and  N_33 
ROOT
HETATM    1  N   UNL     1      41.398 -13.318   5.785  1.00  0.00    -0.197 N 
HETATM    2  C   UNL     1      41.283 -12.754   4.529  1.00  0.00     0.183 A 
HETATM    3  C   UNL     1      42.400 -11.960   4.331  1.00  0.00     0.125 A 
HETATM    4  N   UNL     1      42.544 -11.194   3.214  1.00  0.00    -0.242 NA
HETATM    5  C   UNL     1      41.533 -11.294   2.335  1.00  0.00     0.086 A 
HETATM    6  C   UNL     1      40.390 -12.106   2.566  1.00  0.00     0.088 A 
HETATM    7  N   UNL     1      40.236 -12.849   3.674  1.00  0.00    -0.225 NA
HETATM    8  C   UNL     1      41.613 -10.558   1.159  1.00  0.00     0.034 A 
HETATM    9  C   UNL     1      40.594 -10.590   0.208  1.00  0.00     0.002 A 
HETATM   10  C   UNL     1      39.471 -11.373   0.437  1.00  0.00     0.002 A 
HETATM   11  C   UNL     1      39.382 -12.123   1.611  1.00  0.00     0.034 A 
HETATM   12  C   UNL     1      43.242 -12.056   5.469  1.00  0.00     0.110 C 
HETATM   13  C   UNL     1      42.643 -12.977   6.314  1.00  0.00     0.143 C 
ENDROOT
BRANCH   1  14
HETATM   14  N   UNL     1      40.453 -14.098   6.395  1.00  0.00    -0.176 NA
HETATM   15  C   UNL     1      40.536 -15.380   6.189  1.00  0.00     0.150 C 
BRANCH  15  16
HETATM   16  C   UNL     1      41.596 -16.176   5.525  1.00  0.00    -0.014 A 
HETATM   17  C   UNL     1      41.613 -16.212   4.128  1.00  0.00     0.052 A 
HETATM   18  C   UNL     1      42.571 -16.982   3.461  1.00  0.00     0.102 A 
HETATM   19  C   UNL     1      43.502 -17.740   4.205  1.00  0.00     0.101 A 
HETATM   20  C   UNL     1      43.465 -17.704   5.604  1.00  0.00     0.040 A 
HETATM   21  C   UNL     1      42.506 -16.933   6.265  1.00  0.00     0.016 A 
BRANCH  18  22
HETATM   22  O   UNL     1      42.671 -17.083   2.095  1.00  0.00    -0.353 OA
HETATM   23  C   UNL     1      43.040 -15.919   1.371  1.00  0.00     0.210 C 
ENDBRANCH  18  22
BRANCH  19  24
HETATM   24  O   UNL     1      44.404 -18.472   3.472  1.00  0.00    -0.353 OA
HETATM   25  C   UNL     1      44.171 -19.867   3.345  1.00  0.00     0.210 C 
ENDBRANCH  19  24
ENDBRANCH  15  16
ENDBRANCH   1  14
BRANCH  13  26
HETATM   26  N   UNL     1      43.064 -13.470   7.509  1.00  0.00    -0.383 N 
HETATM   27  H   UNL     1      44.010 -13.234   7.822  1.00  0.00     0.157 HD
HETATM   28  H   UNL     1      42.753 -14.394   7.805  1.00  0.00     0.157 HD
ENDBRANCH  13  26
BRANCH  12  29
HETATM   29  C   UNL     1      44.441 -11.287   5.767  1.00  0.00     0.258 C 
HETATM   30  N   UNL     1      44.313 -10.466   6.872  1.00  0.00    -0.352 N 
HETATM   31  H   UNL     1      43.376 -10.418   7.263  1.00  0.00     0.163 HD
HETATM   32  O   UNL     1      45.504 -11.447   5.173  1.00  0.00    -0.267 OA
BRANCH  30  33
HETATM   33  C   UNL     1      45.410 -10.364   7.825  1.00  0.00     0.084 C 
HETATM   34  C   UNL     1      45.804  -8.899   8.046  1.00  0.00     0.025 C 
HETATM   35  C   UNL     1      44.731  -8.102   8.795  1.00  0.00     0.002 C 
HETATM   36  C   UNL     1      44.300  -8.784  10.092  1.00  0.00     0.000 C 
HETATM   37  C   UNL     1      43.913 -10.243   9.882  1.00  0.00     0.002 C 
HETATM   38  C   UNL     1      45.019 -11.018   9.163  1.00  0.00     0.025 C 
ENDBRANCH  30  33
ENDBRANCH  12  29
TORSDOF 7
ENDMDL
MODEL 2
REMARK VINA RESULT:      -8.5      3.958      8.218
REMARK  7 active torsions:
REMARK  status: ('A' for Active; 'I' for Inactive)
REMARK    1  A    between atoms: O_2  and  C_3 
REMARK    2  A    between atoms: C_4  and  O_5 
REMARK    3  A    between atoms: C_8  and  C_9 
REMARK    4  A    between atoms: N_10  and  N_11 
REMARK    5  A    between atoms: C_22  and  C_23 
REMARK       I    between atoms: C_23  and  N_24 
REMARK    6  A    between atoms: N_24  and  C_25 
REMARK    7  A    between atoms: C_32  and  N_33 
ROOT
HETATM    1  N   UNL     1      43.529  -8.327   8.073  1.00  0.00    -0.197 N 
HETATM    2  C   UNL     1      42.341  -8.652   7.447  1.00  0.00     0.183 A 
HETATM    3  C   UNL     1      42.431  -9.977   7.057  1.00  0.00     0.125 A 
HETATM    4  N   UNL     1      41.447 -10.578   6.332  1.00  0.00    -0.242 NA
HETATM    5  C   UNL     1      40.398  -9.787   6.054  1.00  0.00     0.086 A 
HETATM    6  C   UNL     1      40.332  -8.425   6.455  1.00  0.00     0.088 A 
HETATM    7  N   UNL     1      41.309  -7.824   7.154  1.00  0.00    -0.225 NA
HETATM    8  C   UNL     1      39.341 -10.331   5.334  1.00  0.00     0.034 A 
HETATM    9  C   UNL     1      38.226  -9.568   4.986  1.00  0.00     0.002 A 
HETATM   10  C   UNL     1      38.167  -8.235   5.365  1.00  0.00     0.002 A 
HETATM   11  C   UNL     1      39.219  -7.678   6.096  1.00  0.00     0.034 A 
HETATM   12  C   UNL     1      43.683 -10.498   7.476  1.00  0.00     0.110 C 
HETATM   13  C   UNL     1      44.304  -9.481   8.185  1.00  0.00     0.143 C 
ENDROOT
BRANCH   1  14
HETATM   14  N   UNL     1      43.874  -7.082   8.525  1.00  0.00    -0.176 NA
HETATM   15  C   UNL     1      43.373  -6.718   9.670  1.00  0.00     0.150 C 
BRANCH  15  16
HETATM   16  C   UNL     1      42.607  -7.500  10.669  1.00  0.00    -0.014 A 
HETATM   17  C   UNL     1      41.225  -7.301  10.740  1.00  0.00     0.052 A 
HETATM   18  C   UNL     1      40.468  -7.988  11.695  1.00  0.00     0.102 A 
HETATM   19  C   UNL     1      41.110  -8.862  12.600  1.00  0.00     0.101 A 
HETATM   20  C   UNL     1      42.496  -9.043  12.525  1.00  0.00     0.040 A 
HETATM   21  C   UNL     1      43.246  -8.353  11.569  1.00  0.00     0.016 A 
BRANCH  18  22
HETATM   22  O   UNL     1      39.109  -7.862  11.845  1.00  0.00    -0.353 OA
HETATM   23  C   UNL     1      38.610  -6.627  12.337  1.00  0.00     0.210 C 
ENDBRANCH  18  22
BRANCH  19  24
HETATM   24  O   UNL     1      40.295  -9.492  13.508  1.00  0.00    -0.353 OA
HETATM   25  C   UNL     1      39.728 -10.737  13.131  1.00  0.00     0.210 C 
ENDBRANCH  19  24
ENDBRANCH  15  16
ENDBRANCH   1  14
BRANCH  13  26
HETATM   26  N   UNL     1      45.494  -9.475   8.842  1.00  0.00    -0.383 N 
HETATM   27  H   UNL     1      45.642  -8.766   9.566  1.00  0.00     0.157 HD
HETATM   28  H   UNL     1      46.343  -9.733   8.341  1.00  0.00     0.157 HD
ENDBRANCH  13  26
BRANCH  12  29
HETATM   29  C   UNL     1      44.270 -11.791   7.158  1.00  0.00     0.258 C 
HETATM   30  N   UNL     1      43.357 -12.830   7.157  1.00  0.00    -0.352 N 
HETATM   31  H   UNL     1      42.427 -12.582   7.485  1.00  0.00     0.163 HD
HETATM   32  O   UNL     1      45.437 -11.927   6.800  1.00  0.00    -0.267 OA
BRANCH  30  33
HETATM   33  C   UNL     1      43.419 -13.842   6.112  1.00  0.00     0.084 C 
HETATM   34  C   UNL     1      43.780 -15.210   6.701  1.00  0.00     0.025 C 
HETATM   35  C   UNL     1      42.662 -15.797   7.569  1.00  0.00     0.002 C 
HETATM   36  C   UNL     1      41.317 -15.819   6.847  1.00  0.00     0.000 C 
HETATM   37  C   UNL     1      40.953 -14.463   6.252  1.00  0.00     0.002 C 
HETATM   38  C   UNL     1      42.075 -13.922   5.364  1.00  0.00     0.025 C 
ENDBRANCH  30  33
ENDBRANCH  12  29
TORSDOF 7
ENDMDL
MODEL 3
REMARK VINA RESULT:      -8.3      2.573      7.659
REMARK  7 active torsions:
REMARK  status: ('A' for Active; 'I' for Inactive)
REMARK    1  A    between atoms: O_2  and  C_3 
REMARK    2  A    between atoms: C_4  and  O_5 
REMARK    3  A    between atoms: C_8  and  C_9 
REMARK    4  A    between atoms: N_10  and  N_11 
REMARK    5  A    between atoms: C_22  and  C_23 
REMARK       I    between atoms: C_23  and  N_24 
REMARK    6  A    between atoms: N_24  and  C_25 
REMARK    7  A    between atoms: C_32  and  N_33 
ROOT
HETATM    1  N   UNL     1      39.937 -12.352   3.534  1.00  0.00    -0.197 N 
HETATM    2  C   UNL     1      40.775 -13.410   3.239  1.00  0.00     0.183 A 
HETATM    3  C   UNL     1      41.395 -13.120   2.035  1.00  0.00     0.125 A 
HETATM    4  N   UNL     1      42.224 -14.012   1.424  1.00  0.00    -0.242 NA
HETATM    5  C   UNL     1      42.392 -15.164   2.093  1.00  0.00     0.086 A 
HETATM    6  C   UNL     1      41.735 -15.445   3.321  1.00  0.00     0.088 A 
HETATM    7  N   UNL     1      40.903 -14.575   3.918  1.00  0.00    -0.225 NA
HETATM    8  C   UNL     1      43.239 -16.120   1.546  1.00  0.00     0.034 A 
HETATM    9  C   UNL     1      43.449 -17.351   2.167  1.00  0.00     0.002 A 
HETATM   10  C   UNL     1      42.798 -17.632   3.360  1.00  0.00     0.002 A 
HETATM   11  C   UNL     1      41.950 -16.677   3.925  1.00  0.00     0.034 A 
HETATM   12  C   UNL     1      40.962 -11.844   1.589  1.00  0.00     0.110 C 
HETATM   13  C   UNL     1      40.131 -11.350   2.583  1.00  0.00     0.143 C 
ENDROOT
BRANCH   1  14
HETATM   14  N   UNL     1      39.076 -12.292   4.597  1.00  0.00    -0.176 NA
HETATM   15  C   UNL     1      39.596 -11.988   5.750  1.00  0.00     0.150 C 
BRANCH  15  16
HETATM   16  C   UNL     1      40.962 -11.525   6.091  1.00  0.00    -0.014 A 
HETATM   17  C   UNL     1      41.955 -12.490   6.281  1.00  0.00     0.052 A 
HETATM   18  C   UNL     1      43.249 -12.100   6.643  1.00  0.00     0.102 A 
HETATM   19  C   UNL     1      43.538 -10.732   6.839  1.00  0.00     0.101 A 
HETATM   20  C   UNL     1      42.531  -9.777   6.657  1.00  0.00     0.040 A 
HETATM   21  C   UNL     1      41.241 -10.173   6.296  1.00  0.00     0.016 A 
BRANCH  18  22
HETATM   22  O   UNL     1      44.291 -12.969   6.853  1.00  0.00    -0.353 OA
HETATM   23  C   UNL     1      44.062 -14.349   6.605  1.00  0.00     0.210 C 
ENDBRANCH  18  22
BRANCH  19  24
HETATM   24  O   UNL     1      44.830 -10.436   7.198  1.00  0.00    -0.353 OA
HETATM   25  C   UNL     1      45.025  -9.462   8.212  1.00  0.00     0.210 C 
ENDBRANCH  19  24
ENDBRANCH  15  16
ENDBRANCH   1  14
BRANCH  13  26
HETATM   26  N   UNL     1      39.500 -10.151   2.677  1.00  0.00    -0.383 N 
HETATM   27  H   UNL     1      38.720 -10.066   3.335  1.00  0.00     0.157 HD
HETATM   28  H   UNL     1      39.398  -9.573   1.844  1.00  0.00     0.157 HD
ENDBRANCH  13  26
BRANCH  12  29
HETATM   29  C   UNL     1      41.233 -11.200   0.312  1.00  0.00     0.258 C 
HETATM   30  N   UNL     1      41.236 -12.073  -0.761  1.00  0.00    -0.352 N 
HETATM   31  H   UNL     1      41.165 -13.056  -0.512  1.00  0.00     0.163 HD
HETATM   32  O   UNL     1      41.321  -9.981   0.183  1.00  0.00    -0.267 OA
BRANCH  30  33
HETATM   33  C   UNL     1      40.601 -11.680  -2.011  1.00  0.00     0.084 C 
HETATM   34  C   UNL     1      40.796 -12.760  -3.082  1.00  0.00     0.025 C 
HETATM   35  C   UNL     1      40.014 -14.042  -2.782  1.00  0.00     0.002 C 
HETATM   36  C   UNL     1      38.537 -13.771  -2.501  1.00  0.00     0.000 C 
HETATM   37  C   UNL     1      38.335 -12.694  -1.441  1.00  0.00     0.002 C 
HETATM   38  C   UNL     1      39.100 -11.416  -1.789  1.00  0.00     0.025 C 
ENDBRANCH  30  33
ENDBRANCH  12  29
TORSDOF 7
ENDMDL
MODEL 4
REMARK VINA RESULT:      -8.3      2.497      6.940
REMARK  7 active torsions:
REMARK  status: ('A' for Active; 'I' for Inactive)
REMARK    1  A    between atoms: O_2  and  C_3 
REMARK    2  A    between atoms: C_4  and  O_5 
REMARK    3  A    between atoms: C_8  and  C_9 
REMARK    4  A    between atoms: N_10  and  N_11 
REMARK    5  A    between atoms: C_22  and  C_23 
REMARK       I    between atoms: C_23  and  N_24 
REMARK    6  A    between atoms: N_24  and  C_25 
REMARK    7  A    between atoms: C_32  and  N_33 
ROOT
HETATM    1  N   UNL     1      39.851 -11.944   4.462  1.00  0.00    -0.197 N 
HETATM    2  C   UNL     1      41.065 -11.763   5.097  1.00  0.00     0.183 A 
HETATM    3  C   UNL     1      41.806 -12.917   4.904  1.00  0.00     0.125 A 
HETATM    4  N   UNL     1      43.026 -13.089   5.483  1.00  0.00    -0.242 NA
HETATM    5  C   UNL     1      43.441 -12.050   6.227  1.00  0.00     0.086 A 
HETATM    6  C   UNL     1      42.658 -10.880   6.421  1.00  0.00     0.088 A 
HETATM    7  N   UNL     1      41.445 -10.714   5.866  1.00  0.00    -0.225 NA
HETATM    8  C   UNL     1      44.686 -12.138   6.837  1.00  0.00     0.034 A 
HETATM    9  C   UNL     1      45.178 -11.112   7.644  1.00  0.00     0.002 A 
HETATM   10  C   UNL     1      44.409  -9.974   7.845  1.00  0.00     0.002 A 
HETATM   11  C   UNL     1      43.159  -9.870   7.231  1.00  0.00     0.034 A 
HETATM   12  C   UNL     1      41.055 -13.820   4.107  1.00  0.00     0.110 C 
HETATM   13  C   UNL     1      39.887 -13.154   3.769  1.00  0.00     0.143 C 
ENDROOT
BRANCH   1  14
HETATM   14  N   UNL     1      38.800 -11.068   4.493  1.00  0.00    -0.176 NA
HETATM   15  C   UNL     1      38.708 -10.233   3.500  1.00  0.00     0.150 C 
BRANCH  15  16
HETATM   16  C   UNL     1      39.469 -10.171   2.229  1.00  0.00    -0.014 A 
HETATM   17  C   UNL     1      38.888 -10.731   1.088  1.00  0.00     0.052 A 
HETATM   18  C   UNL     1      39.588 -10.731  -0.124  1.00  0.00     0.102 A 
HETATM   19  C   UNL     1      40.890 -10.188  -0.179  1.00  0.00     0.101 A 
HETATM   20  C   UNL     1      41.465  -9.642   0.975  1.00  0.00     0.040 A 
HETATM   21  C   UNL     1      40.760  -9.645   2.181  1.00  0.00     0.016 A 
BRANCH  18  22
HETATM   22  O   UNL     1      39.106 -11.254  -1.298  1.00  0.00    -0.353 OA
HETATM   23  C   UNL     1      38.490 -12.532  -1.249  1.00  0.00     0.210 C 
ENDBRANCH  18  22
BRANCH  19  24
HETATM   24  O   UNL     1      41.509 -10.233  -1.405  1.00  0.00    -0.353 OA
HETATM   25  C   UNL     1      41.718  -9.003  -2.082  1.00  0.00     0.210 C 
ENDBRANCH  19  24
ENDBRANCH  15  16
ENDBRANCH   1  14
BRANCH  13  26
HETATM   26  N   UNL     1      38.854 -13.549   2.978  1.00  0.00    -0.383 N 
HETATM   27  H   UNL     1      38.844 -14.516   2.644  1.00  0.00     0.157 HD
HETATM   28  H   UNL     1      38.445 -12.884   2.323  1.00  0.00     0.157 HD
ENDBRANCH  13  26
BRANCH  12  29
HETATM   29  C   UNL     1      41.369 -15.202   3.777  1.00  0.00     0.258 C 
HETATM   30  N   UNL     1      42.607 -15.614   4.234  1.00  0.00    -0.352 N 
HETATM   31  H   UNL     1      43.181 -14.877   4.636  1.00  0.00     0.163 HD
HETATM   32  O   UNL     1      40.560 -15.966   3.257  1.00  0.00    -0.267 OA
BRANCH  30  33
HETATM   33  C   UNL     1      42.753 -16.936   4.827  1.00  0.00     0.084 C 
HETATM   34  C   UNL     1      44.224 -17.230   5.145  1.00  0.00     0.025 C 
HETATM   35  C   UNL     1      44.769 -16.368   6.288  1.00  0.00     0.002 C 
HETATM   36  C   UNL     1      43.889 -16.431   7.534  1.00  0.00     0.000 C 
HETATM   37  C   UNL     1      42.423 -16.145   7.226  1.00  0.00     0.002 C 
HETATM   38  C   UNL     1      41.901 -17.046   6.106  1.00  0.00     0.025 C 
ENDBRANCH  30  33
ENDBRANCH  12  29
TORSDOF 7
ENDMDL
MODEL 5
REMARK VINA RESULT:      -8.1      3.848      8.457
REMARK  7 active torsions:
REMARK  status: ('A' for Active; 'I' for Inactive)
REMARK    1  A    between atoms: O_2  and  C_3 
REMARK    2  A    between atoms: C_4  and  O_5 
REMARK    3  A    between atoms: C_8  and  C_9 
REMARK    4  A    between atoms: N_10  and  N_11 
REMARK    5  A    between atoms: C_22  and  C_23 
REMARK       I    between atoms: C_23  and  N_24 
REMARK    6  A    between atoms: N_24  and  C_25 
REMARK    7  A    between atoms: C_32  and  N_33 
ROOT
HETATM    1  N   UNL     1      40.405  -8.989   6.411  1.00  0.00    -0.197 N 
HETATM    2  C   UNL     1      41.690  -9.341   6.775  1.00  0.00     0.183 A 
HETATM    3  C   UNL     1      41.818 -10.704   6.564  1.00  0.00     0.125 A 
HETATM    4  N   UNL     1      42.950 -11.378   6.911  1.00  0.00    -0.242 NA
HETATM    5  C   UNL     1      43.914 -10.611   7.447  1.00  0.00     0.086 A 
HETATM    6  C   UNL     1      43.755  -9.216   7.665  1.00  0.00     0.088 A 
HETATM    7  N   UNL     1      42.633  -8.550   7.342  1.00  0.00    -0.225 NA
HETATM    8  C   UNL     1      45.109 -11.220   7.809  1.00  0.00     0.034 A 
HETATM    9  C   UNL     1      46.149 -10.496   8.392  1.00  0.00     0.002 A 
HETATM   10  C   UNL     1      45.991  -9.136   8.619  1.00  0.00     0.002 A 
HETATM   11  C   UNL     1      44.797  -8.511   8.251  1.00  0.00     0.034 A 
HETATM   12  C   UNL     1      40.603 -11.204   6.028  1.00  0.00     0.110 C 
HETATM   13  C   UNL     1      39.777 -10.104   5.856  1.00  0.00     0.143 C 
ENDROOT
BRANCH   1  14
HETATM   14  N   UNL     1      39.851  -7.746   6.554  1.00  0.00    -0.176 NA
HETATM   15  C   UNL     1      39.430  -7.429   7.744  1.00  0.00     0.150 C 
BRANCH  15  16
HETATM   16  C   UNL     1      39.599  -8.136   9.036  1.00  0.00    -0.014 A 
HETATM   17  C   UNL     1      40.509  -7.612   9.958  1.00  0.00     0.052 A 
HETATM   18  C   UNL     1      40.729  -8.269  11.174  1.00  0.00     0.102 A 
HETATM   19  C   UNL     1      40.047  -9.474  11.451  1.00  0.00     0.101 A 
HETATM   20  C   UNL     1      39.147  -9.994  10.513  1.00  0.00     0.040 A 
HETATM   21  C   UNL     1      38.932  -9.333   9.301  1.00  0.00     0.016 A 
BRANCH  18  22
HETATM   22  O   UNL     1      41.600  -7.836  12.143  1.00  0.00    -0.353 OA
HETATM   23  C   UNL     1      42.990  -7.886  11.854  1.00  0.00     0.210 C 
ENDBRANCH  18  22
BRANCH  19  24
HETATM   24  O   UNL     1      40.325 -10.057  12.663  1.00  0.00    -0.353 OA
HETATM   25  C   UNL     1      39.433 -11.057  13.133  1.00  0.00     0.210 C 
ENDBRANCH  19  24
ENDBRANCH  15  16
ENDBRANCH   1  14
BRANCH  13  26
HETATM   26  N   UNL     1      38.528 -10.024   5.326  1.00  0.00    -0.383 N 
HETATM   27  H   UNL     1      38.387  -9.420   4.512  1.00  0.00     0.157 HD
HETATM   28  H   UNL     1      37.720 -10.075   5.944  1.00  0.00     0.157 HD
ENDBRANCH  13  26
BRANCH  12  29
HETATM   29  C   UNL     1      40.230 -12.591   5.791  1.00  0.00     0.258 C 
HETATM   30  N   UNL     1      41.310 -13.450   5.705  1.00  0.00    -0.352 N 
HETATM   31  H   UNL     1      42.219 -12.994   5.703  1.00  0.00     0.163 HD
HETATM   32  O   UNL     1      39.065 -12.980   5.795  1.00  0.00    -0.267 OA
BRANCH  30  33
HETATM   33  C   UNL     1      41.247 -14.753   6.351  1.00  0.00     0.084 C 
HETATM   34  C   UNL     1      41.066 -15.866   5.312  1.00  0.00     0.025 C 
HETATM   35  C   UNL     1      42.305 -16.068   4.435  1.00  0.00     0.002 C 
HETATM   36  C   UNL     1      43.577 -16.253   5.259  1.00  0.00     0.000 C 
HETATM   37  C   UNL     1      43.762 -15.153   6.298  1.00  0.00     0.002 C 
HETATM   38  C   UNL     1      42.521 -15.001   7.180  1.00  0.00     0.025 C 
ENDBRANCH  30  33
ENDBRANCH  12  29
TORSDOF 7
ENDMDL
MODEL 6
REMARK VINA RESULT:      -8.0     17.035     19.655
REMARK  7 active torsions:
REMARK  status: ('A' for Active; 'I' for Inactive)
REMARK    1  A    between atoms: O_2  and  C_3 
REMARK    2  A    between atoms: C_4  and  O_5 
REMARK    3  A    between atoms: C_8  and  C_9 
REMARK    4  A    between atoms: N_10  and  N_11 
REMARK    5  A    between atoms: C_22  and  C_23 
REMARK       I    between atoms: C_23  and  N_24 
REMARK    6  A    between atoms: N_24  and  C_25 
REMARK    7  A    between atoms: C_32  and  N_33 
ROOT
HETATM    1  N   UNL     1      46.670 -28.816  -1.262  1.00  0.00    -0.197 N 
HETATM    2  C   UNL     1      47.847 -29.532  -1.147  1.00  0.00     0.183 A 
HETATM    3  C   UNL     1      47.908 -30.015   0.150  1.00  0.00     0.125 A 
HETATM    4  N   UNL     1      48.996 -30.694   0.609  1.00  0.00    -0.242 NA
HETATM    5  C   UNL     1      49.972 -30.862  -0.299  1.00  0.00     0.086 A 
HETATM    6  C   UNL     1      49.891 -30.346  -1.621  1.00  0.00     0.088 A 
HETATM    7  N   UNL     1      48.828 -29.660  -2.072  1.00  0.00    -0.225 NA
HETATM    8  C   UNL     1      51.109 -31.562   0.085  1.00  0.00     0.034 A 
HETATM    9  C   UNL     1      52.175 -31.759  -0.792  1.00  0.00     0.002 A 
HETATM   10  C   UNL     1      52.104 -31.245  -2.079  1.00  0.00     0.002 A 
HETATM   11  C   UNL     1      50.964 -30.546  -2.480  1.00  0.00     0.034 A 
HETATM   12  C   UNL     1      46.735 -29.622   0.845  1.00  0.00     0.110 C 
HETATM   13  C   UNL     1      45.943 -28.961  -0.080  1.00  0.00     0.143 C 
ENDROOT
BRANCH   1  14
HETATM   14  N   UNL     1      46.279 -28.102  -2.362  1.00  0.00    -0.176 NA
HETATM   15  C   UNL     1      45.785 -28.785  -3.353  1.00  0.00     0.150 C 
BRANCH  15  16
HETATM   16  C   UNL     1      45.414 -30.218  -3.436  1.00  0.00    -0.014 A 
HETATM   17  C   UNL     1      46.190 -31.052  -4.246  1.00  0.00     0.052 A 
HETATM   18  C   UNL     1      45.852 -32.402  -4.385  1.00  0.00     0.102 A 
HETATM   19  C   UNL     1      44.711 -32.909  -3.724  1.00  0.00     0.101 A 
HETATM   20  C   UNL     1      43.936 -32.060  -2.926  1.00  0.00     0.040 A 
HETATM   21  C   UNL     1      44.279 -30.712  -2.792  1.00  0.00     0.016 A 
BRANCH  18  22
HETATM   22  O   UNL     1      46.548 -33.301  -5.155  1.00  0.00    -0.353 OA
HETATM   23  C   UNL     1      47.134 -32.827  -6.358  1.00  0.00     0.210 C 
ENDBRANCH  18  22
BRANCH  19  24
HETATM   24  O   UNL     1      44.448 -34.243  -3.918  1.00  0.00    -0.353 OA
HETATM   25  C   UNL     1      43.257 -34.768  -3.352  1.00  0.00     0.210 C 
ENDBRANCH  19  24
ENDBRANCH  15  16
ENDBRANCH   1  14
BRANCH  13  26
HETATM   26  N   UNL     1      44.697 -28.433   0.055  1.00  0.00    -0.383 N 
HETATM   27  H   UNL     1      44.200 -28.146  -0.793  1.00  0.00     0.157 HD
HETATM   28  H   UNL     1      44.483 -27.861   0.869  1.00  0.00     0.157 HD
ENDBRANCH  13  26
BRANCH  12  29
HETATM   29  C   UNL     1      46.437 -29.776   2.261  1.00  0.00     0.258 C 
HETATM   30  N   UNL     1      47.332 -30.588   2.933  1.00  0.00    -0.352 N 
HETATM   31  H   UNL     1      48.009 -31.061   2.339  1.00  0.00     0.163 HD
HETATM   32  O   UNL     1      45.552 -29.143   2.831  1.00  0.00    -0.267 OA
BRANCH  30  33
HETATM   33  C   UNL     1      47.800 -30.205   4.257  1.00  0.00     0.084 C 
HETATM   34  C   UNL     1      48.415 -31.406   4.985  1.00  0.00     0.025 C 
HETATM   35  C   UNL     1      49.738 -31.864   4.363  1.00  0.00     0.002 C 
HETATM   36  C   UNL     1      50.733 -30.717   4.203  1.00  0.00     0.000 C 
HETATM   37  C   UNL     1      50.127 -29.516   3.485  1.00  0.00     0.002 C 
HETATM   38  C   UNL     1      48.828 -29.062   4.152  1.00  0.00     0.025 C 
ENDBRANCH  30  33
ENDBRANCH  12  29
TORSDOF 7
ENDMDL
MODEL 7
REMARK VINA RESULT:      -7.9      3.090      7.730
REMARK  7 active torsions:
REMARK  status: ('A' for Active; 'I' for Inactive)
REMARK    1  A    between atoms: O_2  and  C_3 
REMARK    2  A    between atoms: C_4  and  O_5 
REMARK    3  A    between atoms: C_8  and  C_9 
REMARK    4  A    between atoms: N_10  and  N_11 
REMARK    5  A    between atoms: C_22  and  C_23 
REMARK       I    between atoms: C_23  and  N_24 
REMARK    6  A    between atoms: N_24  and  C_25 
REMARK    7  A    between atoms: C_32  and  N_33 
ROOT
HETATM    1  N   UNL     1      40.437 -11.250   6.201  1.00  0.00    -0.197 N 
HETATM    2  C   UNL     1      41.773 -11.009   6.456  1.00  0.00     0.183 A 
HETATM    3  C   UNL     1      42.504 -11.920   5.711  1.00  0.00     0.125 A 
HETATM    4  N   UNL     1      43.860 -11.999   5.809  1.00  0.00    -0.242 NA
HETATM    5  C   UNL     1      44.410 -11.118   6.662  1.00  0.00     0.086 A 
HETATM    6  C   UNL     1      43.638 -10.200   7.424  1.00  0.00     0.088 A 
HETATM    7  N   UNL     1      42.298 -10.131   7.344  1.00  0.00    -0.225 NA
HETATM    8  C   UNL     1      45.792 -11.120   6.804  1.00  0.00     0.034 A 
HETATM    9  C   UNL     1      46.436 -10.252   7.685  1.00  0.00     0.002 A 
HETATM   10  C   UNL     1      45.683  -9.365   8.441  1.00  0.00     0.002 A 
HETATM   11  C   UNL     1      44.293  -9.347   8.301  1.00  0.00     0.034 A 
HETATM   12  C   UNL     1      41.610 -12.721   4.955  1.00  0.00     0.110 C 
HETATM   13  C   UNL     1      40.341 -12.223   5.206  1.00  0.00     0.143 C 
ENDROOT
BRANCH   1  14
HETATM   14  N   UNL     1      39.386 -10.622   6.813  1.00  0.00    -0.176 NA
HETATM   15  C   UNL     1      39.009  -9.486   6.302  1.00  0.00     0.150 C 
BRANCH  15  16
HETATM   16  C   UNL     1      39.426  -8.818   5.046  1.00  0.00    -0.014 A 
HETATM   17  C   UNL     1      40.478  -7.900   5.108  1.00  0.00     0.052 A 
HETATM   18  C   UNL     1      40.878  -7.217   3.954  1.00  0.00     0.102 A 
HETATM   19  C   UNL     1      40.198  -7.441   2.737  1.00  0.00     0.101 A 
HETATM   20  C   UNL     1      39.138  -8.355   2.692  1.00  0.00     0.040 A 
HETATM   21  C   UNL     1      38.744  -9.034   3.848  1.00  0.00     0.016 A 
BRANCH  18  22
HETATM   22  O   UNL     1      41.897  -6.298   3.911  1.00  0.00    -0.353 OA
HETATM   23  C   UNL     1      41.824  -5.186   4.791  1.00  0.00     0.210 C 
ENDBRANCH  18  22
BRANCH  19  24
HETATM   24  O   UNL     1      40.650  -6.726   1.655  1.00  0.00    -0.353 OA
HETATM   25  C   UNL     1      40.960  -7.448   0.472  1.00  0.00     0.210 C 
ENDBRANCH  19  24
ENDBRANCH  15  16
ENDBRANCH   1  14
BRANCH  13  26
HETATM   26  N   UNL     1      39.139 -12.595   4.692  1.00  0.00    -0.383 N 
HETATM   27  H   UNL     1      39.022 -13.566   4.391  1.00  0.00     0.157 HD
HETATM   28  H   UNL     1      38.604 -11.927   4.138  1.00  0.00     0.157 HD
ENDBRANCH  13  26
BRANCH  12  29
HETATM   29  C   UNL     1      41.916 -13.895   4.151  1.00  0.00     0.258 C 
HETATM   30  N   UNL     1      42.935 -14.673   4.671  1.00  0.00    -0.352 N 
HETATM   31  H   UNL     1      43.411 -14.272   5.475  1.00  0.00     0.163 HD
HETATM   32  O   UNL     1      41.249 -14.231   3.176  1.00  0.00    -0.267 OA
BRANCH  30  33
HETATM   33  C   UNL     1      42.812 -16.124   4.656  1.00  0.00     0.084 C 
HETATM   34  C   UNL     1      44.175 -16.787   4.887  1.00  0.00     0.025 C 
HETATM   35  C   UNL     1      44.702 -16.583   6.310  1.00  0.00     0.002 C 
HETATM   36  C   UNL     1      43.680 -16.985   7.372  1.00  0.00     0.000 C 
HETATM   37  C   UNL     1      42.320 -16.334   7.147  1.00  0.00     0.002 C 
HETATM   38  C   UNL     1      41.807 -16.587   5.728  1.00  0.00     0.025 C 
ENDBRANCH  30  33
ENDBRANCH  12  29
TORSDOF 7
ENDMDL
MODEL 8
REMARK VINA RESULT:      -7.9     17.384     19.077
REMARK  7 active torsions:
REMARK  status: ('A' for Active; 'I' for Inactive)
REMARK    1  A    between atoms: O_2  and  C_3 
REMARK    2  A    between atoms: C_4  and  O_5 
REMARK    3  A    between atoms: C_8  and  C_9 
REMARK    4  A    between atoms: N_10  and  N_11 
REMARK    5  A    between atoms: C_22  and  C_23 
REMARK       I    between atoms: C_23  and  N_24 
REMARK    6  A    between atoms: N_24  and  C_25 
REMARK    7  A    between atoms: C_32  and  N_33 
ROOT
HETATM    1  N   UNL     1      45.446 -28.431  -1.394  1.00  0.00    -0.197 N 
HETATM    2  C   UNL     1      44.890 -28.975  -0.251  1.00  0.00     0.183 A 
HETATM    3  C   UNL     1      45.934 -29.429   0.538  1.00  0.00     0.125 A 
HETATM    4  N   UNL     1      45.712 -30.099   1.702  1.00  0.00    -0.242 NA
HETATM    5  C   UNL     1      44.415 -30.258   2.014  1.00  0.00     0.086 A 
HETATM    6  C   UNL     1      43.360 -29.794   1.183  1.00  0.00     0.088 A 
HETATM    7  N   UNL     1      43.575 -29.149   0.024  1.00  0.00    -0.225 NA
HETATM    8  C   UNL     1      44.103 -30.915   3.198  1.00  0.00     0.034 A 
HETATM    9  C   UNL     1      42.781 -31.140   3.581  1.00  0.00     0.002 A 
HETATM   10  C   UNL     1      41.749 -30.700   2.764  1.00  0.00     0.002 A 
HETATM   11  C   UNL     1      42.049 -30.031   1.575  1.00  0.00     0.034 A 
HETATM   12  C   UNL     1      47.163 -29.134  -0.108  1.00  0.00     0.110 C 
HETATM   13  C   UNL     1      46.834 -28.432  -1.258  1.00  0.00     0.143 C 
ENDROOT
BRANCH   1  14
HETATM   14  N   UNL     1      44.745 -27.954  -2.468  1.00  0.00    -0.176 NA
HETATM   15  C   UNL     1      44.566 -28.779  -3.459  1.00  0.00     0.150 C 
BRANCH  15  16
HETATM   16  C   UNL     1      44.856 -30.229  -3.560  1.00  0.00    -0.014 A 
HETATM   17  C   UNL     1      45.923 -30.631  -4.367  1.00  0.00     0.052 A 
HETATM   18  C   UNL     1      46.207 -31.993  -4.523  1.00  0.00     0.102 A 
HETATM   19  C   UNL     1      45.396 -32.954  -3.882  1.00  0.00     0.101 A 
HETATM   20  C   UNL     1      44.323 -32.537  -3.086  1.00  0.00     0.040 A 
HETATM   21  C   UNL     1      44.044 -31.176  -2.934  1.00  0.00     0.016 A 
BRANCH  18  22
HETATM   22  O   UNL     1      47.231 -32.489  -5.292  1.00  0.00    -0.353 OA
HETATM   23  C   UNL     1      47.148 -32.310  -6.698  1.00  0.00     0.210 C 
ENDBRANCH  18  22
BRANCH  19  24
HETATM   24  O   UNL     1      45.740 -34.267  -4.091  1.00  0.00    -0.353 OA
HETATM   25  C   UNL     1      46.175 -35.021  -2.969  1.00  0.00     0.210 C 
ENDBRANCH  19  24
ENDBRANCH  15  16
ENDBRANCH   1  14
BRANCH  13  26
HETATM   26  N   UNL     1      47.639 -27.871  -2.199  1.00  0.00    -0.383 N 
HETATM   27  H   UNL     1      48.456 -28.401  -2.513  1.00  0.00     0.157 HD
HETATM   28  H   UNL     1      47.779 -26.862  -2.199  1.00  0.00     0.157 HD
ENDBRANCH  13  26
BRANCH  12  29
HETATM   29  C   UNL     1      48.503 -29.553   0.275  1.00  0.00     0.258 C 
HETATM   30  N   UNL     1      48.606 -29.940   1.599  1.00  0.00    -0.352 N 
HETATM   31  H   UNL     1      47.773 -29.776   2.158  1.00  0.00     0.163 HD
HETATM   32  O   UNL     1      49.422 -29.674  -0.530  1.00  0.00    -0.267 OA
BRANCH  30  33
HETATM   33  C   UNL     1      49.390 -31.116   1.947  1.00  0.00     0.084 C 
HETATM   34  C   UNL     1      50.566 -30.737   2.854  1.00  0.00     0.025 C 
HETATM   35  C   UNL     1      50.120 -30.296   4.252  1.00  0.00     0.002 C 
HETATM   36  C   UNL     1      49.189 -31.311   4.912  1.00  0.00     0.000 C 
HETATM   37  C   UNL     1      48.019 -31.698   4.014  1.00  0.00     0.002 C 
HETATM   38  C   UNL     1      48.500 -32.166   2.639  1.00  0.00     0.025 C 
ENDBRANCH  30  33
ENDBRANCH  12  29
TORSDOF 7
ENDMDL
MODEL 9
REMARK VINA RESULT:      -7.8      2.782      5.031
REMARK  7 active torsions:
REMARK  status: ('A' for Active; 'I' for Inactive)
REMARK    1  A    between atoms: O_2  and  C_3 
REMARK    2  A    between atoms: C_4  and  O_5 
REMARK    3  A    between atoms: C_8  and  C_9 
REMARK    4  A    between atoms: N_10  and  N_11 
REMARK    5  A    between atoms: C_22  and  C_23 
REMARK       I    between atoms: C_23  and  N_24 
REMARK    6  A    between atoms: N_24  and  C_25 
REMARK    7  A    between atoms: C_32  and  N_33 
ROOT
HETATM    1  N   UNL     1      41.318 -11.767   3.931  1.00  0.00    -0.197 N 
HETATM    2  C   UNL     1      42.289 -11.586   4.897  1.00  0.00     0.183 A 
HETATM    3  C   UNL     1      41.641 -11.252   6.075  1.00  0.00     0.125 A 
HETATM    4  N   UNL     1      42.329 -10.923   7.202  1.00  0.00    -0.242 NA
HETATM    5  C   UNL     1      43.666 -10.971   7.073  1.00  0.00     0.086 A 
HETATM    6  C   UNL     1      44.310 -11.304   5.851  1.00  0.00     0.088 A 
HETATM    7  N   UNL     1      43.634 -11.611   4.731  1.00  0.00    -0.225 NA
HETATM    8  C   UNL     1      44.442 -10.668   8.185  1.00  0.00     0.034 A 
HETATM    9  C   UNL     1      45.835 -10.672   8.125  1.00  0.00     0.002 A 
HETATM   10  C   UNL     1      46.466 -10.985   6.929  1.00  0.00     0.002 A 
HETATM   11  C   UNL     1      45.697 -11.299   5.806  1.00  0.00     0.034 A 
HETATM   12  C   UNL     1      40.240 -11.257   5.847  1.00  0.00     0.110 C 
HETATM   13  C   UNL     1      40.065 -11.671   4.535  1.00  0.00     0.143 C 
ENDROOT
BRANCH   1  14
HETATM   14  N   UNL     1      41.553 -12.019   2.607  1.00  0.00    -0.176 NA
HETATM   15  C   UNL     1      42.014 -13.199   2.311  1.00  0.00     0.150 C 
BRANCH  15  16
HETATM   16  C   UNL     1      42.180 -14.401   3.163  1.00  0.00    -0.014 A 
HETATM   17  C   UNL     1      41.079 -14.840   3.902  1.00  0.00     0.052 A 
HETATM   18  C   UNL     1      41.202 -15.946   4.750  1.00  0.00     0.102 A 
HETATM   19  C   UNL     1      42.448 -16.598   4.873  1.00  0.00     0.101 A 
HETATM   20  C   UNL     1      43.546 -16.140   4.136  1.00  0.00     0.040 A 
HETATM   21  C   UNL     1      43.417 -15.035   3.291  1.00  0.00     0.016 A 
BRANCH  18  22
HETATM   22  O   UNL     1      40.181 -16.453   5.516  1.00  0.00    -0.353 OA
HETATM   23  C   UNL     1      39.897 -15.809   6.750  1.00  0.00     0.210 C 
ENDBRANCH  18  22
BRANCH  19  24
HETATM   24  O   UNL     1      42.483 -17.670   5.730  1.00  0.00    -0.353 OA
HETATM   25  C   UNL     1      43.368 -17.598   6.839  1.00  0.00     0.210 C 
ENDBRANCH  19  24
ENDBRANCH  15  16
ENDBRANCH   1  14
BRANCH  13  26
HETATM   26  N   UNL     1      38.921 -11.897   3.836  1.00  0.00    -0.383 N 
HETATM   27  H   UNL     1      38.652 -11.218   3.118  1.00  0.00     0.157 HD
HETATM   28  H   UNL     1      38.129 -12.337   4.302  1.00  0.00     0.157 HD
ENDBRANCH  13  26
BRANCH  12  29
HETATM   29  C   UNL     1      39.182 -10.826   6.748  1.00  0.00     0.258 C 
HETATM   30  N   UNL     1      39.611 -10.610   8.045  1.00  0.00    -0.352 N 
HETATM   31  H   UNL     1      40.572 -10.886   8.229  1.00  0.00     0.163 HD
HETATM   32  O   UNL     1      38.046 -10.556   6.366  1.00  0.00    -0.267 OA
BRANCH  30  33
HETATM   33  C   UNL     1      39.125  -9.451   8.781  1.00  0.00     0.084 C 
HETATM   34  C   UNL     1      39.556  -9.521  10.251  1.00  0.00     0.025 C 
HETATM   35  C   UNL     1      41.065  -9.335  10.437  1.00  0.00     0.002 C 
HETATM   36  C   UNL     1      41.586  -8.078   9.744  1.00  0.00     0.000 C 
HETATM   37  C   UNL     1      41.157  -7.998   8.283  1.00  0.00     0.002 C 
HETATM   38  C   UNL     1      39.642  -8.152   8.135  1.00  0.00     0.025 C 
ENDBRANCH  30  33
ENDBRANCH  12  29
TORSDOF 7
ENDMDL
MODEL 10
REMARK VINA RESULT:      -7.7     16.905     19.779
REMARK  7 active torsions:
REMARK  status: ('A' for Active; 'I' for Inactive)
REMARK    1  A    between atoms: O_2  and  C_3 
REMARK    2  A    between atoms: C_4  and  O_5 
REMARK    3  A    between atoms: C_8  and  C_9 
REMARK    4  A    between atoms: N_10  and  N_11 
REMARK    5  A    between atoms: C_22  and  C_23 
REMARK       I    between atoms: C_23  and  N_24 
REMARK    6  A    between atoms: N_24  and  C_25 
REMARK    7  A    between atoms: C_32  and  N_33 
ROOT
HETATM    1  N   UNL     1      45.618 -29.119   1.706  1.00  0.00    -0.197 N 
HETATM    2  C   UNL     1      45.255 -29.180   0.374  1.00  0.00     0.183 A 
HETATM    3  C   UNL     1      44.509 -30.334   0.203  1.00  0.00     0.125 A 
HETATM    4  N   UNL     1      44.073 -30.729  -1.025  1.00  0.00    -0.242 NA
HETATM    5  C   UNL     1      44.409 -29.902  -2.028  1.00  0.00     0.086 A 
HETATM    6  C   UNL     1      45.186 -28.728  -1.831  1.00  0.00     0.088 A 
HETATM    7  N   UNL     1      45.634 -28.345  -0.624  1.00  0.00    -0.225 NA
HETATM    8  C   UNL     1      43.985 -30.223  -3.311  1.00  0.00     0.034 A 
HETATM    9  C   UNL     1      44.312 -29.428  -4.409  1.00  0.00     0.002 A 
HETATM   10  C   UNL     1      45.082 -28.288  -4.220  1.00  0.00     0.002 A 
HETATM   11  C   UNL     1      45.509 -27.950  -2.934  1.00  0.00     0.034 A 
HETATM   12  C   UNL     1      44.377 -30.988   1.456  1.00  0.00     0.110 C 
HETATM   13  C   UNL     1      44.994 -30.165   2.386  1.00  0.00     0.143 C 
ENDROOT
BRANCH   1  14
HETATM   14  N   UNL     1      46.437 -28.175   2.263  1.00  0.00    -0.176 NA
HETATM   15  C   UNL     1      47.710 -28.447   2.282  1.00  0.00     0.150 C 
BRANCH  15  16
HETATM   16  C   UNL     1      48.460 -29.554   1.642  1.00  0.00    -0.014 A 
HETATM   17  C   UNL     1      48.742 -30.687   2.410  1.00  0.00     0.052 A 
HETATM   18  C   UNL     1      49.482 -31.739   1.859  1.00  0.00     0.102 A 
HETATM   19  C   UNL     1      49.962 -31.638   0.535  1.00  0.00     0.101 A 
HETATM   20  C   UNL     1      49.682 -30.492  -0.219  1.00  0.00     0.040 A 
HETATM   21  C   UNL     1      48.943 -29.445   0.337  1.00  0.00     0.016 A 
BRANCH  18  22
HETATM   22  O   UNL     1      49.810 -32.891   2.529  1.00  0.00    -0.353 OA
HETATM   23  C   UNL     1      50.735 -32.791   3.602  1.00  0.00     0.210 C 
ENDBRANCH  18  22
BRANCH  19  24
HETATM   24  O   UNL     1      50.683 -32.711   0.074  1.00  0.00    -0.353 OA
HETATM   25  C   UNL     1      52.029 -32.481  -0.317  1.00  0.00     0.210 C 
ENDBRANCH  19  24
ENDBRANCH  15  16
ENDBRANCH   1  14
BRANCH  13  26
HETATM   26  N   UNL     1      45.102 -30.297   3.735  1.00  0.00    -0.383 N 
HETATM   27  H   UNL     1      44.243 -30.416   4.278  1.00  0.00     0.157 HD
HETATM   28  H   UNL     1      45.833 -29.789   4.229  1.00  0.00     0.157 HD
ENDBRANCH  13  26
BRANCH  12  29
HETATM   29  C   UNL     1      43.809 -32.299   1.730  1.00  0.00     0.258 C 
HETATM   30  N   UNL     1      43.197 -32.879   0.633  1.00  0.00    -0.352 N 
HETATM   31  H   UNL     1      43.123 -32.277  -0.182  1.00  0.00     0.163 HD
HETATM   32  O   UNL     1      43.968 -32.889   2.796  1.00  0.00    -0.267 OA
BRANCH  30  33
HETATM   33  C   UNL     1      43.391 -34.297   0.367  1.00  0.00     0.084 C 
HETATM   34  C   UNL     1      42.490 -34.762  -0.783  1.00  0.00     0.025 C 
HETATM   35  C   UNL     1      42.909 -34.182  -2.137  1.00  0.00     0.002 C 
HETATM   36  C   UNL     1      44.389 -34.413  -2.436  1.00  0.00     0.000 C 
HETATM   37  C   UNL     1      45.291 -33.959  -1.294  1.00  0.00     0.002 C 
HETATM   38  C   UNL     1      44.868 -34.583   0.037  1.00  0.00     0.025 C 
ENDBRANCH  30  33
ENDBRANCH  12  29
TORSDOF 7
ENDMDL
