MODEL 1
REMARK VINA RESULT:     -10.0      0.000      0.000
REMARK  1 active torsions:
REMARK  status: ('A' for Active; 'I' for Inactive)
REMARK    1  A    between atoms: C_8  and  C_9 
ROOT
HETATM    1  C   UNL     1      41.848 -15.301   7.108  1.00  0.00     0.073 C 
HETATM    2  C   UNL     1      41.079 -14.540   6.084  1.00  0.00     0.062 A 
HETATM    3  N   UNL     1      39.855 -14.108   6.395  1.00  0.00    -0.178 NA
HETATM    4  N   UNL     1      39.487 -13.399   5.329  1.00  0.00    -0.262 N 
HETATM    5  H   UNL     1      38.583 -12.943   5.355  1.00  0.00     0.191 HD
HETATM    6  C   UNL     1      40.400 -13.391   4.308  1.00  0.00     0.134 A 
HETATM    7  C   UNL     1      41.476 -14.149   4.751  1.00  0.00     0.032 A 
HETATM    8  C   UNL     1      42.831 -14.389   4.161  1.00  0.00     0.119 C 
HETATM    9  S   UNL     1      43.270 -13.642   2.579  1.00  0.00    -0.141 SA
HETATM   10  C   UNL     1      41.750 -13.730   1.594  1.00  0.00     0.136 C 
HETATM   11  C   UNL     1      41.085 -15.086   1.424  1.00  0.00     0.031 C 
HETATM   12  C   UNL     1      40.755 -12.652   1.981  1.00  0.00     0.236 C 
HETATM   13  O   UNL     1      40.405 -11.796   1.161  1.00  0.00    -0.272 OA
HETATM   14  N   UNL     1      40.116 -12.657   3.184  1.00  0.00    -0.311 N 
HETATM   15  H   UNL     1      39.361 -11.980   3.214  1.00  0.00     0.170 HD
ENDROOT
BRANCH   8  16
HETATM   16  C   UNL     1      43.212 -15.863   4.251  1.00  0.00    -0.039 A 
HETATM   17  C   UNL     1      42.827 -16.714   3.191  1.00  0.00     0.021 A 
HETATM   18  C   UNL     1      43.178 -18.075   3.158  1.00  0.00    -0.025 A 
HETATM   19  C   UNL     1      43.911 -18.622   4.231  1.00  0.00    -0.026 A 
HETATM   20  C   UNL     1      42.826 -18.897   2.075  1.00  0.00     0.012 A 
HETATM   21  C   UNL     1      44.272 -17.794   5.301  1.00  0.00     0.013 A 
HETATM   22  C   UNL     1      44.271 -19.979   4.196  1.00  0.00     0.012 A 
HETATM   23  C   UNL     1      43.933 -16.435   5.308  1.00  0.00     0.009 A 
HETATM   24  C   UNL     1      43.918 -20.784   3.111  1.00  0.00     0.001 A 
HETATM   25  C   UNL     1      43.197 -20.243   2.051  1.00  0.00     0.001 A 
ENDBRANCH   8  16
TORSDOF 1
ENDMDL
MODEL 2
REMARK VINA RESULT:      -9.6      1.400      2.154
REMARK  1 active torsions:
REMARK  status: ('A' for Active; 'I' for Inactive)
REMARK    1  A    between atoms: C_8  and  C_9 
ROOT
HETATM    1  C   UNL     1      41.034 -15.517   6.437  1.00  0.00     0.073 C 
HETATM    2  C   UNL     1      40.637 -14.176   5.924  1.00  0.00     0.062 A 
HETATM    3  N   UNL     1      39.491 -13.641   6.351  1.00  0.00    -0.178 NA
HETATM    4  N   UNL     1      39.477 -12.431   5.794  1.00  0.00    -0.262 N 
HETATM    5  H   UNL     1      38.696 -11.823   6.007  1.00  0.00     0.191 HD
HETATM    6  C   UNL     1      40.544 -12.169   4.976  1.00  0.00     0.134 A 
HETATM    7  C   UNL     1      41.342 -13.304   5.013  1.00  0.00     0.032 A 
HETATM    8  C   UNL     1      42.705 -13.577   4.456  1.00  0.00     0.119 C 
HETATM    9  S   UNL     1      43.570 -12.300   3.521  1.00  0.00    -0.141 SA
HETATM   10  C   UNL     1      42.270 -11.479   2.557  1.00  0.00     0.136 C 
HETATM   11  C   UNL     1      41.385 -12.340   1.671  1.00  0.00     0.031 C 
HETATM   12  C   UNL     1      41.463 -10.509   3.398  1.00  0.00     0.236 C 
HETATM   13  O   UNL     1      41.450  -9.302   3.128  1.00  0.00    -0.272 OA
HETATM   14  N   UNL     1      40.626 -10.932   4.387  1.00  0.00    -0.311 N 
HETATM   15  H   UNL     1      40.033 -10.183   4.727  1.00  0.00     0.170 HD
ENDROOT
BRANCH   8  16
HETATM   16  C   UNL     1      42.754 -14.946   3.782  1.00  0.00    -0.039 A 
HETATM   17  C   UNL     1      43.533 -15.956   4.389  1.00  0.00     0.021 A 
HETATM   18  C   UNL     1      43.597 -17.263   3.874  1.00  0.00    -0.025 A 
HETATM   19  C   UNL     1      42.889 -17.573   2.695  1.00  0.00    -0.026 A 
HETATM   20  C   UNL     1      44.341 -18.268   4.514  1.00  0.00     0.012 A 
HETATM   21  C   UNL     1      42.138 -16.570   2.070  1.00  0.00     0.013 A 
HETATM   22  C   UNL     1      42.944 -18.879   2.183  1.00  0.00     0.012 A 
HETATM   23  C   UNL     1      42.066 -15.279   2.608  1.00  0.00     0.009 A 
HETATM   24  C   UNL     1      43.683 -19.870   2.833  1.00  0.00     0.001 A 
HETATM   25  C   UNL     1      44.380 -19.565   3.998  1.00  0.00     0.001 A 
ENDBRANCH   8  16
TORSDOF 1
ENDMDL
MODEL 3
REMARK VINA RESULT:      -9.0      3.190      5.895
REMARK  1 active torsions:
REMARK  status: ('A' for Active; 'I' for Inactive)
REMARK    1  A    between atoms: C_8  and  C_9 
ROOT
HETATM    1  C   UNL     1      43.817 -18.069   2.361  1.00  0.00     0.073 C 
HETATM    2  C   UNL     1      43.687 -18.035   3.845  1.00  0.00     0.062 A 
HETATM    3  N   UNL     1      43.883 -19.163   4.530  1.00  0.00    -0.178 NA
HETATM    4  N   UNL     1      43.791 -18.783   5.803  1.00  0.00    -0.262 N 
HETATM    5  H   UNL     1      43.938 -19.486   6.517  1.00  0.00     0.191 HD
HETATM    6  C   UNL     1      43.489 -17.459   5.981  1.00  0.00     0.134 A 
HETATM    7  C   UNL     1      43.393 -16.914   4.708  1.00  0.00     0.032 A 
HETATM    8  C   UNL     1      43.236 -15.499   4.243  1.00  0.00     0.119 C 
HETATM    9  S   UNL     1      43.108 -14.163   5.448  1.00  0.00    -0.141 SA
HETATM   10  C   UNL     1      42.119 -14.860   6.800  1.00  0.00     0.136 C 
HETATM   11  C   UNL     1      40.764 -15.458   6.460  1.00  0.00     0.031 C 
HETATM   12  C   UNL     1      42.936 -15.772   7.694  1.00  0.00     0.236 C 
HETATM   13  O   UNL     1      43.098 -15.500   8.890  1.00  0.00    -0.272 OA
HETATM   14  N   UNL     1      43.408 -16.974   7.263  1.00  0.00    -0.311 N 
HETATM   15  H   UNL     1      43.774 -17.533   8.026  1.00  0.00     0.170 HD
ENDROOT
BRANCH   8  16
HETATM   16  C   UNL     1      42.195 -15.403   3.132  1.00  0.00    -0.039 A 
HETATM   17  C   UNL     1      42.233 -14.274   2.283  1.00  0.00     0.021 A 
HETATM   18  C   UNL     1      41.350 -14.123   1.200  1.00  0.00    -0.025 A 
HETATM   19  C   UNL     1      40.372 -15.111   0.966  1.00  0.00    -0.026 A 
HETATM   20  C   UNL     1      41.429 -13.016   0.338  1.00  0.00     0.012 A 
HETATM   21  C   UNL     1      40.307 -16.219   1.820  1.00  0.00     0.013 A 
HETATM   22  C   UNL     1      39.494 -14.967  -0.121  1.00  0.00     0.012 A 
HETATM   23  C   UNL     1      41.208 -16.366   2.882  1.00  0.00     0.009 A 
HETATM   24  C   UNL     1      39.588 -13.864  -0.972  1.00  0.00     0.001 A 
HETATM   25  C   UNL     1      40.555 -12.890  -0.744  1.00  0.00     0.001 A 
ENDBRANCH   8  16
TORSDOF 1
ENDMDL
MODEL 4
REMARK VINA RESULT:      -9.0      2.807      4.090
REMARK  1 active torsions:
REMARK  status: ('A' for Active; 'I' for Inactive)
REMARK    1  A    between atoms: C_8  and  C_9 
ROOT
HETATM    1  C   UNL     1      44.675 -11.831   3.810  1.00  0.00     0.073 C 
HETATM    2  C   UNL     1      43.719 -11.514   4.907  1.00  0.00     0.062 A 
HETATM    3  N   UNL     1      44.183 -10.916   6.007  1.00  0.00    -0.178 NA
HETATM    4  N   UNL     1      43.089 -10.690   6.732  1.00  0.00    -0.262 N 
HETATM    5  H   UNL     1      43.201 -10.209   7.616  1.00  0.00     0.191 HD
HETATM    6  C   UNL     1      41.930 -11.162   6.175  1.00  0.00     0.134 A 
HETATM    7  C   UNL     1      42.292 -11.734   4.964  1.00  0.00     0.032 A 
HETATM    8  C   UNL     1      41.469 -12.280   3.838  1.00  0.00     0.119 C 
HETATM    9  S   UNL     1      39.669 -12.283   3.957  1.00  0.00    -0.141 SA
HETATM   10  C   UNL     1      39.325 -12.675   5.695  1.00  0.00     0.136 C 
HETATM   11  C   UNL     1      39.941 -13.935   6.279  1.00  0.00     0.031 C 
HETATM   12  C   UNL     1      39.519 -11.473   6.599  1.00  0.00     0.236 C 
HETATM   13  O   UNL     1      38.570 -11.012   7.244  1.00  0.00    -0.272 OA
HETATM   14  N   UNL     1      40.749 -10.941   6.841  1.00  0.00    -0.311 N 
HETATM   15  H   UNL     1      40.728 -10.266   7.598  1.00  0.00     0.170 HD
ENDROOT
BRANCH   8  16
HETATM   16  C   UNL     1      42.036 -13.607   3.342  1.00  0.00    -0.039 A 
HETATM   17  C   UNL     1      42.436 -14.560   4.306  1.00  0.00     0.021 A 
HETATM   18  C   UNL     1      42.920 -15.830   3.946  1.00  0.00    -0.025 A 
HETATM   19  C   UNL     1      43.042 -16.158   2.581  1.00  0.00    -0.026 A 
HETATM   20  C   UNL     1      43.271 -16.783   4.917  1.00  0.00     0.012 A 
HETATM   21  C   UNL     1      42.676 -15.209   1.618  1.00  0.00     0.013 A 
HETATM   22  C   UNL     1      43.517 -17.430   2.219  1.00  0.00     0.012 A 
HETATM   23  C   UNL     1      42.176 -13.956   1.992  1.00  0.00     0.009 A 
HETATM   24  C   UNL     1      43.858 -18.368   3.195  1.00  0.00     0.001 A 
HETATM   25  C   UNL     1      43.734 -18.046   4.543  1.00  0.00     0.001 A 
ENDBRANCH   8  16
TORSDOF 1
ENDMDL
MODEL 5
REMARK VINA RESULT:      -8.7      2.225      3.447
REMARK  1 active torsions:
REMARK  status: ('A' for Active; 'I' for Inactive)
REMARK    1  A    between atoms: C_8  and  C_9 
ROOT
HETATM    1  C   UNL     1      39.793 -15.719   1.392  1.00  0.00     0.073 C 
HETATM    2  C   UNL     1      40.090 -14.259   1.410  1.00  0.00     0.062 A 
HETATM    3  N   UNL     1      39.752 -13.525   0.348  1.00  0.00    -0.178 NA
HETATM    4  N   UNL     1      40.057 -12.280   0.712  1.00  0.00    -0.262 N 
HETATM    5  H   UNL     1      39.855 -11.535   0.057  1.00  0.00     0.191 HD
HETATM    6  C   UNL     1      40.630 -12.174   1.952  1.00  0.00     0.134 A 
HETATM    7  C   UNL     1      40.690 -13.465   2.457  1.00  0.00     0.032 A 
HETATM    8  C   UNL     1      41.069 -13.985   3.810  1.00  0.00     0.119 C 
HETATM    9  S   UNL     1      41.588 -12.840   5.102  1.00  0.00    -0.141 SA
HETATM   10  C   UNL     1      42.564 -11.581   4.234  1.00  0.00     0.136 C 
HETATM   11  C   UNL     1      43.730 -12.047   3.377  1.00  0.00     0.031 C 
HETATM   12  C   UNL     1      41.688 -10.579   3.508  1.00  0.00     0.236 C 
HETATM   13  O   UNL     1      41.715  -9.381   3.816  1.00  0.00    -0.272 OA
HETATM   14  N   UNL     1      40.945 -10.922   2.420  1.00  0.00    -0.311 N 
HETATM   15  H   UNL     1      40.563 -10.109   1.950  1.00  0.00     0.170 HD
ENDROOT
BRANCH   8  16
HETATM   16  C   UNL     1      41.981 -15.203   3.690  1.00  0.00    -0.039 A 
HETATM   17  C   UNL     1      42.120 -16.041   4.818  1.00  0.00     0.021 A 
HETATM   18  C   UNL     1      42.894 -17.214   4.789  1.00  0.00    -0.025 A 
HETATM   19  C   UNL     1      43.582 -17.554   3.606  1.00  0.00    -0.026 A 
HETATM   20  C   UNL     1      42.986 -18.061   5.906  1.00  0.00     0.012 A 
HETATM   21  C   UNL     1      43.473 -16.714   2.490  1.00  0.00     0.013 A 
HETATM   22  C   UNL     1      44.348 -18.731   3.570  1.00  0.00     0.012 A 
HETATM   23  C   UNL     1      42.681 -15.560   2.530  1.00  0.00     0.009 A 
HETATM   24  C   UNL     1      44.428 -19.565   4.687  1.00  0.00     0.001 A 
HETATM   25  C   UNL     1      43.746 -19.231   5.854  1.00  0.00     0.001 A 
ENDBRANCH   8  16
TORSDOF 1
ENDMDL
MODEL 6
REMARK VINA RESULT:      -8.6      3.773      4.921
REMARK  1 active torsions:
REMARK  status: ('A' for Active; 'I' for Inactive)
REMARK    1  A    between atoms: C_8  and  C_9 
ROOT
HETATM    1  C   UNL     1      44.960 -12.350   6.648  1.00  0.00     0.073 C 
HETATM    2  C   UNL     1      43.969 -11.437   7.285  1.00  0.00     0.062 A 
HETATM    3  N   UNL     1      44.168 -11.059   8.550  1.00  0.00    -0.178 NA
HETATM    4  N   UNL     1      43.184 -10.193   8.782  1.00  0.00    -0.262 N 
HETATM    5  H   UNL     1      43.152  -9.747   9.690  1.00  0.00     0.191 HD
HETATM    6  C   UNL     1      42.314 -10.026   7.736  1.00  0.00     0.134 A 
HETATM    7  C   UNL     1      42.782 -10.844   6.716  1.00  0.00     0.032 A 
HETATM    8  C   UNL     1      42.358 -10.988   5.287  1.00  0.00     0.119 C 
HETATM    9  S   UNL     1      40.987 -10.004   4.650  1.00  0.00    -0.141 SA
HETATM   10  C   UNL     1      39.797  -9.937   6.017  1.00  0.00     0.136 C 
HETATM   11  C   UNL     1      39.329 -11.250   6.622  1.00  0.00     0.031 C 
HETATM   12  C   UNL     1      40.203  -8.933   7.078  1.00  0.00     0.236 C 
HETATM   13  O   UNL     1      39.484  -7.959   7.331  1.00  0.00    -0.272 OA
HETATM   14  N   UNL     1      41.288  -9.125   7.878  1.00  0.00    -0.311 N 
HETATM   15  H   UNL     1      41.317  -8.461   8.644  1.00  0.00     0.170 HD
ENDROOT
BRANCH   8  16
HETATM   16  C   UNL     1      42.271 -12.459   4.890  1.00  0.00    -0.039 A 
HETATM   17  C   UNL     1      42.810 -12.842   3.642  1.00  0.00     0.021 A 
HETATM   18  C   UNL     1      42.826 -14.180   3.213  1.00  0.00    -0.025 A 
HETATM   19  C   UNL     1      42.259 -15.174   4.036  1.00  0.00    -0.026 A 
HETATM   20  C   UNL     1      43.405 -14.551   1.987  1.00  0.00     0.012 A 
HETATM   21  C   UNL     1      41.696 -14.800   5.263  1.00  0.00     0.013 A 
HETATM   22  C   UNL     1      42.281 -16.513   3.614  1.00  0.00     0.012 A 
HETATM   23  C   UNL     1      41.707 -13.465   5.686  1.00  0.00     0.009 A 
HETATM   24  C   UNL     1      42.865 -16.868   2.396  1.00  0.00     0.001 A 
HETATM   25  C   UNL     1      43.427 -15.888   1.584  1.00  0.00     0.001 A 
ENDBRANCH   8  16
TORSDOF 1
ENDMDL
MODEL 7
REMARK VINA RESULT:      -8.4      3.383      6.444
REMARK  1 active torsions:
REMARK  status: ('A' for Active; 'I' for Inactive)
REMARK    1  A    between atoms: C_8  and  C_9 
ROOT
HETATM    1  C   UNL     1      43.220 -14.311   7.184  1.00  0.00     0.073 C 
HETATM    2  C   UNL     1      43.646 -15.429   6.296  1.00  0.00     0.062 A 
HETATM    3  N   UNL     1      44.720 -16.145   6.637  1.00  0.00    -0.178 NA
HETATM    4  N   UNL     1      44.773 -17.100   5.711  1.00  0.00    -0.262 N 
HETATM    5  H   UNL     1      45.509 -17.792   5.790  1.00  0.00     0.191 HD
HETATM    6  C   UNL     1      43.807 -17.011   4.744  1.00  0.00     0.134 A 
HETATM    7  C   UNL     1      43.036 -15.905   5.076  1.00  0.00     0.032 A 
HETATM    8  C   UNL     1      41.757 -15.379   4.501  1.00  0.00     0.119 C 
HETATM    9  S   UNL     1      40.983 -16.219   3.105  1.00  0.00    -0.141 SA
HETATM   10  C   UNL     1      42.371 -16.754   2.066  1.00  0.00     0.136 C 
HETATM   11  C   UNL     1      43.376 -15.704   1.620  1.00  0.00     0.031 C 
HETATM   12  C   UNL     1      43.049 -17.995   2.613  1.00  0.00     0.236 C 
HETATM   13  O   UNL     1      43.066 -19.043   1.957  1.00  0.00    -0.272 OA
HETATM   14  N   UNL     1      43.769 -17.976   3.769  1.00  0.00    -0.311 N 
HETATM   15  H   UNL     1      44.299 -18.830   3.899  1.00  0.00     0.170 HD
ENDROOT
BRANCH   8  16
HETATM   16  C   UNL     1      41.821 -13.864   4.325  1.00  0.00    -0.039 A 
HETATM   17  C   UNL     1      40.714 -13.099   4.755  1.00  0.00     0.021 A 
HETATM   18  C   UNL     1      40.702 -11.696   4.684  1.00  0.00    -0.025 A 
HETATM   19  C   UNL     1      41.815 -11.025   4.138  1.00  0.00    -0.026 A 
HETATM   20  C   UNL     1      39.611 -10.947   5.157  1.00  0.00     0.012 A 
HETATM   21  C   UNL     1      42.905 -11.776   3.682  1.00  0.00     0.013 A 
HETATM   22  C   UNL     1      41.809  -9.621   4.074  1.00  0.00     0.012 A 
HETATM   23  C   UNL     1      42.911 -13.173   3.779  1.00  0.00     0.009 A 
HETATM   24  C   UNL     1      40.720  -8.890   4.552  1.00  0.00     0.001 A 
HETATM   25  C   UNL     1      39.622  -9.552   5.094  1.00  0.00     0.001 A 
ENDBRANCH   8  16
TORSDOF 1
ENDMDL
MODEL 8
REMARK VINA RESULT:      -8.4      2.429      4.117
REMARK  1 active torsions:
REMARK  status: ('A' for Active; 'I' for Inactive)
REMARK    1  A    between atoms: C_8  and  C_9 
ROOT
HETATM    1  C   UNL     1      41.021 -13.026   0.651  1.00  0.00     0.073 C 
HETATM    2  C   UNL     1      41.481 -12.102   1.726  1.00  0.00     0.062 A 
HETATM    3  N   UNL     1      42.044 -10.943   1.376  1.00  0.00    -0.178 NA
HETATM    4  N   UNL     1      42.248 -10.324   2.538  1.00  0.00    -0.262 N 
HETATM    5  H   UNL     1      42.650  -9.395   2.513  1.00  0.00     0.191 HD
HETATM    6  C   UNL     1      41.889 -11.052   3.641  1.00  0.00     0.134 A 
HETATM    7  C   UNL     1      41.384 -12.253   3.159  1.00  0.00     0.032 A 
HETATM    8  C   UNL     1      40.701 -13.391   3.852  1.00  0.00     0.119 C 
HETATM    9  S   UNL     1      40.445 -13.338   5.636  1.00  0.00    -0.141 SA
HETATM   10  C   UNL     1      41.948 -12.561   6.291  1.00  0.00     0.136 C 
HETATM   11  C   UNL     1      43.289 -13.173   5.920  1.00  0.00     0.031 C 
HETATM   12  C   UNL     1      41.939 -11.056   6.107  1.00  0.00     0.236 C 
HETATM   13  O   UNL     1      41.966 -10.303   7.088  1.00  0.00    -0.272 OA
HETATM   14  N   UNL     1      42.034 -10.476   4.879  1.00  0.00    -0.311 N 
HETATM   15  H   UNL     1      42.194  -9.477   4.942  1.00  0.00     0.170 HD
ENDROOT
BRANCH   8  16
HETATM   16  C   UNL     1      41.246 -14.731   3.367  1.00  0.00    -0.039 A 
HETATM   17  C   UNL     1      42.330 -15.301   4.072  1.00  0.00     0.021 A 
HETATM   18  C   UNL     1      42.865 -16.556   3.734  1.00  0.00    -0.025 A 
HETATM   19  C   UNL     1      42.329 -17.260   2.637  1.00  0.00    -0.026 A 
HETATM   20  C   UNL     1      43.914 -17.129   4.473  1.00  0.00     0.012 A 
HETATM   21  C   UNL     1      41.273 -16.690   1.914  1.00  0.00     0.013 A 
HETATM   22  C   UNL     1      42.856 -18.518   2.303  1.00  0.00     0.012 A 
HETATM   23  C   UNL     1      40.737 -15.449   2.276  1.00  0.00     0.009 A 
HETATM   24  C   UNL     1      43.895 -19.077   3.049  1.00  0.00     0.001 A 
HETATM   25  C   UNL     1      44.423 -18.384   4.134  1.00  0.00     0.001 A 
ENDBRANCH   8  16
TORSDOF 1
ENDMDL
MODEL 9
REMARK VINA RESULT:      -8.2      3.016      5.820
REMARK  1 active torsions:
REMARK  status: ('A' for Active; 'I' for Inactive)
REMARK    1  A    between atoms: C_8  and  C_9 
ROOT
HETATM    1  C   UNL     1      43.445 -15.813   1.839  1.00  0.00     0.073 C 
HETATM    2  C   UNL     1      43.133 -15.196   3.158  1.00  0.00     0.062 A 
HETATM    3  N   UNL     1      43.444 -15.870   4.268  1.00  0.00    -0.178 NA
HETATM    4  N   UNL     1      43.133 -15.025   5.251  1.00  0.00    -0.262 N 
HETATM    5  H   UNL     1      43.316 -15.321   6.202  1.00  0.00     0.191 HD
HETATM    6  C   UNL     1      42.582 -13.843   4.832  1.00  0.00     0.134 A 
HETATM    7  C   UNL     1      42.545 -13.909   3.446  1.00  0.00     0.032 A 
HETATM    8  C   UNL     1      42.196 -12.882   2.413  1.00  0.00     0.119 C 
HETATM    9  S   UNL     1      41.689 -11.227   2.921  1.00  0.00    -0.141 SA
HETATM   10  C   UNL     1      40.685 -11.493   4.408  1.00  0.00     0.136 C 
HETATM   11  C   UNL     1      39.508 -12.451   4.314  1.00  0.00     0.031 C 
HETATM   12  C   UNL     1      41.538 -11.757   5.634  1.00  0.00     0.236 C 
HETATM   13  O   UNL     1      41.504 -10.987   6.601  1.00  0.00    -0.272 OA
HETATM   14  N   UNL     1      42.264 -12.900   5.777  1.00  0.00    -0.311 N 
HETATM   15  H   UNL     1      42.629 -13.002   6.718  1.00  0.00     0.170 HD
ENDROOT
BRANCH   8  16
HETATM   16  C   UNL     1      41.294 -13.477   1.335  1.00  0.00    -0.039 A 
HETATM   17  C   UNL     1      41.140 -12.759   0.128  1.00  0.00     0.021 A 
HETATM   18  C   UNL     1      40.374 -13.251  -0.943  1.00  0.00    -0.025 A 
HETATM   19  C   UNL     1      39.710 -14.487  -0.803  1.00  0.00    -0.026 A 
HETATM   20  C   UNL     1      40.266 -12.546  -2.153  1.00  0.00     0.012 A 
HETATM   21  C   UNL     1      39.834 -15.193   0.401  1.00  0.00     0.013 A 
HETATM   22  C   UNL     1      38.952 -14.986  -1.875  1.00  0.00     0.012 A 
HETATM   23  C   UNL     1      40.618 -14.699   1.450  1.00  0.00     0.009 A 
HETATM   24  C   UNL     1      38.857 -14.276  -3.073  1.00  0.00     0.001 A 
HETATM   25  C   UNL     1      39.514 -13.058  -3.213  1.00  0.00     0.001 A 
ENDBRANCH   8  16
TORSDOF 1
ENDMDL
MODEL 10
REMARK VINA RESULT:      -8.1     14.476     16.015
REMARK  1 active torsions:
REMARK  status: ('A' for Active; 'I' for Inactive)
REMARK    1  A    between atoms: C_8  and  C_9 
ROOT
HETATM    1  C   UNL     1      47.513 -28.274  -0.323  1.00  0.00     0.073 C 
HETATM    2  C   UNL     1      46.979 -29.104   0.793  1.00  0.00     0.062 A 
HETATM    3  N   UNL     1      47.840 -29.636   1.663  1.00  0.00    -0.178 NA
HETATM    4  N   UNL     1      47.057 -30.223   2.567  1.00  0.00    -0.262 N 
HETATM    5  H   UNL     1      47.504 -30.677   3.354  1.00  0.00     0.191 HD
HETATM    6  C   UNL     1      45.717 -30.142   2.297  1.00  0.00     0.134 A 
HETATM    7  C   UNL     1      45.607 -29.419   1.117  1.00  0.00     0.032 A 
HETATM    8  C   UNL     1      44.414 -28.874   0.395  1.00  0.00     0.119 C 
HETATM    9  S   UNL     1      42.757 -29.158   1.049  1.00  0.00    -0.141 SA
HETATM   10  C   UNL     1      42.808 -30.847   1.709  1.00  0.00     0.136 C 
HETATM   11  C   UNL     1      43.259 -31.963   0.782  1.00  0.00     0.031 C 
HETATM   12  C   UNL     1      43.499 -30.912   3.057  1.00  0.00     0.236 C 
HETATM   13  O   UNL     1      42.884 -31.288   4.062  1.00  0.00    -0.272 OA
HETATM   14  N   UNL     1      44.836 -30.691   3.196  1.00  0.00    -0.311 N 
HETATM   15  H   UNL     1      45.168 -30.947   4.119  1.00  0.00     0.170 HD
ENDROOT
BRANCH   8  16
HETATM   16  C   UNL     1      44.517 -29.138  -1.105  1.00  0.00    -0.039 A 
HETATM   17  C   UNL     1      44.358 -30.467  -1.557  1.00  0.00     0.021 A 
HETATM   18  C   UNL     1      44.382 -30.802  -2.922  1.00  0.00    -0.025 A 
HETATM   19  C   UNL     1      44.605 -29.787  -3.874  1.00  0.00    -0.026 A 
HETATM   20  C   UNL     1      44.178 -32.122  -3.358  1.00  0.00     0.012 A 
HETATM   21  C   UNL     1      44.793 -28.470  -3.434  1.00  0.00     0.013 A 
HETATM   22  C   UNL     1      44.621 -30.116  -5.240  1.00  0.00     0.012 A 
HETATM   23  C   UNL     1      44.744 -28.150  -2.072  1.00  0.00     0.009 A 
HETATM   24  C   UNL     1      44.412 -31.431  -5.659  1.00  0.00     0.001 A 
HETATM   25  C   UNL     1      44.190 -32.433  -4.719  1.00  0.00     0.001 A 
ENDBRANCH   8  16
TORSDOF 1
ENDMDL
