MODEL 1
REMARK VINA RESULT:      -8.8      0.000      0.000
REMARK  4 active torsions:
REMARK  status: ('A' for Active; 'I' for Inactive)
REMARK    1  A    between atoms: C_5  and  C_6 
REMARK    2  A    between atoms: C_6  and  N_7 
REMARK    3  A    between atoms: C_17  and  C_18 
REMARK    4  A    between atoms: C_27  and  C_28 
ROOT
HETATM    1  N   UNL     1      42.404 -16.383   6.446  1.00  0.00    -0.067 N 
HETATM    2  H   UNL     1      42.011 -17.178   6.971  1.00  0.00     0.280 HD
HETATM    3  C   UNL     1      42.521 -15.235   7.407  1.00  0.00     0.236 C 
HETATM    4  C   UNL     1      42.876 -13.932   6.692  1.00  0.00     0.039 C 
HETATM    5  C   UNL     1      41.970 -13.559   5.486  1.00  0.00    -0.013 C 
HETATM    6  C   UNL     1      40.572 -13.047   5.927  1.00  0.00     0.244 C 
HETATM    7  N   UNL     1      40.636 -11.664   6.519  1.00  0.00    -0.073 N 
HETATM    8  H   UNL     1      41.238 -11.675   7.354  1.00  0.00     0.279 HD
HETATM    9  C   UNL     1      39.280 -11.198   7.007  1.00  0.00     0.269 C 
HETATM   10  C   UNL     1      41.231 -10.642   5.558  1.00  0.00     0.243 C 
HETATM   11  C   UNL     1      42.677 -11.029   5.205  1.00  0.00     0.045 C 
HETATM   12  C   UNL     1      42.649 -12.461   4.607  1.00  0.00     0.022 C 
HETATM   13  C   UNL     1      41.805 -14.828   4.594  1.00  0.00     0.039 C 
HETATM   14  C   UNL     1      41.418 -16.099   5.348  1.00  0.00     0.236 C 
ENDROOT
BRANCH  11  15
HETATM   15  C   UNL     1      43.719 -10.831   6.305  1.00  0.00    -0.052 A 
HETATM   16  C   UNL     1      43.445 -10.205   7.533  1.00  0.00     0.007 A 
HETATM   17  C   UNL     1      44.436 -10.060   8.510  1.00  0.00     0.001 A 
HETATM   18  C   UNL     1      45.729 -10.509   8.270  1.00  0.00     0.000 A 
HETATM   19  C   UNL     1      46.040 -11.082   7.043  1.00  0.00     0.001 A 
HETATM   20  C   UNL     1      45.050 -11.229   6.069  1.00  0.00     0.007 A 
ENDBRANCH  11  15
BRANCH   1  21
HETATM   21  C   UNL     1      43.730 -16.944   5.927  1.00  0.00     0.277 C 
BRANCH  21  22
HETATM   22  C   UNL     1      43.754 -18.372   5.516  1.00  0.00     0.011 A 
HETATM   23  C   UNL     1      43.606 -19.512   6.344  1.00  0.00     0.149 A 
HETATM   24  N   UNL     1      43.732 -20.658   5.691  1.00  0.00    -0.185 NA
HETATM   25  N   UNL     1      43.905 -20.289   4.414  1.00  0.00    -0.278 N 
HETATM   26  C   UNL     1      44.053 -21.308   3.398  1.00  0.00     0.179 C 
HETATM   27  C   UNL     1      43.885 -18.922   4.242  1.00  0.00     0.043 A 
BRANCH  27  28
HETATM   28  C   UNL     1      43.962 -18.262   2.864  1.00  0.00     0.038 A 
HETATM   29  C   UNL     1      42.681 -17.970   2.114  1.00  0.00     0.011 A 
HETATM   30  C   UNL     1      43.516 -16.842   2.616  1.00  0.00     0.011 A 
ENDBRANCH  27  28
ENDBRANCH  21  22
ENDBRANCH   1  21
TORSDOF 4
ENDMDL
MODEL 2
REMARK VINA RESULT:      -8.5      1.115      2.011
REMARK  4 active torsions:
REMARK  status: ('A' for Active; 'I' for Inactive)
REMARK    1  A    between atoms: C_5  and  C_6 
REMARK    2  A    between atoms: C_6  and  N_7 
REMARK    3  A    between atoms: C_17  and  C_18 
REMARK    4  A    between atoms: C_27  and  C_28 
ROOT
HETATM    1  N   UNL     1      42.224 -15.961   5.754  1.00  0.00    -0.067 N 
HETATM    2  H   UNL     1      41.819 -16.842   6.106  1.00  0.00     0.280 HD
HETATM    3  C   UNL     1      42.323 -15.024   6.923  1.00  0.00     0.236 C 
HETATM    4  C   UNL     1      42.694 -13.608   6.483  1.00  0.00     0.039 C 
HETATM    5  C   UNL     1      41.814 -13.002   5.355  1.00  0.00    -0.013 C 
HETATM    6  C   UNL     1      40.408 -12.579   5.860  1.00  0.00     0.244 C 
HETATM    7  N   UNL     1      40.462 -11.337   6.712  1.00  0.00    -0.073 N 
HETATM    8  H   UNL     1      41.047 -11.515   7.540  1.00  0.00     0.279 HD
HETATM    9  C   UNL     1      39.097 -10.968   7.253  1.00  0.00     0.269 C 
HETATM   10  C   UNL     1      41.078 -10.151   5.981  1.00  0.00     0.243 C 
HETATM   11  C   UNL     1      42.530 -10.470   5.587  1.00  0.00     0.045 C 
HETATM   12  C   UNL     1      42.513 -11.757   4.721  1.00  0.00     0.022 C 
HETATM   13  C   UNL     1      41.666 -14.072   4.230  1.00  0.00     0.039 C 
HETATM   14  C   UNL     1      41.261 -15.463   4.713  1.00  0.00     0.236 C 
ENDROOT
BRANCH  11  15
HETATM   15  C   UNL     1      43.550 -10.496   6.725  1.00  0.00    -0.052 A 
HETATM   16  C   UNL     1      43.272 -10.051   8.030  1.00  0.00     0.007 A 
HETATM   17  C   UNL     1      44.242 -10.108   9.037  1.00  0.00     0.001 A 
HETATM   18  C   UNL     1      45.518 -10.582   8.757  1.00  0.00     0.000 A 
HETATM   19  C   UNL     1      45.835 -10.976   7.463  1.00  0.00     0.001 A 
HETATM   20  C   UNL     1      44.866 -10.921   6.458  1.00  0.00     0.007 A 
ENDBRANCH  11  15
BRANCH   1  21
HETATM   21  C   UNL     1      43.560 -16.417   5.162  1.00  0.00     0.277 C 
BRANCH  21  22
HETATM   22  C   UNL     1      43.511 -17.330   3.989  1.00  0.00     0.011 A 
HETATM   23  C   UNL     1      43.179 -17.002   2.652  1.00  0.00     0.149 A 
HETATM   24  N   UNL     1      43.166 -18.049   1.840  1.00  0.00    -0.185 NA
HETATM   25  N   UNL     1      43.549 -19.071   2.619  1.00  0.00    -0.278 N 
HETATM   26  C   UNL     1      43.674 -20.392   2.042  1.00  0.00     0.179 C 
HETATM   27  C   UNL     1      43.811 -18.689   3.916  1.00  0.00     0.043 A 
BRANCH  27  28
HETATM   28  C   UNL     1      44.357 -19.657   4.968  1.00  0.00     0.038 A 
HETATM   29  C   UNL     1      43.533 -19.944   6.204  1.00  0.00     0.011 A 
HETATM   30  C   UNL     1      43.763 -21.023   5.202  1.00  0.00     0.011 A 
ENDBRANCH  27  28
ENDBRANCH  21  22
ENDBRANCH   1  21
TORSDOF 4
ENDMDL
MODEL 3
REMARK VINA RESULT:      -8.4      4.872      8.084
REMARK  4 active torsions:
REMARK  status: ('A' for Active; 'I' for Inactive)
REMARK    1  A    between atoms: C_5  and  C_6 
REMARK    2  A    between atoms: C_6  and  N_7 
REMARK    3  A    between atoms: C_17  and  C_18 
REMARK    4  A    between atoms: C_27  and  C_28 
ROOT
HETATM    1  N   UNL     1      39.715 -14.476   1.029  1.00  0.00    -0.067 N 
HETATM    2  H   UNL     1      38.738 -14.382   0.713  1.00  0.00     0.280 HD
HETATM    3  C   UNL     1      39.839 -15.819   1.687  1.00  0.00     0.236 C 
HETATM    4  C   UNL     1      41.181 -15.980   2.399  1.00  0.00     0.039 C 
HETATM    5  C   UNL     1      41.560 -14.840   3.384  1.00  0.00    -0.013 C 
HETATM    6  C   UNL     1      40.744 -14.899   4.705  1.00  0.00     0.244 C 
HETATM    7  N   UNL     1      41.183 -16.036   5.591  1.00  0.00    -0.073 N 
HETATM    8  H   UNL     1      41.040 -16.929   5.100  1.00  0.00     0.279 HD
HETATM    9  C   UNL     1      40.340 -16.126   6.845  1.00  0.00     0.269 C 
HETATM   10  C   UNL     1      42.661 -15.961   5.952  1.00  0.00     0.243 C 
HETATM   11  C   UNL     1      43.520 -16.047   4.679  1.00  0.00     0.045 C 
HETATM   12  C   UNL     1      43.081 -14.898   3.733  1.00  0.00     0.022 C 
HETATM   13  C   UNL     1      41.301 -13.478   2.670  1.00  0.00     0.039 C 
HETATM   14  C   UNL     1      39.933 -13.351   2.001  1.00  0.00     0.236 C 
ENDROOT
BRANCH  11  15
HETATM   15  C   UNL     1      43.596 -17.417   4.005  1.00  0.00    -0.052 A 
HETATM   16  C   UNL     1      43.344 -17.626   2.637  1.00  0.00     0.007 A 
HETATM   17  C   UNL     1      43.437 -18.902   2.071  1.00  0.00     0.001 A 
HETATM   18  C   UNL     1      43.755 -19.999   2.861  1.00  0.00     0.000 A 
HETATM   19  C   UNL     1      43.954 -19.829   4.225  1.00  0.00     0.001 A 
HETATM   20  C   UNL     1      43.863 -18.555   4.791  1.00  0.00     0.007 A 
ENDBRANCH  11  15
BRANCH   1  21
HETATM   21  C   UNL     1      40.508 -14.304  -0.270  1.00  0.00     0.277 C 
BRANCH  21  22
HETATM   22  C   UNL     1      40.231 -13.091  -1.084  1.00  0.00     0.011 A 
HETATM   23  C   UNL     1      40.993 -11.897  -1.141  1.00  0.00     0.149 A 
HETATM   24  N   UNL     1      40.456 -10.967  -1.918  1.00  0.00    -0.185 NA
HETATM   25  N   UNL     1      39.367 -11.557  -2.430  1.00  0.00    -0.278 N 
HETATM   26  C   UNL     1      38.539 -10.825  -3.363  1.00  0.00     0.179 C 
HETATM   27  C   UNL     1      39.204 -12.855  -1.995  1.00  0.00     0.043 A 
BRANCH  27  28
HETATM   28  C   UNL     1      38.091 -13.766  -2.515  1.00  0.00     0.038 A 
HETATM   29  C   UNL     1      38.252 -14.428  -3.867  1.00  0.00     0.011 A 
HETATM   30  C   UNL     1      38.253 -15.262  -2.631  1.00  0.00     0.011 A 
ENDBRANCH  27  28
ENDBRANCH  21  22
ENDBRANCH   1  21
TORSDOF 4
ENDMDL
MODEL 4
REMARK VINA RESULT:      -8.2      3.182      6.956
REMARK  4 active torsions:
REMARK  status: ('A' for Active; 'I' for Inactive)
REMARK    1  A    between atoms: C_5  and  C_6 
REMARK    2  A    between atoms: C_6  and  N_7 
REMARK    3  A    between atoms: C_17  and  C_18 
REMARK    4  A    between atoms: C_27  and  C_28 
ROOT
HETATM    1  N   UNL     1      42.091 -10.022   3.744  1.00  0.00    -0.067 N 
HETATM    2  H   UNL     1      42.706  -9.196   3.783  1.00  0.00     0.280 HD
HETATM    3  C   UNL     1      42.820 -11.079   2.965  1.00  0.00     0.236 C 
HETATM    4  C   UNL     1      41.918 -12.269   2.643  1.00  0.00     0.039 C 
HETATM    5  C   UNL     1      40.560 -11.921   1.973  1.00  0.00    -0.013 C 
HETATM    6  C   UNL     1      40.719 -11.515   0.482  1.00  0.00     0.244 C 
HETATM    7  N   UNL     1      41.038 -12.697  -0.396  1.00  0.00    -0.073 N 
HETATM    8  H   UNL     1      41.927 -13.119  -0.094  1.00  0.00     0.279 HD
HETATM    9  C   UNL     1      41.255 -12.284  -1.836  1.00  0.00     0.269 C 
HETATM   10  C   UNL     1      39.980 -13.790  -0.314  1.00  0.00     0.243 C 
HETATM   11  C   UNL     1      39.888 -14.330   1.123  1.00  0.00     0.045 C 
HETATM   12  C   UNL     1      39.577 -13.132   2.059  1.00  0.00     0.022 C 
HETATM   13  C   UNL     1      39.915 -10.745   2.769  1.00  0.00     0.039 C 
HETATM   14  C   UNL     1      40.845  -9.564   3.039  1.00  0.00     0.236 C 
ENDROOT
BRANCH  11  15
HETATM   15  C   UNL     1      41.050 -15.205   1.593  1.00  0.00    -0.052 A 
HETATM   16  C   UNL     1      42.298 -15.255   0.946  1.00  0.00     0.007 A 
HETATM   17  C   UNL     1      43.330 -16.068   1.426  1.00  0.00     0.001 A 
HETATM   18  C   UNL     1      43.131 -16.869   2.544  1.00  0.00     0.000 A 
HETATM   19  C   UNL     1      41.890 -16.880   3.169  1.00  0.00     0.001 A 
HETATM   20  C   UNL     1      40.860 -16.067   2.690  1.00  0.00     0.007 A 
ENDBRANCH  11  15
BRANCH   1  21
HETATM   21  C   UNL     1      41.856 -10.340   5.223  1.00  0.00     0.277 C 
BRANCH  21  22
HETATM   22  C   UNL     1      42.679 -11.419   5.830  1.00  0.00     0.011 A 
HETATM   23  C   UNL     1      43.903 -11.281   6.531  1.00  0.00     0.149 A 
HETATM   24  N   UNL     1      44.430 -12.438   6.903  1.00  0.00    -0.185 NA
HETATM   25  N   UNL     1      43.531 -13.350   6.505  1.00  0.00    -0.278 N 
HETATM   26  C   UNL     1      43.775 -14.749   6.779  1.00  0.00     0.179 C 
HETATM   27  C   UNL     1      42.433 -12.789   5.889  1.00  0.00     0.043 A 
BRANCH  27  28
HETATM   28  C   UNL     1      41.228 -13.615   5.438  1.00  0.00     0.038 A 
HETATM   29  C   UNL     1      40.364 -14.290   6.481  1.00  0.00     0.011 A 
HETATM   30  C   UNL     1      39.805 -13.171   5.670  1.00  0.00     0.011 A 
ENDBRANCH  27  28
ENDBRANCH  21  22
ENDBRANCH   1  21
TORSDOF 4
ENDMDL
MODEL 5
REMARK VINA RESULT:      -8.0      4.397      6.784
REMARK  4 active torsions:
REMARK  status: ('A' for Active; 'I' for Inactive)
REMARK    1  A    between atoms: C_5  and  C_6 
REMARK    2  A    between atoms: C_6  and  N_7 
REMARK    3  A    between atoms: C_17  and  C_18 
REMARK    4  A    between atoms: C_27  and  C_28 
ROOT
HETATM    1  N   UNL     1      41.141 -14.764   1.034  1.00  0.00    -0.067 N 
HETATM    2  H   UNL     1      41.434 -15.000   0.075  1.00  0.00     0.280 HD
HETATM    3  C   UNL     1      42.384 -14.409   1.800  1.00  0.00     0.236 C 
HETATM    4  C   UNL     1      42.106 -14.264   3.295  1.00  0.00     0.039 C 
HETATM    5  C   UNL     1      41.363 -15.455   3.960  1.00  0.00    -0.013 C 
HETATM    6  C   UNL     1      42.279 -16.694   4.154  1.00  0.00     0.244 C 
HETATM    7  N   UNL     1      43.283 -16.489   5.258  1.00  0.00    -0.073 N 
HETATM    8  H   UNL     1      43.889 -15.690   5.027  1.00  0.00     0.279 HD
HETATM    9  C   UNL     1      44.215 -17.674   5.398  1.00  0.00     0.269 C 
HETATM   10  C   UNL     1      42.626 -16.173   6.596  1.00  0.00     0.243 C 
HETATM   11  C   UNL     1      41.821 -14.867   6.494  1.00  0.00     0.045 C 
HETATM   12  C   UNL     1      40.786 -15.037   5.350  1.00  0.00     0.022 C 
HETATM   13  C   UNL     1      40.152 -15.837   3.054  1.00  0.00     0.039 C 
HETATM   14  C   UNL     1      40.485 -16.004   1.571  1.00  0.00     0.236 C 
ENDROOT
BRANCH  11  15
HETATM   15  C   UNL     1      42.634 -13.575   6.413  1.00  0.00    -0.052 A 
HETATM   16  C   UNL     1      44.004 -13.497   6.722  1.00  0.00     0.007 A 
HETATM   17  C   UNL     1      44.701 -12.288   6.621  1.00  0.00     0.001 A 
HETATM   18  C   UNL     1      44.042 -11.127   6.237  1.00  0.00     0.000 A 
HETATM   19  C   UNL     1      42.677 -11.165   5.980  1.00  0.00     0.001 A 
HETATM   20  C   UNL     1      41.981 -12.372   6.079  1.00  0.00     0.007 A 
ENDBRANCH  11  15
BRANCH   1  21
HETATM   21  C   UNL     1      40.154 -13.615   0.814  1.00  0.00     0.277 C 
BRANCH  21  22
HETATM   22  C   UNL     1      40.506 -12.600  -0.215  1.00  0.00     0.011 A 
HETATM   23  C   UNL     1      41.034 -11.302  -0.003  1.00  0.00     0.149 A 
HETATM   24  N   UNL     1      41.188 -10.608  -1.121  1.00  0.00    -0.185 NA
HETATM   25  N   UNL     1      40.821 -11.460  -2.089  1.00  0.00    -0.278 N 
HETATM   26  C   UNL     1      40.891 -11.034  -3.469  1.00  0.00     0.179 C 
HETATM   27  C   UNL     1      40.439 -12.692  -1.603  1.00  0.00     0.043 A 
BRANCH  27  28
HETATM   28  C   UNL     1      40.073 -13.862  -2.518  1.00  0.00     0.038 A 
HETATM   29  C   UNL     1      38.998 -14.833  -2.079  1.00  0.00     0.011 A 
HETATM   30  C   UNL     1      38.755 -13.941  -3.249  1.00  0.00     0.011 A 
ENDBRANCH  27  28
ENDBRANCH  21  22
ENDBRANCH   1  21
TORSDOF 4
ENDMDL
MODEL 6
REMARK VINA RESULT:      -7.9      3.487      7.566
REMARK  4 active torsions:
REMARK  status: ('A' for Active; 'I' for Inactive)
REMARK    1  A    between atoms: C_5  and  C_6 
REMARK    2  A    between atoms: C_6  and  N_7 
REMARK    3  A    between atoms: C_17  and  C_18 
REMARK    4  A    between atoms: C_27  and  C_28 
ROOT
HETATM    1  N   UNL     1      41.484 -10.113   4.018  1.00  0.00    -0.067 N 
HETATM    2  H   UNL     1      41.994  -9.218   4.061  1.00  0.00     0.280 HD
HETATM    3  C   UNL     1      42.354 -11.080   3.268  1.00  0.00     0.236 C 
HETATM    4  C   UNL     1      41.609 -12.374   2.939  1.00  0.00     0.039 C 
HETATM    5  C   UNL     1      40.235 -12.198   2.236  1.00  0.00    -0.013 C 
HETATM    6  C   UNL     1      40.378 -11.789   0.744  1.00  0.00     0.244 C 
HETATM    7  N   UNL     1      40.858 -12.932  -0.113  1.00  0.00    -0.073 N 
HETATM    8  H   UNL     1      41.784 -13.240   0.213  1.00  0.00     0.279 HD
HETATM    9  C   UNL     1      41.057 -12.509  -1.553  1.00  0.00     0.269 C 
HETATM   10  C   UNL     1      39.937 -14.144  -0.041  1.00  0.00     0.243 C 
HETATM   11  C   UNL     1      39.879 -14.678   1.400  1.00  0.00     0.045 C 
HETATM   12  C   UNL     1      39.404 -13.518   2.315  1.00  0.00     0.022 C 
HETATM   13  C   UNL     1      39.434 -11.102   3.004  1.00  0.00     0.039 C 
HETATM   14  C   UNL     1      40.209  -9.814   3.281  1.00  0.00     0.236 C 
ENDROOT
BRANCH  11  15
HETATM   15  C   UNL     1      41.126 -15.402   1.905  1.00  0.00    -0.052 A 
HETATM   16  C   UNL     1      42.314 -15.517   1.161  1.00  0.00     0.007 A 
HETATM   17  C   UNL     1      43.431 -16.183   1.678  1.00  0.00     0.001 A 
HETATM   18  C   UNL     1      43.377 -16.774   2.935  1.00  0.00     0.000 A 
HETATM   19  C   UNL     1      42.197 -16.722   3.667  1.00  0.00     0.001 A 
HETATM   20  C   UNL     1      41.083 -16.056   3.152  1.00  0.00     0.007 A 
ENDBRANCH  11  15
BRANCH   1  21
HETATM   21  C   UNL     1      41.255 -10.443   5.495  1.00  0.00     0.277 C 
BRANCH  21  22
HETATM   22  C   UNL     1      42.392 -10.225   6.428  1.00  0.00     0.011 A 
HETATM   23  C   UNL     1      42.610  -9.113   7.280  1.00  0.00     0.149 A 
HETATM   24  N   UNL     1      43.749  -9.181   7.952  1.00  0.00    -0.185 NA
HETATM   25  N   UNL     1      44.269 -10.365   7.599  1.00  0.00    -0.278 N 
HETATM   26  C   UNL     1      45.525 -10.787   8.178  1.00  0.00     0.179 C 
HETATM   27  C   UNL     1      43.472 -11.058   6.714  1.00  0.00     0.043 A 
BRANCH  27  28
HETATM   28  C   UNL     1      43.802 -12.475   6.241  1.00  0.00     0.038 A 
HETATM   29  C   UNL     1      43.600 -13.635   7.191  1.00  0.00     0.011 A 
HETATM   30  C   UNL     1      42.739 -13.514   5.981  1.00  0.00     0.011 A 
ENDBRANCH  27  28
ENDBRANCH  21  22
ENDBRANCH   1  21
TORSDOF 4
ENDMDL
MODEL 7
REMARK VINA RESULT:      -7.9      3.812      6.978
REMARK  4 active torsions:
REMARK  status: ('A' for Active; 'I' for Inactive)
REMARK    1  A    between atoms: C_5  and  C_6 
REMARK    2  A    between atoms: C_6  and  N_7 
REMARK    3  A    between atoms: C_17  and  C_18 
REMARK    4  A    between atoms: C_27  and  C_28 
ROOT
HETATM    1  N   UNL     1      41.265 -14.500   0.835  1.00  0.00    -0.067 N 
HETATM    2  H   UNL     1      41.594 -14.686  -0.124  1.00  0.00     0.280 HD
HETATM    3  C   UNL     1      42.477 -14.191   1.666  1.00  0.00     0.236 C 
HETATM    4  C   UNL     1      42.140 -14.123   3.155  1.00  0.00     0.039 C 
HETATM    5  C   UNL     1      41.369 -15.345   3.727  1.00  0.00    -0.013 C 
HETATM    6  C   UNL     1      42.275 -16.596   3.891  1.00  0.00     0.244 C 
HETATM    7  N   UNL     1      43.235 -16.452   5.043  1.00  0.00    -0.073 N 
HETATM    8  H   UNL     1      43.851 -15.645   4.878  1.00  0.00     0.279 HD
HETATM    9  C   UNL     1      44.158 -17.647   5.156  1.00  0.00     0.269 C 
HETATM   10  C   UNL     1      42.527 -16.205   6.369  1.00  0.00     0.243 C 
HETATM   11  C   UNL     1      41.729 -14.892   6.304  1.00  0.00     0.045 C 
HETATM   12  C   UNL     1      40.740 -14.998   5.113  1.00  0.00     0.022 C 
HETATM   13  C   UNL     1      40.195 -15.674   2.755  1.00  0.00     0.039 C 
HETATM   14  C   UNL     1      40.585 -15.764   1.280  1.00  0.00     0.236 C 
ENDROOT
BRANCH  11  15
HETATM   15  C   UNL     1      42.547 -13.601   6.323  1.00  0.00    -0.052 A 
HETATM   16  C   UNL     1      43.903 -13.544   6.691  1.00  0.00     0.007 A 
HETATM   17  C   UNL     1      44.607 -12.334   6.680  1.00  0.00     0.001 A 
HETATM   18  C   UNL     1      43.965 -11.152   6.331  1.00  0.00     0.000 A 
HETATM   19  C   UNL     1      42.612 -11.172   6.018  1.00  0.00     0.001 A 
HETATM   20  C   UNL     1      41.910 -12.380   6.026  1.00  0.00     0.007 A 
ENDBRANCH  11  15
BRANCH   1  21
HETATM   21  C   UNL     1      40.289 -13.336   0.637  1.00  0.00     0.277 C 
BRANCH  21  22
HETATM   22  C   UNL     1      40.756 -12.184  -0.179  1.00  0.00     0.011 A 
HETATM   23  C   UNL     1      40.717 -12.052  -1.589  1.00  0.00     0.149 A 
HETATM   24  N   UNL     1      41.264 -10.928  -2.028  1.00  0.00    -0.185 NA
HETATM   25  N   UNL     1      41.616 -10.277  -0.910  1.00  0.00    -0.278 N 
HETATM   26  C   UNL     1      42.232  -8.973  -1.015  1.00  0.00     0.179 C 
HETATM   27  C   UNL     1      41.295 -10.969   0.238  1.00  0.00     0.043 A 
BRANCH  27  28
HETATM   28  C   UNL     1      41.508 -10.390   1.638  1.00  0.00     0.038 A 
HETATM   29  C   UNL     1      40.492  -9.416   2.194  1.00  0.00     0.011 A 
HETATM   30  C   UNL     1      40.639 -10.764   2.813  1.00  0.00     0.011 A 
ENDBRANCH  27  28
ENDBRANCH  21  22
ENDBRANCH   1  21
TORSDOF 4
ENDMDL
MODEL 8
REMARK VINA RESULT:      -7.9      4.469      6.753
REMARK  4 active torsions:
REMARK  status: ('A' for Active; 'I' for Inactive)
REMARK    1  A    between atoms: C_5  and  C_6 
REMARK    2  A    between atoms: C_6  and  N_7 
REMARK    3  A    between atoms: C_17  and  C_18 
REMARK    4  A    between atoms: C_27  and  C_28 
ROOT
HETATM    1  N   UNL     1      41.613 -14.616   0.894  1.00  0.00    -0.067 N 
HETATM    2  H   UNL     1      41.986 -15.004   0.015  1.00  0.00     0.280 HD
HETATM    3  C   UNL     1      42.772 -14.460   1.835  1.00  0.00     0.236 C 
HETATM    4  C   UNL     1      42.311 -14.110   3.249  1.00  0.00     0.039 C 
HETATM    5  C   UNL     1      41.226 -15.043   3.853  1.00  0.00    -0.013 C 
HETATM    6  C   UNL     1      41.798 -16.423   4.278  1.00  0.00     0.244 C 
HETATM    7  N   UNL     1      42.643 -16.327   5.521  1.00  0.00    -0.073 N 
HETATM    8  H   UNL     1      43.441 -15.703   5.346  1.00  0.00     0.279 HD
HETATM    9  C   UNL     1      43.249 -17.664   5.893  1.00  0.00     0.269 C 
HETATM   10  C   UNL     1      41.879 -15.747   6.706  1.00  0.00     0.243 C 
HETATM   11  C   UNL     1      41.416 -14.316   6.385  1.00  0.00     0.045 C 
HETATM   12  C   UNL     1      40.555 -14.376   5.095  1.00  0.00     0.022 C 
HETATM   13  C   UNL     1      40.112 -15.247   2.780  1.00  0.00     0.039 C 
HETATM   14  C   UNL     1      40.618 -15.628   1.390  1.00  0.00     0.236 C 
ENDROOT
BRANCH  11  15
HETATM   15  C   UNL     1      42.503 -13.242   6.361  1.00  0.00    -0.052 A 
HETATM   16  C   UNL     1      43.836 -13.475   6.744  1.00  0.00     0.007 A 
HETATM   17  C   UNL     1      44.793 -12.455   6.692  1.00  0.00     0.001 A 
HETATM   18  C   UNL     1      44.435 -11.175   6.286  1.00  0.00     0.000 A 
HETATM   19  C   UNL     1      43.113 -10.905   5.956  1.00  0.00     0.001 A 
HETATM   20  C   UNL     1      42.157 -11.923   6.005  1.00  0.00     0.007 A 
ENDBRANCH  11  15
BRANCH   1  21
HETATM   21  C   UNL     1      40.956 -13.311   0.436  1.00  0.00     0.277 C 
BRANCH  21  22
HETATM   22  C   UNL     1      39.881 -13.409  -0.586  1.00  0.00     0.011 A 
HETATM   23  C   UNL     1      39.670 -14.452  -1.521  1.00  0.00     0.149 A 
HETATM   24  N   UNL     1      38.657 -14.225  -2.344  1.00  0.00    -0.185 NA
HETATM   25  N   UNL     1      38.149 -13.057  -1.924  1.00  0.00    -0.278 N 
HETATM   26  C   UNL     1      36.990 -12.508  -2.593  1.00  0.00     0.179 C 
HETATM   27  C   UNL     1      38.822 -12.540  -0.838  1.00  0.00     0.043 A 
BRANCH  27  28
HETATM   28  C   UNL     1      38.370 -11.268  -0.117  1.00  0.00     0.038 A 
HETATM   29  C   UNL     1      37.253 -11.355   0.901  1.00  0.00     0.011 A 
HETATM   30  C   UNL     1      38.636 -11.026   1.348  1.00  0.00     0.011 A 
ENDBRANCH  27  28
ENDBRANCH  21  22
ENDBRANCH   1  21
TORSDOF 4
ENDMDL
MODEL 9
REMARK VINA RESULT:      -7.7      1.826      2.901
REMARK  4 active torsions:
REMARK  status: ('A' for Active; 'I' for Inactive)
REMARK    1  A    between atoms: C_5  and  C_6 
REMARK    2  A    between atoms: C_6  and  N_7 
REMARK    3  A    between atoms: C_17  and  C_18 
REMARK    4  A    between atoms: C_27  and  C_28 
ROOT
HETATM    1  N   UNL     1      41.728 -15.935   2.772  1.00  0.00    -0.067 N 
HETATM    2  H   UNL     1      41.155 -16.790   2.831  1.00  0.00     0.280 HD
HETATM    3  C   UNL     1      41.528 -15.181   4.055  1.00  0.00     0.236 C 
HETATM    4  C   UNL     1      42.146 -13.785   3.993  1.00  0.00     0.039 C 
HETATM    5  C   UNL     1      41.733 -12.921   2.770  1.00  0.00    -0.013 C 
HETATM    6  C   UNL     1      40.282 -12.379   2.886  1.00  0.00     0.244 C 
HETATM    7  N   UNL     1      40.169 -11.279   3.910  1.00  0.00    -0.073 N 
HETATM    8  H   UNL     1      40.438 -11.642   4.835  1.00  0.00     0.279 HD
HETATM    9  C   UNL     1      38.740 -10.801   4.065  1.00  0.00     0.269 C 
HETATM   10  C   UNL     1      41.090 -10.103   3.611  1.00  0.00     0.243 C 
HETATM   11  C   UNL     1      42.557 -10.564   3.630  1.00  0.00     0.045 C 
HETATM   12  C   UNL     1      42.706 -11.712   2.596  1.00  0.00     0.022 C 
HETATM   13  C   UNL     1      41.860 -13.803   1.490  1.00  0.00     0.039 C 
HETATM   14  C   UNL     1      41.199 -15.178   1.587  1.00  0.00     0.236 C 
ENDROOT
BRANCH  11  15
HETATM   15  C   UNL     1      43.150 -10.879   5.003  1.00  0.00    -0.052 A 
HETATM   16  C   UNL     1      44.347 -11.593   5.189  1.00  0.00     0.007 A 
HETATM   17  C   UNL     1      44.849 -11.844   6.470  1.00  0.00     0.001 A 
HETATM   18  C   UNL     1      44.154 -11.414   7.594  1.00  0.00     0.000 A 
HETATM   19  C   UNL     1      42.941 -10.755   7.440  1.00  0.00     0.001 A 
HETATM   20  C   UNL     1      42.440 -10.502   6.160  1.00  0.00     0.007 A 
ENDBRANCH  11  15
BRANCH   1  21
HETATM   21  C   UNL     1      43.137 -16.488   2.546  1.00  0.00     0.277 C 
BRANCH  21  22
HETATM   22  C   UNL     1      43.393 -17.895   2.953  1.00  0.00     0.011 A 
HETATM   23  C   UNL     1      43.228 -19.064   2.169  1.00  0.00     0.149 A 
HETATM   24  N   UNL     1      43.482 -20.182   2.832  1.00  0.00    -0.185 NA
HETATM   25  N   UNL     1      43.876 -19.763   4.043  1.00  0.00    -0.278 N 
HETATM   26  C   UNL     1      44.266 -20.738   5.037  1.00  0.00     0.179 C 
HETATM   27  C   UNL     1      43.883 -18.389   4.159  1.00  0.00     0.043 A 
BRANCH  27  28
HETATM   28  C   UNL     1      44.388 -17.670   5.411  1.00  0.00     0.038 A 
HETATM   29  C   UNL     1      43.603 -16.496   5.955  1.00  0.00     0.011 A 
HETATM   30  C   UNL     1      43.683 -17.760   6.741  1.00  0.00     0.011 A 
ENDBRANCH  27  28
ENDBRANCH  21  22
ENDBRANCH   1  21
TORSDOF 4
ENDMDL
MODEL 10
REMARK VINA RESULT:      -7.7      3.556      7.971
REMARK  4 active torsions:
REMARK  status: ('A' for Active; 'I' for Inactive)
REMARK    1  A    between atoms: C_5  and  C_6 
REMARK    2  A    between atoms: C_6  and  N_7 
REMARK    3  A    between atoms: C_17  and  C_18 
REMARK    4  A    between atoms: C_27  and  C_28 
ROOT
HETATM    1  N   UNL     1      42.144 -10.345   4.856  1.00  0.00    -0.067 N 
HETATM    2  H   UNL     1      42.751  -9.517   4.955  1.00  0.00     0.280 HD
HETATM    3  C   UNL     1      42.849 -11.300   3.936  1.00  0.00     0.236 C 
HETATM    4  C   UNL     1      41.946 -12.464   3.529  1.00  0.00     0.039 C 
HETATM    5  C   UNL     1      40.554 -12.070   2.963  1.00  0.00    -0.013 C 
HETATM    6  C   UNL     1      40.637 -11.504   1.519  1.00  0.00     0.244 C 
HETATM    7  N   UNL     1      40.928 -12.580   0.505  1.00  0.00    -0.073 N 
HETATM    8  H   UNL     1      41.835 -13.016   0.719  1.00  0.00     0.279 HD
HETATM    9  C   UNL     1      41.071 -12.012  -0.891  1.00  0.00     0.269 C 
HETATM   10  C   UNL     1      39.888 -13.694   0.518  1.00  0.00     0.243 C 
HETATM   11  C   UNL     1      39.872 -14.385   1.892  1.00  0.00     0.045 C 
HETATM   12  C   UNL     1      39.591 -13.299   2.964  1.00  0.00     0.022 C 
HETATM   13  C   UNL     1      39.933 -10.996   3.910  1.00  0.00     0.039 C 
HETATM   14  C   UNL     1      40.861  -9.835   4.263  1.00  0.00     0.236 C 
ENDROOT
BRANCH  11  15
HETATM   15  C   UNL     1      41.065 -15.285   2.211  1.00  0.00    -0.052 A 
HETATM   16  C   UNL     1      41.195 -16.011   3.408  1.00  0.00     0.007 A 
HETATM   17  C   UNL     1      42.306 -16.828   3.643  1.00  0.00     0.001 A 
HETATM   18  C   UNL     1      43.324 -16.916   2.702  1.00  0.00     0.000 A 
HETATM   19  C   UNL     1      43.247 -16.167   1.535  1.00  0.00     0.001 A 
HETATM   20  C   UNL     1      42.137 -15.352   1.299  1.00  0.00     0.007 A 
ENDBRANCH  11  15
BRANCH   1  21
HETATM   21  C   UNL     1      41.984 -10.822   6.302  1.00  0.00     0.277 C 
BRANCH  21  22
HETATM   22  C   UNL     1      43.176 -10.734   7.187  1.00  0.00     0.011 A 
HETATM   23  C   UNL     1      44.350 -11.525   7.136  1.00  0.00     0.149 A 
HETATM   24  N   UNL     1      45.215 -11.246   8.100  1.00  0.00    -0.185 NA
HETATM   25  N   UNL     1      44.650 -10.226   8.762  1.00  0.00    -0.278 N 
HETATM   26  C   UNL     1      45.348  -9.637   9.884  1.00  0.00     0.179 C 
HETATM   27  C   UNL     1      43.437  -9.846   8.228  1.00  0.00     0.043 A 
BRANCH  27  28
HETATM   28  C   UNL     1      42.647  -8.643   8.747  1.00  0.00     0.038 A 
HETATM   29  C   UNL     1      43.184  -7.249   8.506  1.00  0.00     0.011 A 
HETATM   30  C   UNL     1      41.929  -7.685   7.830  1.00  0.00     0.011 A 
ENDBRANCH  27  28
ENDBRANCH  21  22
ENDBRANCH   1  21
TORSDOF 4
ENDMDL
