MODEL 1
REMARK VINA RESULT:      -8.9      0.000      0.000
REMARK  6 active torsions:
REMARK  status: ('A' for Active; 'I' for Inactive)
REMARK    1  A    between atoms: O_2  and  C_3 
REMARK    2  A    between atoms: C_5  and  C_6 
REMARK    3  A    between atoms: C_12  and  C_13 
REMARK       I    between atoms: C_13  and  N_14 
REMARK    4  A    between atoms: N_14  and  C_15 
REMARK    5  A    between atoms: C_15  and  C_16 
REMARK    6  A    between atoms: C_23  and  C_24 
ROOT
HETATM    1  C   UNL     1      41.179 -15.475   5.189  1.00  0.00     0.118 C 
HETATM    2  N   UNL     1      40.487 -14.498   4.330  1.00  0.00    -0.365 N 
HETATM    3  C   UNL     1      41.146 -13.381   3.908  1.00  0.00     0.138 A 
HETATM    4  N   UNL     1      42.348 -13.016   4.474  1.00  0.00    -0.240 N 
HETATM    5  N   UNL     1      42.891 -11.921   3.927  1.00  0.00    -0.181 NA
HETATM    6  C   UNL     1      41.982 -11.544   3.024  1.00  0.00     0.160 A 
HETATM    7  C   UNL     1      40.872 -12.422   2.950  1.00  0.00     0.096 A 
HETATM    8  C   UNL     1      43.010 -13.749   5.538  1.00  0.00     0.221 C 
HETATM    9  C   UNL     1      42.002 -14.692   6.226  1.00  0.00     0.066 C 
HETATM   10  H   UNL     1      39.482 -14.438   4.501  1.00  0.00     0.161 HD
ENDROOT
BRANCH   7  11
HETATM   11  C   UNL     1      39.772 -12.311   2.010  1.00  0.00     0.257 C 
HETATM   12  N   UNL     1      40.103 -11.802   0.777  1.00  0.00    -0.352 N 
HETATM   13  H   UNL     1      41.029 -11.407   0.679  1.00  0.00     0.163 HD
HETATM   14  O   UNL     1      38.623 -12.611   2.321  1.00  0.00    -0.267 OA
BRANCH  12  15
HETATM   15  C   UNL     1      39.082 -11.422  -0.168  1.00  0.00     0.161 C 
BRANCH  15  16
HETATM   16  C   UNL     1      38.908 -12.465  -1.239  1.00  0.00    -0.041 A 
HETATM   17  C   UNL     1      39.996 -13.255  -1.635  1.00  0.00     0.009 A 
HETATM   18  C   UNL     1      39.842 -14.237  -2.614  1.00  0.00     0.001 A 
HETATM   19  C   UNL     1      38.601 -14.433  -3.215  1.00  0.00     0.000 A 
HETATM   20  C   UNL     1      37.514 -13.643  -2.841  1.00  0.00     0.001 A 
HETATM   21  C   UNL     1      37.666 -12.663  -1.858  1.00  0.00     0.009 A 
ENDBRANCH  15  16
ENDBRANCH  12  15
ENDBRANCH   7  11
BRANCH   1  22
HETATM   22  C   UNL     1      41.979 -16.486   4.366  1.00  0.00    -0.033 A 
HETATM   23  C   UNL     1      42.994 -17.272   4.951  1.00  0.00     0.046 A 
HETATM   24  C   UNL     1      43.732 -18.193   4.203  1.00  0.00     0.068 A 
HETATM   25  C   UNL     1      43.476 -18.322   2.839  1.00  0.00     0.037 A 
HETATM   26  C   UNL     1      42.501 -17.537   2.228  1.00  0.00     0.003 A 
HETATM   27  C   UNL     1      41.767 -16.619   2.983  1.00  0.00     0.009 A 
BRANCH  24  28
HETATM   28  O   UNL     1      44.722 -19.006   4.680  1.00  0.00    -0.356 OA
HETATM   29  C   UNL     1      44.363 -20.346   4.990  1.00  0.00     0.210 C 
ENDBRANCH  24  28
ENDBRANCH   1  22
BRANCH   8  30
HETATM   30  C   UNL     1      43.623 -12.832   6.575  1.00  0.00     0.409 C 
HETATM   31  F   UNL     1      42.897 -11.708   6.766  1.00  0.00    -0.169 F 
HETATM   32  F   UNL     1      43.655 -13.473   7.778  1.00  0.00    -0.169 F 
HETATM   33  F   UNL     1      44.897 -12.481   6.309  1.00  0.00    -0.169 F 
ENDBRANCH   8  30
TORSDOF 6
ENDMDL
MODEL 2
REMARK VINA RESULT:      -8.6      2.356      6.818
REMARK  6 active torsions:
REMARK  status: ('A' for Active; 'I' for Inactive)
REMARK    1  A    between atoms: O_2  and  C_3 
REMARK    2  A    between atoms: C_5  and  C_6 
REMARK    3  A    between atoms: C_12  and  C_13 
REMARK       I    between atoms: C_13  and  N_14 
REMARK    4  A    between atoms: N_14  and  C_15 
REMARK    5  A    between atoms: C_15  and  C_16 
REMARK    6  A    between atoms: C_23  and  C_24 
ROOT
HETATM    1  C   UNL     1      42.161 -12.416   2.277  1.00  0.00     0.118 C 
HETATM    2  N   UNL     1      42.787 -13.171   3.377  1.00  0.00    -0.365 N 
HETATM    3  C   UNL     1      42.084 -13.408   4.521  1.00  0.00     0.138 A 
HETATM    4  N   UNL     1      40.906 -12.742   4.776  1.00  0.00    -0.240 N 
HETATM    5  N   UNL     1      40.313 -13.113   5.918  1.00  0.00    -0.181 NA
HETATM    6  C   UNL     1      41.167 -13.999   6.435  1.00  0.00     0.160 A 
HETATM    7  C   UNL     1      42.289 -14.242   5.606  1.00  0.00     0.096 A 
HETATM    8  C   UNL     1      40.314 -11.755   3.890  1.00  0.00     0.221 C 
HETATM    9  C   UNL     1      41.375 -11.247   2.893  1.00  0.00     0.066 C 
HETATM   10  H   UNL     1      43.799 -13.041   3.441  1.00  0.00     0.161 HD
ENDROOT
BRANCH   7  11
HETATM   11  C   UNL     1      43.338 -15.210   5.869  1.00  0.00     0.257 C 
HETATM   12  N   UNL     1      43.455 -16.215   4.938  1.00  0.00    -0.352 N 
HETATM   13  H   UNL     1      42.719 -16.288   4.248  1.00  0.00     0.163 HD
HETATM   14  O   UNL     1      44.033 -15.152   6.878  1.00  0.00    -0.267 OA
BRANCH  12  15
HETATM   15  C   UNL     1      44.289 -17.365   5.188  1.00  0.00     0.161 C 
BRANCH  15  16
HETATM   16  C   UNL     1      43.980 -18.486   4.233  1.00  0.00    -0.041 A 
HETATM   17  C   UNL     1      43.466 -18.203   2.959  1.00  0.00     0.009 A 
HETATM   18  C   UNL     1      43.193 -19.234   2.058  1.00  0.00     0.001 A 
HETATM   19  C   UNL     1      43.422 -20.558   2.425  1.00  0.00     0.000 A 
HETATM   20  C   UNL     1      43.919 -20.853   3.694  1.00  0.00     0.001 A 
HETATM   21  C   UNL     1      44.197 -19.823   4.595  1.00  0.00     0.009 A 
ENDBRANCH  15  16
ENDBRANCH  12  15
ENDBRANCH   7  11
BRANCH   1  22
HETATM   22  C   UNL     1      41.341 -13.328   1.361  1.00  0.00    -0.033 A 
HETATM   23  C   UNL     1      40.817 -12.862   0.137  1.00  0.00     0.046 A 
HETATM   24  C   UNL     1      40.063 -13.689  -0.700  1.00  0.00     0.068 A 
HETATM   25  C   UNL     1      39.801 -15.000  -0.306  1.00  0.00     0.037 A 
HETATM   26  C   UNL     1      40.280 -15.477   0.911  1.00  0.00     0.003 A 
HETATM   27  C   UNL     1      41.033 -14.646   1.743  1.00  0.00     0.009 A 
BRANCH  24  28
HETATM   28  O   UNL     1      39.526 -13.334  -1.906  1.00  0.00    -0.356 OA
HETATM   29  C   UNL     1      39.086 -14.389  -2.752  1.00  0.00     0.210 C 
ENDBRANCH  24  28
ENDBRANCH   1  22
BRANCH   8  30
HETATM   30  C   UNL     1      39.735 -10.577   4.646  1.00  0.00     0.409 C 
HETATM   31  F   UNL     1      40.517 -10.189   5.678  1.00  0.00    -0.169 F 
HETATM   32  F   UNL     1      39.651  -9.505   3.808  1.00  0.00    -0.169 F 
HETATM   33  F   UNL     1      38.486 -10.784   5.107  1.00  0.00    -0.169 F 
ENDBRANCH   8  30
TORSDOF 6
ENDMDL
MODEL 3
REMARK VINA RESULT:      -8.5      3.707      7.608
REMARK  6 active torsions:
REMARK  status: ('A' for Active; 'I' for Inactive)
REMARK    1  A    between atoms: O_2  and  C_3 
REMARK    2  A    between atoms: C_5  and  C_6 
REMARK    3  A    between atoms: C_12  and  C_13 
REMARK       I    between atoms: C_13  and  N_14 
REMARK    4  A    between atoms: N_14  and  C_15 
REMARK    5  A    between atoms: C_15  and  C_16 
REMARK    6  A    between atoms: C_23  and  C_24 
ROOT
HETATM    1  C   UNL     1      43.221 -14.007   2.126  1.00  0.00     0.118 C 
HETATM    2  N   UNL     1      43.685 -13.050   3.146  1.00  0.00    -0.365 N 
HETATM    3  C   UNL     1      42.804 -12.559   4.064  1.00  0.00     0.138 A 
HETATM    4  N   UNL     1      41.447 -12.733   3.903  1.00  0.00    -0.240 N 
HETATM    5  N   UNL     1      40.716 -12.231   4.907  1.00  0.00    -0.181 NA
HETATM    6  C   UNL     1      41.629 -11.671   5.703  1.00  0.00     0.160 A 
HETATM    7  C   UNL     1      42.957 -11.851   5.243  1.00  0.00     0.096 A 
HETATM    8  C   UNL     1      40.837 -13.425   2.782  1.00  0.00     0.221 C 
HETATM    9  C   UNL     1      41.847 -13.532   1.623  1.00  0.00     0.066 C 
HETATM   10  H   UNL     1      44.448 -12.449   2.830  1.00  0.00     0.161 HD
ENDROOT
BRANCH   7  11
HETATM   11  C   UNL     1      44.156 -11.423   5.940  1.00  0.00     0.257 C 
HETATM   12  N   UNL     1      44.029 -11.299   7.303  1.00  0.00    -0.352 N 
HETATM   13  H   UNL     1      43.093 -11.359   7.683  1.00  0.00     0.163 HD
HETATM   14  O   UNL     1      45.190 -11.150   5.339  1.00  0.00    -0.267 OA
BRANCH  12  15
HETATM   15  C   UNL     1      45.058 -10.665   8.090  1.00  0.00     0.161 C 
BRANCH  15  16
HETATM   16  C   UNL     1      44.471  -9.719   9.103  1.00  0.00    -0.041 A 
HETATM   17  C   UNL     1      43.952  -8.483   8.693  1.00  0.00     0.009 A 
HETATM   18  C   UNL     1      43.389  -7.605   9.621  1.00  0.00     0.001 A 
HETATM   19  C   UNL     1      43.350  -7.950  10.970  1.00  0.00     0.000 A 
HETATM   20  C   UNL     1      43.877  -9.170  11.392  1.00  0.00     0.001 A 
HETATM   21  C   UNL     1      44.436 -10.051  10.465  1.00  0.00     0.009 A 
ENDBRANCH  15  16
ENDBRANCH  12  15
ENDBRANCH   7  11
BRANCH   1  22
HETATM   22  C   UNL     1      43.251 -15.446   2.646  1.00  0.00    -0.033 A 
HETATM   23  C   UNL     1      43.478 -15.730   4.010  1.00  0.00     0.046 A 
HETATM   24  C   UNL     1      43.512 -17.043   4.488  1.00  0.00     0.068 A 
HETATM   25  C   UNL     1      43.341 -18.098   3.594  1.00  0.00     0.037 A 
HETATM   26  C   UNL     1      43.146 -17.848   2.239  1.00  0.00     0.003 A 
HETATM   27  C   UNL     1      43.113 -16.534   1.767  1.00  0.00     0.009 A 
BRANCH  24  28
HETATM   28  O   UNL     1      43.712 -17.417   5.788  1.00  0.00    -0.356 OA
HETATM   29  C   UNL     1      44.467 -16.532   6.605  1.00  0.00     0.210 C 
ENDBRANCH  24  28
ENDBRANCH   1  22
BRANCH   8  30
HETATM   30  C   UNL     1      39.584 -12.732   2.290  1.00  0.00     0.409 C 
HETATM   31  F   UNL     1      39.696 -11.385   2.310  1.00  0.00    -0.169 F 
HETATM   32  F   UNL     1      39.362 -13.077   0.989  1.00  0.00    -0.169 F 
HETATM   33  F   UNL     1      38.467 -13.080   2.960  1.00  0.00    -0.169 F 
ENDBRANCH   8  30
TORSDOF 6
ENDMDL
MODEL 4
REMARK VINA RESULT:      -8.3      4.372      7.834
REMARK  6 active torsions:
REMARK  status: ('A' for Active; 'I' for Inactive)
REMARK    1  A    between atoms: O_2  and  C_3 
REMARK    2  A    between atoms: C_5  and  C_6 
REMARK    3  A    between atoms: C_12  and  C_13 
REMARK       I    between atoms: C_13  and  N_14 
REMARK    4  A    between atoms: N_14  and  C_15 
REMARK    5  A    between atoms: C_15  and  C_16 
REMARK    6  A    between atoms: C_23  and  C_24 
ROOT
HETATM    1  C   UNL     1      41.749  -8.793   7.361  1.00  0.00     0.118 C 
HETATM    2  N   UNL     1      41.921  -9.890   6.393  1.00  0.00    -0.365 N 
HETATM    3  C   UNL     1      42.870 -10.845   6.612  1.00  0.00     0.138 A 
HETATM    4  N   UNL     1      43.838 -10.668   7.575  1.00  0.00    -0.240 N 
HETATM    5  N   UNL     1      44.671 -11.709   7.700  1.00  0.00    -0.181 NA
HETATM    6  C   UNL     1      44.257 -12.551   6.751  1.00  0.00     0.160 A 
HETATM    7  C   UNL     1      43.124 -12.079   6.042  1.00  0.00     0.096 A 
HETATM    8  C   UNL     1      43.949  -9.492   8.420  1.00  0.00     0.221 C 
HETATM    9  C   UNL     1      43.148  -8.329   7.802  1.00  0.00     0.066 C 
HETATM   10  H   UNL     1      41.706  -9.626   5.429  1.00  0.00     0.161 HD
ENDROOT
BRANCH   7  11
HETATM   11  C   UNL     1      42.408 -12.811   5.014  1.00  0.00     0.257 C 
HETATM   12  N   UNL     1      42.813 -14.113   4.831  1.00  0.00    -0.352 N 
HETATM   13  H   UNL     1      43.659 -14.399   5.304  1.00  0.00     0.163 HD
HETATM   14  O   UNL     1      41.538 -12.281   4.330  1.00  0.00    -0.267 OA
BRANCH  12  15
HETATM   15  C   UNL     1      42.356 -14.879   3.699  1.00  0.00     0.161 C 
BRANCH  15  16
HETATM   16  C   UNL     1      42.992 -16.243   3.666  1.00  0.00    -0.041 A 
HETATM   17  C   UNL     1      42.863 -17.053   2.529  1.00  0.00     0.009 A 
HETATM   18  C   UNL     1      43.464 -18.311   2.480  1.00  0.00     0.001 A 
HETATM   19  C   UNL     1      44.191 -18.778   3.573  1.00  0.00     0.000 A 
HETATM   20  C   UNL     1      44.314 -17.989   4.716  1.00  0.00     0.001 A 
HETATM   21  C   UNL     1      43.717 -16.728   4.764  1.00  0.00     0.009 A 
ENDBRANCH  15  16
ENDBRANCH  12  15
ENDBRANCH   7  11
BRANCH   1  22
HETATM   22  C   UNL     1      40.815  -9.190   8.506  1.00  0.00    -0.033 A 
HETATM   23  C   UNL     1      41.114  -8.865   9.846  1.00  0.00     0.046 A 
HETATM   24  C   UNL     1      40.267  -9.230  10.895  1.00  0.00     0.068 A 
HETATM   25  C   UNL     1      39.109  -9.954  10.615  1.00  0.00     0.037 A 
HETATM   26  C   UNL     1      38.805 -10.315   9.305  1.00  0.00     0.003 A 
HETATM   27  C   UNL     1      39.655  -9.946   8.261  1.00  0.00     0.009 A 
BRANCH  24  28
HETATM   28  O   UNL     1      40.464  -8.952  12.219  1.00  0.00    -0.356 OA
HETATM   29  C   UNL     1      41.257  -9.871  12.960  1.00  0.00     0.210 C 
ENDBRANCH  24  28
ENDBRANCH   1  22
BRANCH   8  30
HETATM   30  C   UNL     1      45.387  -9.058   8.616  1.00  0.00     0.409 C 
HETATM   31  F   UNL     1      46.172  -9.374   7.562  1.00  0.00    -0.169 F 
HETATM   32  F   UNL     1      45.434  -7.699   8.731  1.00  0.00    -0.169 F 
HETATM   33  F   UNL     1      45.956  -9.543   9.737  1.00  0.00    -0.169 F 
ENDBRANCH   8  30
TORSDOF 6
ENDMDL
MODEL 5
REMARK VINA RESULT:      -8.2      1.715      2.293
REMARK  6 active torsions:
REMARK  status: ('A' for Active; 'I' for Inactive)
REMARK    1  A    between atoms: O_2  and  C_3 
REMARK    2  A    between atoms: C_5  and  C_6 
REMARK    3  A    between atoms: C_12  and  C_13 
REMARK       I    between atoms: C_13  and  N_14 
REMARK    4  A    between atoms: N_14  and  C_15 
REMARK    5  A    between atoms: C_15  and  C_16 
REMARK    6  A    between atoms: C_23  and  C_24 
ROOT
HETATM    1  C   UNL     1      41.005 -15.581   4.689  1.00  0.00     0.118 C 
HETATM    2  N   UNL     1      40.571 -15.218   3.328  1.00  0.00    -0.365 N 
HETATM    3  C   UNL     1      41.197 -14.204   2.665  1.00  0.00     0.138 A 
HETATM    4  N   UNL     1      42.046 -13.346   3.329  1.00  0.00    -0.240 N 
HETATM    5  N   UNL     1      42.616 -12.430   2.536  1.00  0.00    -0.181 NA
HETATM    6  C   UNL     1      42.072 -12.675   1.342  1.00  0.00     0.160 A 
HETATM    7  C   UNL     1      41.186 -13.781   1.349  1.00  0.00     0.096 A 
HETATM    8  C   UNL     1      42.347 -13.426   4.748  1.00  0.00     0.221 C 
HETATM    9  C   UNL     1      41.279 -14.279   5.460  1.00  0.00     0.066 C 
HETATM   10  H   UNL     1      39.575 -15.372   3.159  1.00  0.00     0.161 HD
ENDROOT
BRANCH   7  11
HETATM   11  C   UNL     1      40.513 -14.328   0.185  1.00  0.00     0.257 C 
HETATM   12  N   UNL     1      40.771 -13.682  -1.000  1.00  0.00    -0.352 N 
HETATM   13  H   UNL     1      41.269 -12.804  -0.943  1.00  0.00     0.163 HD
HETATM   14  O   UNL     1      39.734 -15.272   0.273  1.00  0.00    -0.267 OA
BRANCH  12  15
HETATM   15  C   UNL     1      39.999 -13.966  -2.184  1.00  0.00     0.161 C 
BRANCH  15  16
HETATM   16  C   UNL     1      39.039 -12.850  -2.496  1.00  0.00    -0.041 A 
HETATM   17  C   UNL     1      39.523 -11.589  -2.872  1.00  0.00     0.009 A 
HETATM   18  C   UNL     1      38.642 -10.552  -3.181  1.00  0.00     0.001 A 
HETATM   19  C   UNL     1      37.267 -10.761  -3.105  1.00  0.00     0.000 A 
HETATM   20  C   UNL     1      36.772 -12.006  -2.717  1.00  0.00     0.001 A 
HETATM   21  C   UNL     1      37.652 -13.046  -2.413  1.00  0.00     0.009 A 
ENDBRANCH  15  16
ENDBRANCH  12  15
ENDBRANCH   7  11
BRANCH   1  22
HETATM   22  C   UNL     1      42.172 -16.570   4.665  1.00  0.00    -0.033 A 
HETATM   23  C   UNL     1      42.520 -17.268   3.489  1.00  0.00     0.046 A 
HETATM   24  C   UNL     1      43.582 -18.177   3.463  1.00  0.00     0.068 A 
HETATM   25  C   UNL     1      44.300 -18.418   4.633  1.00  0.00     0.037 A 
HETATM   26  C   UNL     1      43.958 -17.767   5.815  1.00  0.00     0.003 A 
HETATM   27  C   UNL     1      42.897 -16.859   5.834  1.00  0.00     0.009 A 
BRANCH  24  28
HETATM   28  O   UNL     1      44.002 -18.889   2.374  1.00  0.00    -0.356 OA
HETATM   29  C   UNL     1      43.307 -20.095   2.086  1.00  0.00     0.210 C 
ENDBRANCH  24  28
ENDBRANCH   1  22
BRANCH   8  30
HETATM   30  C   UNL     1      42.411 -12.060   5.400  1.00  0.00     0.409 C 
HETATM   31  F   UNL     1      41.383 -11.263   5.033  1.00  0.00    -0.169 F 
HETATM   32  F   UNL     1      42.316 -12.205   6.753  1.00  0.00    -0.169 F 
HETATM   33  F   UNL     1      43.566 -11.402   5.178  1.00  0.00    -0.169 F 
ENDBRANCH   8  30
TORSDOF 6
ENDMDL
MODEL 6
REMARK VINA RESULT:      -7.9      3.740      7.983
REMARK  6 active torsions:
REMARK  status: ('A' for Active; 'I' for Inactive)
REMARK    1  A    between atoms: O_2  and  C_3 
REMARK    2  A    between atoms: C_5  and  C_6 
REMARK    3  A    between atoms: C_12  and  C_13 
REMARK       I    between atoms: C_13  and  N_14 
REMARK    4  A    between atoms: N_14  and  C_15 
REMARK    5  A    between atoms: C_15  and  C_16 
REMARK    6  A    between atoms: C_23  and  C_24 
ROOT
HETATM    1  C   UNL     1      40.534 -14.610   5.715  1.00  0.00     0.118 C 
HETATM    2  N   UNL     1      40.993 -13.311   6.235  1.00  0.00    -0.365 N 
HETATM    3  C   UNL     1      42.322 -13.103   6.461  1.00  0.00     0.138 A 
HETATM    4  N   UNL     1      43.211 -14.156   6.460  1.00  0.00    -0.240 N 
HETATM    5  N   UNL     1      44.484 -13.788   6.655  1.00  0.00    -0.181 NA
HETATM    6  C   UNL     1      44.398 -12.469   6.841  1.00  0.00     0.160 A 
HETATM    7  C   UNL     1      43.077 -11.973   6.719  1.00  0.00     0.096 A 
HETATM    8  C   UNL     1      42.839 -15.541   6.233  1.00  0.00     0.221 C 
HETATM    9  C   UNL     1      41.322 -15.715   6.439  1.00  0.00     0.066 C 
HETATM   10  H   UNL     1      40.316 -12.848   6.844  1.00  0.00     0.161 HD
ENDROOT
BRANCH   7  11
HETATM   11  C   UNL     1      42.691 -10.575   6.792  1.00  0.00     0.257 C 
HETATM   12  N   UNL     1      43.482  -9.790   7.596  1.00  0.00    -0.352 N 
HETATM   13  H   UNL     1      44.154 -10.266   8.183  1.00  0.00     0.163 HD
HETATM   14  O   UNL     1      41.700 -10.147   6.208  1.00  0.00    -0.267 OA
BRANCH  12  15
HETATM   15  C   UNL     1      43.085  -8.448   7.945  1.00  0.00     0.161 C 
BRANCH  15  16
HETATM   16  C   UNL     1      43.083  -8.245   9.436  1.00  0.00    -0.041 A 
HETATM   17  C   UNL     1      43.755  -9.150  10.270  1.00  0.00     0.009 A 
HETATM   18  C   UNL     1      43.775  -8.961  11.653  1.00  0.00     0.001 A 
HETATM   19  C   UNL     1      43.114  -7.872  12.216  1.00  0.00     0.000 A 
HETATM   20  C   UNL     1      42.430  -6.973  11.399  1.00  0.00     0.001 A 
HETATM   21  C   UNL     1      42.413  -7.158  10.015  1.00  0.00     0.009 A 
ENDBRANCH  15  16
ENDBRANCH  12  15
ENDBRANCH   7  11
BRANCH   1  22
HETATM   22  C   UNL     1      40.609 -14.666   4.187  1.00  0.00    -0.033 A 
HETATM   23  C   UNL     1      40.687 -13.489   3.412  1.00  0.00     0.046 A 
HETATM   24  C   UNL     1      40.751 -13.534   2.017  1.00  0.00     0.068 A 
HETATM   25  C   UNL     1      40.711 -14.770   1.373  1.00  0.00     0.037 A 
HETATM   26  C   UNL     1      40.603 -15.945   2.111  1.00  0.00     0.003 A 
HETATM   27  C   UNL     1      40.541 -15.893   3.506  1.00  0.00     0.009 A 
BRANCH  24  28
HETATM   28  O   UNL     1      40.840 -12.455   1.182  1.00  0.00    -0.356 OA
HETATM   29  C   UNL     1      40.758 -12.710  -0.214  1.00  0.00     0.210 C 
ENDBRANCH  24  28
ENDBRANCH   1  22
BRANCH   8  30
HETATM   30  C   UNL     1      43.579 -16.493   7.149  1.00  0.00     0.409 C 
HETATM   31  F   UNL     1      44.901 -16.555   6.873  1.00  0.00    -0.169 F 
HETATM   32  F   UNL     1      43.479 -16.048   8.434  1.00  0.00    -0.169 F 
HETATM   33  F   UNL     1      43.082 -17.746   7.153  1.00  0.00    -0.169 F 
ENDBRANCH   8  30
TORSDOF 6
ENDMDL
MODEL 7
REMARK VINA RESULT:      -7.9      1.523      2.228
REMARK  6 active torsions:
REMARK  status: ('A' for Active; 'I' for Inactive)
REMARK    1  A    between atoms: O_2  and  C_3 
REMARK    2  A    between atoms: C_5  and  C_6 
REMARK    3  A    between atoms: C_12  and  C_13 
REMARK       I    between atoms: C_13  and  N_14 
REMARK    4  A    between atoms: N_14  and  C_15 
REMARK    5  A    between atoms: C_15  and  C_16 
REMARK    6  A    between atoms: C_23  and  C_24 
ROOT
HETATM    1  C   UNL     1      42.103 -14.106   6.301  1.00  0.00     0.118 C 
HETATM    2  N   UNL     1      41.225 -13.259   5.475  1.00  0.00    -0.365 N 
HETATM    3  C   UNL     1      41.767 -12.291   4.682  1.00  0.00     0.138 A 
HETATM    4  N   UNL     1      43.084 -11.915   4.829  1.00  0.00    -0.240 N 
HETATM    5  N   UNL     1      43.481 -10.984   3.952  1.00  0.00    -0.181 NA
HETATM    6  C   UNL     1      42.369 -10.718   3.262  1.00  0.00     0.160 A 
HETATM    7  C   UNL     1      41.263 -11.510   3.658  1.00  0.00     0.096 A 
HETATM    8  C   UNL     1      43.994 -12.484   5.807  1.00  0.00     0.221 C 
HETATM    9  C   UNL     1      43.192 -13.205   6.908  1.00  0.00     0.066 C 
HETATM   10  H   UNL     1      40.304 -13.095   5.888  1.00  0.00     0.161 HD
ENDROOT
BRANCH   7  11
HETATM   11  C   UNL     1      39.952 -11.498   3.036  1.00  0.00     0.257 C 
HETATM   12  N   UNL     1      39.934 -11.817   1.698  1.00  0.00    -0.352 N 
HETATM   13  H   UNL     1      40.828 -11.878   1.231  1.00  0.00     0.163 HD
HETATM   14  O   UNL     1      38.944 -11.178   3.658  1.00  0.00    -0.267 OA
BRANCH  12  15
HETATM   15  C   UNL     1      38.747 -11.620   0.904  1.00  0.00     0.161 C 
BRANCH  15  16
HETATM   16  C   UNL     1      38.737 -12.518  -0.303  1.00  0.00    -0.041 A 
HETATM   17  C   UNL     1      39.662 -13.567  -0.407  1.00  0.00     0.009 A 
HETATM   18  C   UNL     1      39.651 -14.417  -1.514  1.00  0.00     0.001 A 
HETATM   19  C   UNL     1      38.722 -14.221  -2.533  1.00  0.00     0.000 A 
HETATM   20  C   UNL     1      37.807 -13.172  -2.449  1.00  0.00     0.001 A 
HETATM   21  C   UNL     1      37.814 -12.323  -1.340  1.00  0.00     0.009 A 
ENDBRANCH  15  16
ENDBRANCH  12  15
ENDBRANCH   7  11
BRANCH   1  22
HETATM   22  C   UNL     1      42.630 -15.309   5.516  1.00  0.00    -0.033 A 
HETATM   23  C   UNL     1      42.044 -15.703   4.294  1.00  0.00     0.046 A 
HETATM   24  C   UNL     1      42.518 -16.804   3.576  1.00  0.00     0.068 A 
HETATM   25  C   UNL     1      43.579 -17.547   4.090  1.00  0.00     0.037 A 
HETATM   26  C   UNL     1      44.156 -17.199   5.308  1.00  0.00     0.003 A 
HETATM   27  C   UNL     1      43.679 -16.097   6.021  1.00  0.00     0.009 A 
BRANCH  24  28
HETATM   28  O   UNL     1      42.027 -17.254   2.382  1.00  0.00    -0.356 OA
HETATM   29  C   UNL     1      41.037 -16.453   1.748  1.00  0.00     0.210 C 
ENDBRANCH  24  28
ENDBRANCH   1  22
BRANCH   8  30
HETATM   30  C   UNL     1      44.884 -11.436   6.443  1.00  0.00     0.409 C 
HETATM   31  F   UNL     1      45.903 -11.063   5.636  1.00  0.00    -0.169 F 
HETATM   32  F   UNL     1      44.153 -10.309   6.678  1.00  0.00    -0.169 F 
HETATM   33  F   UNL     1      45.393 -11.802   7.636  1.00  0.00    -0.169 F 
ENDBRANCH   8  30
TORSDOF 6
ENDMDL
MODEL 8
REMARK VINA RESULT:      -7.8     15.841     17.810
REMARK  6 active torsions:
REMARK  status: ('A' for Active; 'I' for Inactive)
REMARK    1  A    between atoms: O_2  and  C_3 
REMARK    2  A    between atoms: C_5  and  C_6 
REMARK    3  A    between atoms: C_12  and  C_13 
REMARK       I    between atoms: C_13  and  N_14 
REMARK    4  A    between atoms: N_14  and  C_15 
REMARK    5  A    between atoms: C_15  and  C_16 
REMARK    6  A    between atoms: C_23  and  C_24 
ROOT
HETATM    1  C   UNL     1      46.741 -27.970  -0.685  1.00  0.00     0.118 C 
HETATM    2  N   UNL     1      45.654 -28.283   0.259  1.00  0.00    -0.365 N 
HETATM    3  C   UNL     1      44.804 -29.317  -0.005  1.00  0.00     0.138 A 
HETATM    4  N   UNL     1      44.777 -29.907  -1.250  1.00  0.00    -0.240 N 
HETATM    5  N   UNL     1      43.922 -30.933  -1.341  1.00  0.00    -0.181 NA
HETATM    6  C   UNL     1      43.346 -30.963  -0.137  1.00  0.00     0.160 A 
HETATM    7  C   UNL     1      43.862 -29.988   0.752  1.00  0.00     0.096 A 
HETATM    8  C   UNL     1      45.613 -29.503  -2.367  1.00  0.00     0.221 C 
HETATM    9  C   UNL     1      46.179 -28.092  -2.111  1.00  0.00     0.066 C 
HETATM   10  H   UNL     1      45.292 -27.466   0.755  1.00  0.00     0.161 HD
ENDROOT
BRANCH   7  11
HETATM   11  C   UNL     1      43.486 -29.836   2.146  1.00  0.00     0.257 C 
HETATM   12  N   UNL     1      42.333 -30.487   2.517  1.00  0.00    -0.352 N 
HETATM   13  H   UNL     1      41.769 -30.878   1.774  1.00  0.00     0.163 HD
HETATM   14  O   UNL     1      44.133 -29.135   2.917  1.00  0.00    -0.267 OA
BRANCH  12  15
HETATM   15  C   UNL     1      41.719 -30.237   3.797  1.00  0.00     0.161 C 
BRANCH  15  16
HETATM   16  C   UNL     1      40.714 -31.303   4.142  1.00  0.00    -0.041 A 
HETATM   17  C   UNL     1      40.390 -31.557   5.482  1.00  0.00     0.009 A 
HETATM   18  C   UNL     1      39.446 -32.531   5.813  1.00  0.00     0.001 A 
HETATM   19  C   UNL     1      38.824 -33.267   4.807  1.00  0.00     0.000 A 
HETATM   20  C   UNL     1      39.148 -33.034   3.471  1.00  0.00     0.001 A 
HETATM   21  C   UNL     1      40.089 -32.058   3.139  1.00  0.00     0.009 A 
ENDBRANCH  15  16
ENDBRANCH  12  15
ENDBRANCH   7  11
BRANCH   1  22
HETATM   22  C   UNL     1      47.987 -28.816  -0.413  1.00  0.00    -0.033 A 
HETATM   23  C   UNL     1      48.926 -29.091  -1.430  1.00  0.00     0.046 A 
HETATM   24  C   UNL     1      50.062 -29.868  -1.188  1.00  0.00     0.068 A 
HETATM   25  C   UNL     1      50.262 -30.405   0.083  1.00  0.00     0.037 A 
HETATM   26  C   UNL     1      49.336 -30.176   1.097  1.00  0.00     0.003 A 
HETATM   27  C   UNL     1      48.202 -29.398   0.848  1.00  0.00     0.009 A 
BRANCH  24  28
HETATM   28  O   UNL     1      51.031 -30.178  -2.101  1.00  0.00    -0.356 OA
HETATM   29  C   UNL     1      51.860 -31.296  -1.808  1.00  0.00     0.210 C 
ENDBRANCH  24  28
ENDBRANCH   1  22
BRANCH   8  30
HETATM   30  C   UNL     1      44.860 -29.509  -3.681  1.00  0.00     0.409 C 
HETATM   31  F   UNL     1      43.553 -29.197  -3.530  1.00  0.00    -0.169 F 
HETATM   32  F   UNL     1      45.386 -28.557  -4.503  1.00  0.00    -0.169 F 
HETATM   33  F   UNL     1      44.948 -30.671  -4.357  1.00  0.00    -0.169 F 
ENDBRANCH   8  30
TORSDOF 6
ENDMDL
MODEL 9
REMARK VINA RESULT:      -7.7      3.394      6.271
REMARK  6 active torsions:
REMARK  status: ('A' for Active; 'I' for Inactive)
REMARK    1  A    between atoms: O_2  and  C_3 
REMARK    2  A    between atoms: C_5  and  C_6 
REMARK    3  A    between atoms: C_12  and  C_13 
REMARK       I    between atoms: C_13  and  N_14 
REMARK    4  A    between atoms: N_14  and  C_15 
REMARK    5  A    between atoms: C_15  and  C_16 
REMARK    6  A    between atoms: C_23  and  C_24 
ROOT
HETATM    1  C   UNL     1      39.639 -14.980   1.963  1.00  0.00     0.118 C 
HETATM    2  N   UNL     1      39.813 -14.223   3.216  1.00  0.00    -0.365 N 
HETATM    3  C   UNL     1      41.042 -14.161   3.803  1.00  0.00     0.138 A 
HETATM    4  N   UNL     1      42.060 -14.995   3.399  1.00  0.00    -0.240 N 
HETATM    5  N   UNL     1      43.217 -14.786   4.041  1.00  0.00    -0.181 NA
HETATM    6  C   UNL     1      42.912 -13.828   4.920  1.00  0.00     0.160 A 
HETATM    7  C   UNL     1      41.572 -13.381   4.816  1.00  0.00     0.096 A 
HETATM    8  C   UNL     1      41.936 -15.992   2.350  1.00  0.00     0.221 C 
HETATM    9  C   UNL     1      40.446 -16.283   2.083  1.00  0.00     0.066 C 
HETATM   10  H   UNL     1      38.984 -14.219   3.813  1.00  0.00     0.161 HD
ENDROOT
BRANCH   7  11
HETATM   11  C   UNL     1      40.982 -12.299   5.584  1.00  0.00     0.257 C 
HETATM   12  N   UNL     1      39.612 -12.210   5.514  1.00  0.00    -0.352 N 
HETATM   13  H   UNL     1      39.150 -12.789   4.826  1.00  0.00     0.163 HD
HETATM   14  O   UNL     1      41.672 -11.500   6.209  1.00  0.00    -0.267 OA
BRANCH  12  15
HETATM   15  C   UNL     1      38.917 -11.057   6.030  1.00  0.00     0.161 C 
BRANCH  15  16
HETATM   16  C   UNL     1      38.547 -10.099   4.930  1.00  0.00    -0.041 A 
HETATM   17  C   UNL     1      38.647 -10.496   3.589  1.00  0.00     0.009 A 
HETATM   18  C   UNL     1      38.290  -9.623   2.561  1.00  0.00     0.001 A 
HETATM   19  C   UNL     1      37.839  -8.340   2.863  1.00  0.00     0.000 A 
HETATM   20  C   UNL     1      37.749  -7.928   4.192  1.00  0.00     0.001 A 
HETATM   21  C   UNL     1      38.102  -8.802   5.222  1.00  0.00     0.009 A 
ENDBRANCH  15  16
ENDBRANCH  12  15
ENDBRANCH   7  11
BRANCH   1  22
HETATM   22  C   UNL     1      39.974 -14.128   0.737  1.00  0.00    -0.033 A 
HETATM   23  C   UNL     1      39.754 -14.606  -0.573  1.00  0.00     0.046 A 
HETATM   24  C   UNL     1      40.064 -13.834  -1.695  1.00  0.00     0.068 A 
HETATM   25  C   UNL     1      40.625 -12.571  -1.520  1.00  0.00     0.037 A 
HETATM   26  C   UNL     1      40.881 -12.086  -0.240  1.00  0.00     0.003 A 
HETATM   27  C   UNL     1      40.569 -12.862   0.879  1.00  0.00     0.009 A 
BRANCH  24  28
HETATM   28  O   UNL     1      39.877 -14.204  -2.999  1.00  0.00    -0.356 OA
HETATM   29  C   UNL     1      38.550 -14.528  -3.393  1.00  0.00     0.210 C 
ENDBRANCH  24  28
ENDBRANCH   1  22
BRANCH   8  30
HETATM   30  C   UNL     1      42.643 -17.285   2.698  1.00  0.00     0.409 C 
HETATM   31  F   UNL     1      42.091 -18.357   2.086  1.00  0.00    -0.169 F 
HETATM   32  F   UNL     1      43.934 -17.221   2.263  1.00  0.00    -0.169 F 
HETATM   33  F   UNL     1      42.709 -17.533   4.021  1.00  0.00    -0.169 F 
ENDBRANCH   8  30
TORSDOF 6
ENDMDL
MODEL 10
REMARK VINA RESULT:      -7.7      1.423      2.208
REMARK  6 active torsions:
REMARK  status: ('A' for Active; 'I' for Inactive)
REMARK    1  A    between atoms: O_2  and  C_3 
REMARK    2  A    between atoms: C_5  and  C_6 
REMARK    3  A    between atoms: C_12  and  C_13 
REMARK       I    between atoms: C_13  and  N_14 
REMARK    4  A    between atoms: N_14  and  C_15 
REMARK    5  A    between atoms: C_15  and  C_16 
REMARK    6  A    between atoms: C_23  and  C_24 
ROOT
HETATM    1  C   UNL     1      41.318 -15.499   4.558  1.00  0.00     0.118 C 
HETATM    2  N   UNL     1      40.996 -14.414   3.615  1.00  0.00    -0.365 N 
HETATM    3  C   UNL     1      41.856 -13.366   3.468  1.00  0.00     0.138 A 
HETATM    4  N   UNL     1      42.886 -13.169   4.362  1.00  0.00    -0.240 N 
HETATM    5  N   UNL     1      43.669 -12.125   4.062  1.00  0.00    -0.181 NA
HETATM    6  C   UNL     1      43.088 -11.607   2.976  1.00  0.00     0.160 A 
HETATM    7  C   UNL     1      41.958 -12.343   2.543  1.00  0.00     0.096 A 
HETATM    8  C   UNL     1      43.149 -14.019   5.510  1.00  0.00     0.221 C 
HETATM    9  C   UNL     1      41.899 -14.862   5.831  1.00  0.00     0.066 C 
HETATM   10  H   UNL     1      39.994 -14.242   3.512  1.00  0.00     0.161 HD
ENDROOT
BRANCH   7  11
HETATM   11  C   UNL     1      41.178 -12.066   1.351  1.00  0.00     0.257 C 
HETATM   12  N   UNL     1      40.103 -12.898   1.146  1.00  0.00    -0.352 N 
HETATM   13  H   UNL     1      40.037 -13.714   1.740  1.00  0.00     0.163 HD
HETATM   14  O   UNL     1      41.493 -11.178   0.564  1.00  0.00    -0.267 OA
BRANCH  12  15
HETATM   15  C   UNL     1      39.385 -12.889  -0.104  1.00  0.00     0.161 C 
BRANCH  15  16
HETATM   16  C   UNL     1      38.306 -11.840  -0.111  1.00  0.00    -0.041 A 
HETATM   17  C   UNL     1      37.918 -11.237  -1.315  1.00  0.00     0.009 A 
HETATM   18  C   UNL     1      36.907 -10.276  -1.336  1.00  0.00     0.001 A 
HETATM   19  C   UNL     1      36.280  -9.899  -0.150  1.00  0.00     0.000 A 
HETATM   20  C   UNL     1      36.667 -10.480   1.057  1.00  0.00     0.001 A 
HETATM   21  C   UNL     1      37.676 -11.445   1.078  1.00  0.00     0.009 A 
ENDBRANCH  15  16
ENDBRANCH  12  15
ENDBRANCH   7  11
BRANCH   1  22
HETATM   22  C   UNL     1      42.207 -16.564   3.911  1.00  0.00    -0.033 A 
HETATM   23  C   UNL     1      42.996 -17.436   4.691  1.00  0.00     0.046 A 
HETATM   24  C   UNL     1      43.813 -18.407   4.105  1.00  0.00     0.068 A 
HETATM   25  C   UNL     1      43.869 -18.500   2.715  1.00  0.00     0.037 A 
HETATM   26  C   UNL     1      43.125 -17.632   1.921  1.00  0.00     0.003 A 
HETATM   27  C   UNL     1      42.310 -16.665   2.513  1.00  0.00     0.009 A 
BRANCH  24  28
HETATM   28  O   UNL     1      44.601 -19.302   4.773  1.00  0.00    -0.356 OA
HETATM   29  C   UNL     1      43.937 -20.279   5.565  1.00  0.00     0.210 C 
ENDBRANCH  24  28
ENDBRANCH   1  22
BRANCH   8  30
HETATM   30  C   UNL     1      43.543 -13.223   6.737  1.00  0.00     0.409 C 
HETATM   31  F   UNL     1      44.837 -12.835   6.709  1.00  0.00    -0.169 F 
HETATM   32  F   UNL     1      42.803 -12.078   6.786  1.00  0.00    -0.169 F 
HETATM   33  F   UNL     1      43.311 -13.862   7.901  1.00  0.00    -0.169 F 
ENDBRANCH   8  30
TORSDOF 6
ENDMDL
