MODEL 1
REMARK VINA RESULT:      -8.4      0.000      0.000
REMARK  4 active torsions:
REMARK  status: ('A' for Active; 'I' for Inactive)
REMARK    1  A    between atoms: C_3  and  N_4 
REMARK       I    between atoms: N_4  and  C_5 
REMARK    2  A    between atoms: C_5  and  C_6 
REMARK    3  A    between atoms: C_7  and  C_8 
REMARK    4  A    between atoms: C_16  and  C_17 
ROOT
HETATM    1  C   UNL     1      43.695 -15.936   5.461  1.00  0.00     0.003 A 
HETATM    2  C   UNL     1      42.975 -15.113   4.595  1.00  0.00     0.029 A 
HETATM    3  C   UNL     1      42.488 -15.617   3.390  1.00  0.00     0.035 A 
HETATM    4  C   UNL     1      42.741 -16.959   3.062  1.00  0.00     0.042 A 
HETATM    5  C   UNL     1      43.468 -17.801   3.921  1.00  0.00    -0.021 A 
HETATM    6  C   UNL     1      43.938 -17.271   5.129  1.00  0.00     0.012 A 
ENDROOT
BRANCH   3   7
HETATM    7  N   UNL     1      41.722 -14.864   2.476  1.00  0.00    -0.327 N 
HETATM    8  C   UNL     1      40.391 -15.032   2.155  1.00  0.00     0.227 C 
HETATM    9  O   UNL     1      39.601 -15.818   2.657  1.00  0.00    -0.273 OA
HETATM   10  H   UNL     1      42.215 -14.129   1.988  1.00  0.00     0.169 HD
BRANCH   8  11
HETATM   11  C   UNL     1      39.937 -14.137   1.047  1.00  0.00     0.089 A 
HETATM   12  C   UNL     1      40.247 -14.499  -0.398  1.00  0.00     0.057 A 
HETATM   13  C   UNL     1      40.952 -13.344   0.281  1.00  0.00     0.027 A 
BRANCH  12  14
HETATM   14  C   UNL     1      39.204 -14.162  -1.446  1.00  0.00     0.057 A 
HETATM   15  O   UNL     1      38.387 -13.072  -1.401  1.00  0.00    -0.327 OA
HETATM   16  C   UNL     1      37.609 -13.111  -2.513  1.00  0.00     0.142 A 
HETATM   17  C   UNL     1      37.912 -14.216  -3.272  1.00  0.00     0.027 A 
HETATM   18  C   UNL     1      38.943 -14.900  -2.581  1.00  0.00     0.035 A 
ENDBRANCH  12  14
ENDBRANCH   8  11
ENDBRANCH   3   7
BRANCH   5  19
HETATM   19  C   UNL     1      43.710 -19.192   3.555  1.00  0.00     0.010 A 
HETATM   20  C   UNL     1      43.618 -19.851   2.303  1.00  0.00     0.152 A 
HETATM   21  N   UNL     1      43.932 -21.148   2.369  1.00  0.00    -0.187 NA
HETATM   22  N   UNL     1      44.225 -21.331   3.664  1.00  0.00    -0.289 N 
HETATM   23  H   UNL     1      44.499 -22.259   3.970  1.00  0.00     0.188 HD
HETATM   24  C   UNL     1      44.111 -20.195   4.413  1.00  0.00     0.123 A 
ENDBRANCH   5  19
TORSDOF 4
ENDMDL
MODEL 2
REMARK VINA RESULT:      -8.1      2.266      3.316
REMARK  4 active torsions:
REMARK  status: ('A' for Active; 'I' for Inactive)
REMARK    1  A    between atoms: C_3  and  N_4 
REMARK       I    between atoms: N_4  and  C_5 
REMARK    2  A    between atoms: C_5  and  C_6 
REMARK    3  A    between atoms: C_7  and  C_8 
REMARK    4  A    between atoms: C_16  and  C_17 
ROOT
HETATM    1  C   UNL     1      43.804 -18.457   3.150  1.00  0.00     0.003 A 
HETATM    2  C   UNL     1      42.910 -17.818   2.290  1.00  0.00     0.029 A 
HETATM    3  C   UNL     1      42.124 -16.763   2.752  1.00  0.00     0.035 A 
HETATM    4  C   UNL     1      42.243 -16.364   4.094  1.00  0.00     0.042 A 
HETATM    5  C   UNL     1      43.136 -16.999   4.974  1.00  0.00    -0.021 A 
HETATM    6  C   UNL     1      43.919 -18.050   4.481  1.00  0.00     0.012 A 
ENDROOT
BRANCH   3   7
HETATM    7  N   UNL     1      41.223 -16.041   1.943  1.00  0.00    -0.327 N 
HETATM    8  C   UNL     1      41.361 -14.750   1.476  1.00  0.00     0.227 C 
HETATM    9  O   UNL     1      42.326 -14.011   1.612  1.00  0.00    -0.273 OA
HETATM   10  H   UNL     1      40.371 -16.523   1.694  1.00  0.00     0.169 HD
BRANCH   8  11
HETATM   11  C   UNL     1      40.151 -14.257   0.750  1.00  0.00     0.089 A 
HETATM   12  C   UNL     1      40.305 -13.537  -0.581  1.00  0.00     0.057 A 
HETATM   13  C   UNL     1      39.895 -12.783   0.666  1.00  0.00     0.027 A 
BRANCH  12  14
HETATM   14  C   UNL     1      39.240 -13.775  -1.636  1.00  0.00     0.057 A 
HETATM   15  O   UNL     1      38.049 -13.114  -1.693  1.00  0.00    -0.327 OA
HETATM   16  C   UNL     1      37.382 -13.591  -2.775  1.00  0.00     0.142 A 
HETATM   17  C   UNL     1      38.127 -14.555  -3.413  1.00  0.00     0.027 A 
HETATM   18  C   UNL     1      39.330 -14.676  -2.674  1.00  0.00     0.035 A 
ENDBRANCH  12  14
ENDBRANCH   8  11
ENDBRANCH   3   7
BRANCH   5  19
HETATM   19  C   UNL     1      43.240 -16.558   6.360  1.00  0.00     0.010 A 
HETATM   20  C   UNL     1      42.873 -15.333   6.974  1.00  0.00     0.152 A 
HETATM   21  N   UNL     1      43.121 -15.311   8.286  1.00  0.00    -0.187 NA
HETATM   22  N   UNL     1      43.650 -16.519   8.524  1.00  0.00    -0.289 N 
HETATM   23  H   UNL     1      43.927 -16.745   9.474  1.00  0.00     0.188 HD
HETATM   24  C   UNL     1      43.741 -17.302   7.409  1.00  0.00     0.123 A 
ENDBRANCH   5  19
TORSDOF 4
ENDMDL
MODEL 3
REMARK VINA RESULT:      -7.9      1.629      1.933
REMARK  4 active torsions:
REMARK  status: ('A' for Active; 'I' for Inactive)
REMARK    1  A    between atoms: C_3  and  N_4 
REMARK       I    between atoms: N_4  and  C_5 
REMARK    2  A    between atoms: C_5  and  C_6 
REMARK    3  A    between atoms: C_7  and  C_8 
REMARK    4  A    between atoms: C_16  and  C_17 
ROOT
HETATM    1  C   UNL     1      43.363 -15.780   5.119  1.00  0.00     0.003 A 
HETATM    2  C   UNL     1      42.893 -15.048   4.027  1.00  0.00     0.029 A 
HETATM    3  C   UNL     1      42.684 -15.675   2.800  1.00  0.00     0.035 A 
HETATM    4  C   UNL     1      42.962 -17.047   2.681  1.00  0.00     0.042 A 
HETATM    5  C   UNL     1      43.439 -17.798   3.769  1.00  0.00    -0.021 A 
HETATM    6  C   UNL     1      43.632 -17.144   4.992  1.00  0.00     0.012 A 
ENDROOT
BRANCH   3   7
HETATM    7  N   UNL     1      42.179 -15.019   1.658  1.00  0.00    -0.327 N 
HETATM    8  C   UNL     1      40.909 -15.114   1.126  1.00  0.00     0.227 C 
HETATM    9  O   UNL     1      39.957 -15.726   1.587  1.00  0.00    -0.273 OA
HETATM   10  H   UNL     1      42.832 -14.426   1.165  1.00  0.00     0.169 HD
BRANCH   8  11
HETATM   11  C   UNL     1      40.759 -14.379  -0.167  1.00  0.00     0.089 A 
HETATM   12  C   UNL     1      39.790 -13.210  -0.268  1.00  0.00     0.057 A 
HETATM   13  C   UNL     1      39.491 -14.527  -0.952  1.00  0.00     0.027 A 
BRANCH  12  14
HETATM   14  C   UNL     1      40.190 -12.040  -1.147  1.00  0.00     0.057 A 
HETATM   15  O   UNL     1      41.008 -11.023  -0.754  1.00  0.00    -0.327 OA
HETATM   16  C   UNL     1      41.138 -10.185  -1.814  1.00  0.00     0.142 A 
HETATM   17  C   UNL     1      40.409 -10.647  -2.884  1.00  0.00     0.027 A 
HETATM   18  C   UNL     1      39.793 -11.848  -2.452  1.00  0.00     0.035 A 
ENDBRANCH  12  14
ENDBRANCH   8  11
ENDBRANCH   3   7
BRANCH   5  19
HETATM   19  C   UNL     1      43.713 -19.222   3.615  1.00  0.00     0.010 A 
HETATM   20  C   UNL     1      43.694 -20.051   2.465  1.00  0.00     0.152 A 
HETATM   21  N   UNL     1      44.015 -21.321   2.730  1.00  0.00    -0.187 NA
HETATM   22  N   UNL     1      44.239 -21.316   4.051  1.00  0.00    -0.289 N 
HETATM   23  H   UNL     1      44.504 -22.188   4.498  1.00  0.00     0.188 HD
HETATM   24  C   UNL     1      44.075 -20.089   4.626  1.00  0.00     0.123 A 
ENDBRANCH   5  19
TORSDOF 4
ENDMDL
MODEL 4
REMARK VINA RESULT:      -7.4      2.865      8.353
REMARK  4 active torsions:
REMARK  status: ('A' for Active; 'I' for Inactive)
REMARK    1  A    between atoms: C_3  and  N_4 
REMARK       I    between atoms: N_4  and  C_5 
REMARK    2  A    between atoms: C_5  and  C_6 
REMARK    3  A    between atoms: C_7  and  C_8 
REMARK    4  A    between atoms: C_16  and  C_17 
ROOT
HETATM    1  C   UNL     1      40.934 -11.813   0.854  1.00  0.00     0.003 A 
HETATM    2  C   UNL     1      41.494 -12.976   1.384  1.00  0.00     0.029 A 
HETATM    3  C   UNL     1      41.121 -14.224   0.888  1.00  0.00     0.035 A 
HETATM    4  C   UNL     1      40.169 -14.289  -0.143  1.00  0.00     0.042 A 
HETATM    5  C   UNL     1      39.592 -13.128  -0.685  1.00  0.00    -0.021 A 
HETATM    6  C   UNL     1      39.992 -11.887  -0.174  1.00  0.00     0.012 A 
ENDROOT
BRANCH   3   7
HETATM    7  N   UNL     1      41.663 -15.444   1.341  1.00  0.00    -0.327 N 
HETATM    8  C   UNL     1      41.298 -16.163   2.461  1.00  0.00     0.227 C 
HETATM    9  O   UNL     1      40.383 -15.917   3.233  1.00  0.00    -0.273 OA
HETATM   10  H   UNL     1      42.420 -15.823   0.788  1.00  0.00     0.169 HD
BRANCH   8  11
HETATM   11  C   UNL     1      42.175 -17.348   2.709  1.00  0.00     0.089 A 
HETATM   12  C   UNL     1      43.310 -17.255   3.718  1.00  0.00     0.057 A 
HETATM   13  C   UNL     1      43.596 -17.323   2.233  1.00  0.00     0.027 A 
BRANCH  12  14
HETATM   14  C   UNL     1      43.616 -18.489   4.546  1.00  0.00     0.057 A 
HETATM   15  O   UNL     1      44.178 -19.629   4.054  1.00  0.00    -0.327 OA
HETATM   16  C   UNL     1      44.305 -20.491   5.095  1.00  0.00     0.142 A 
HETATM   17  C   UNL     1      43.827 -19.922   6.251  1.00  0.00     0.027 A 
HETATM   18  C   UNL     1      43.378 -18.625   5.896  1.00  0.00     0.035 A 
ENDBRANCH  12  14
ENDBRANCH   8  11
ENDBRANCH   3   7
BRANCH   5  19
HETATM   19  C   UNL     1      38.610 -13.228  -1.759  1.00  0.00     0.010 A 
HETATM   20  C   UNL     1      37.394 -12.530  -1.972  1.00  0.00     0.152 A 
HETATM   21  N   UNL     1      36.767 -12.901  -3.092  1.00  0.00    -0.187 NA
HETATM   22  N   UNL     1      37.574 -13.840  -3.604  1.00  0.00    -0.289 N 
HETATM   23  H   UNL     1      37.305 -14.284  -4.477  1.00  0.00     0.188 HD
HETATM   24  C   UNL     1      38.688 -14.071  -2.849  1.00  0.00     0.123 A 
ENDBRANCH   5  19
TORSDOF 4
ENDMDL
MODEL 5
REMARK VINA RESULT:      -7.4      6.175      9.130
REMARK  4 active torsions:
REMARK  status: ('A' for Active; 'I' for Inactive)
REMARK    1  A    between atoms: C_3  and  N_4 
REMARK       I    between atoms: N_4  and  C_5 
REMARK    2  A    between atoms: C_5  and  C_6 
REMARK    3  A    between atoms: C_7  and  C_8 
REMARK    4  A    between atoms: C_16  and  C_17 
ROOT
HETATM    1  C   UNL     1      46.304  -9.817   7.783  1.00  0.00     0.003 A 
HETATM    2  C   UNL     1      45.800 -10.874   7.025  1.00  0.00     0.029 A 
HETATM    3  C   UNL     1      44.658 -11.556   7.443  1.00  0.00     0.035 A 
HETATM    4  C   UNL     1      44.033 -11.166   8.639  1.00  0.00     0.042 A 
HETATM    5  C   UNL     1      44.530 -10.106   9.416  1.00  0.00    -0.021 A 
HETATM    6  C   UNL     1      45.673  -9.433   8.968  1.00  0.00     0.012 A 
ENDROOT
BRANCH   3   7
HETATM    7  N   UNL     1      44.064 -12.611   6.719  1.00  0.00    -0.327 N 
HETATM    8  C   UNL     1      43.096 -12.519   5.740  1.00  0.00     0.227 C 
HETATM    9  O   UNL     1      42.623 -11.499   5.259  1.00  0.00    -0.273 OA
HETATM   10  H   UNL     1      44.372 -13.542   6.963  1.00  0.00     0.169 HD
BRANCH   8  11
HETATM   11  C   UNL     1      42.602 -13.851   5.278  1.00  0.00     0.089 A 
HETATM   12  C   UNL     1      42.897 -14.321   3.860  1.00  0.00     0.057 A 
HETATM   13  C   UNL     1      41.496 -13.914   4.268  1.00  0.00     0.027 A 
BRANCH  12  14
HETATM   14  C   UNL     1      43.162 -15.799   3.651  1.00  0.00     0.057 A 
HETATM   15  O   UNL     1      43.868 -16.587   4.512  1.00  0.00    -0.327 OA
HETATM   16  C   UNL     1      43.876 -17.839   3.989  1.00  0.00     0.142 A 
HETATM   17  C   UNL     1      43.189 -17.868   2.799  1.00  0.00     0.027 A 
HETATM   18  C   UNL     1      42.728 -16.546   2.578  1.00  0.00     0.035 A 
ENDBRANCH  12  14
ENDBRANCH   8  11
ENDBRANCH   3   7
BRANCH   5  19
HETATM   19  C   UNL     1      43.855  -9.721  10.651  1.00  0.00     0.010 A 
HETATM   20  C   UNL     1      43.325 -10.511  11.703  1.00  0.00     0.152 A 
HETATM   21  N   UNL     1      42.783  -9.781  12.682  1.00  0.00    -0.187 NA
HETATM   22  N   UNL     1      42.959  -8.520  12.265  1.00  0.00    -0.289 N 
HETATM   23  H   UNL     1      42.620  -7.766  12.854  1.00  0.00     0.188 HD
HETATM   24  C   UNL     1      43.595  -8.430  11.060  1.00  0.00     0.123 A 
ENDBRANCH   5  19
TORSDOF 4
ENDMDL
MODEL 6
REMARK VINA RESULT:      -7.3      2.512      3.905
REMARK  4 active torsions:
REMARK  status: ('A' for Active; 'I' for Inactive)
REMARK    1  A    between atoms: C_3  and  N_4 
REMARK       I    between atoms: N_4  and  C_5 
REMARK    2  A    between atoms: C_5  and  C_6 
REMARK    3  A    between atoms: C_7  and  C_8 
REMARK    4  A    between atoms: C_16  and  C_17 
ROOT
HETATM    1  C   UNL     1      43.696 -18.475   2.909  1.00  0.00     0.003 A 
HETATM    2  C   UNL     1      43.202 -17.619   1.923  1.00  0.00     0.029 A 
HETATM    3  C   UNL     1      42.716 -16.359   2.267  1.00  0.00     0.035 A 
HETATM    4  C   UNL     1      42.724 -15.972   3.618  1.00  0.00     0.042 A 
HETATM    5  C   UNL     1      43.214 -16.822   4.623  1.00  0.00    -0.021 A 
HETATM    6  C   UNL     1      43.704 -18.080   4.249  1.00  0.00     0.012 A 
ENDROOT
BRANCH   3   7
HETATM    7  N   UNL     1      42.233 -15.421   1.331  1.00  0.00    -0.327 N 
HETATM    8  C   UNL     1      40.923 -15.204   0.957  1.00  0.00     0.227 C 
HETATM    9  O   UNL     1      39.922 -15.731   1.422  1.00  0.00    -0.273 OA
HETATM   10  H   UNL     1      42.934 -14.858   0.869  1.00  0.00     0.169 HD
BRANCH   8  11
HETATM   11  C   UNL     1      40.787 -14.218  -0.158  1.00  0.00     0.089 A 
HETATM   12  C   UNL     1      40.016 -12.925   0.060  1.00  0.00     0.057 A 
HETATM   13  C   UNL     1      39.452 -14.027  -0.811  1.00  0.00     0.027 A 
BRANCH  12  14
HETATM   14  C   UNL     1      40.526 -11.677  -0.634  1.00  0.00     0.057 A 
HETATM   15  O   UNL     1      40.314 -11.382  -1.948  1.00  0.00    -0.327 OA
HETATM   16  C   UNL     1      40.909 -10.186  -2.189  1.00  0.00     0.142 A 
HETATM   17  C   UNL     1      41.507  -9.708  -1.047  1.00  0.00     0.027 A 
HETATM   18  C   UNL     1      41.262 -10.674  -0.039  1.00  0.00     0.035 A 
ENDBRANCH  12  14
ENDBRANCH   8  11
ENDBRANCH   3   7
BRANCH   5  19
HETATM   19  C   UNL     1      43.214 -16.389   6.016  1.00  0.00     0.010 A 
HETATM   20  C   UNL     1      42.949 -15.121   6.593  1.00  0.00     0.152 A 
HETATM   21  N   UNL     1      43.041 -15.124   7.926  1.00  0.00    -0.187 NA
HETATM   22  N   UNL     1      43.367 -16.392   8.213  1.00  0.00    -0.289 N 
HETATM   23  H   UNL     1      43.496 -16.647   9.188  1.00  0.00     0.188 HD
HETATM   24  C   UNL     1      43.480 -17.187   7.110  1.00  0.00     0.123 A 
ENDBRANCH   5  19
TORSDOF 4
ENDMDL
MODEL 7
REMARK VINA RESULT:      -7.1      1.896      2.311
REMARK  4 active torsions:
REMARK  status: ('A' for Active; 'I' for Inactive)
REMARK    1  A    between atoms: C_3  and  N_4 
REMARK       I    between atoms: N_4  and  C_5 
REMARK    2  A    between atoms: C_5  and  C_6 
REMARK    3  A    between atoms: C_7  and  C_8 
REMARK    4  A    between atoms: C_16  and  C_17 
ROOT
HETATM    1  C   UNL     1      44.012 -16.207   6.009  1.00  0.00     0.003 A 
HETATM    2  C   UNL     1      43.319 -15.170   5.382  1.00  0.00     0.029 A 
HETATM    3  C   UNL     1      42.733 -15.372   4.133  1.00  0.00     0.035 A 
HETATM    4  C   UNL     1      42.860 -16.629   3.518  1.00  0.00     0.042 A 
HETATM    5  C   UNL     1      43.557 -17.682   4.134  1.00  0.00    -0.021 A 
HETATM    6  C   UNL     1      44.129 -17.454   5.392  1.00  0.00     0.012 A 
ENDROOT
BRANCH   3   7
HETATM    7  N   UNL     1      41.987 -14.392   3.447  1.00  0.00    -0.327 N 
HETATM    8  C   UNL     1      42.449 -13.213   2.900  1.00  0.00     0.227 C 
HETATM    9  O   UNL     1      43.609 -12.829   2.838  1.00  0.00    -0.273 OA
HETATM   10  H   UNL     1      40.995 -14.569   3.366  1.00  0.00     0.169 HD
BRANCH   8  11
HETATM   11  C   UNL     1      41.356 -12.349   2.359  1.00  0.00     0.089 A 
HETATM   12  C   UNL     1      41.291 -12.051   0.868  1.00  0.00     0.057 A 
HETATM   13  C   UNL     1      41.685 -10.976   1.858  1.00  0.00     0.027 A 
BRANCH  12  14
HETATM   14  C   UNL     1      39.918 -11.946   0.232  1.00  0.00     0.057 A 
HETATM   15  O   UNL     1      39.072 -10.888   0.390  1.00  0.00    -0.327 OA
HETATM   16  C   UNL     1      37.959 -11.158  -0.339  1.00  0.00     0.142 A 
HETATM   17  C   UNL     1      38.076 -12.378  -0.961  1.00  0.00     0.027 A 
HETATM   18  C   UNL     1      39.343 -12.891  -0.590  1.00  0.00     0.035 A 
ENDBRANCH  12  14
ENDBRANCH   8  11
ENDBRANCH   3   7
BRANCH   5  19
HETATM   19  C   UNL     1      43.667 -18.978   3.472  1.00  0.00     0.010 A 
HETATM   20  C   UNL     1      43.975 -20.261   3.990  1.00  0.00     0.152 A 
HETATM   21  N   UNL     1      43.971 -21.217   3.057  1.00  0.00    -0.187 NA
HETATM   22  N   UNL     1      43.662 -20.554   1.934  1.00  0.00    -0.289 N 
HETATM   23  H   UNL     1      43.598 -21.078   1.067  1.00  0.00     0.188 HD
HETATM   24  C   UNL     1      43.469 -19.216   2.128  1.00  0.00     0.123 A 
ENDBRANCH   5  19
TORSDOF 4
ENDMDL
MODEL 8
REMARK VINA RESULT:      -7.0      2.237      2.708
REMARK  4 active torsions:
REMARK  status: ('A' for Active; 'I' for Inactive)
REMARK    1  A    between atoms: C_3  and  N_4 
REMARK       I    between atoms: N_4  and  C_5 
REMARK    2  A    between atoms: C_5  and  C_6 
REMARK    3  A    between atoms: C_7  and  C_8 
REMARK    4  A    between atoms: C_16  and  C_17 
ROOT
HETATM    1  C   UNL     1      44.213 -16.110   6.229  1.00  0.00     0.003 A 
HETATM    2  C   UNL     1      43.517 -15.182   5.453  1.00  0.00     0.029 A 
HETATM    3  C   UNL     1      42.930 -15.573   4.250  1.00  0.00     0.035 A 
HETATM    4  C   UNL     1      43.059 -16.909   3.833  1.00  0.00     0.042 A 
HETATM    5  C   UNL     1      43.759 -17.855   4.601  1.00  0.00    -0.021 A 
HETATM    6  C   UNL     1      44.332 -17.436   5.808  1.00  0.00     0.012 A 
ENDROOT
BRANCH   3   7
HETATM    7  N   UNL     1      42.181 -14.710   3.424  1.00  0.00    -0.327 N 
HETATM    8  C   UNL     1      40.918 -14.207   3.659  1.00  0.00     0.227 C 
HETATM    9  O   UNL     1      40.237 -14.354   4.664  1.00  0.00    -0.273 OA
HETATM   10  H   UNL     1      42.616 -14.446   2.551  1.00  0.00     0.169 HD
BRANCH   8  11
HETATM   11  C   UNL     1      40.374 -13.424   2.508  1.00  0.00     0.089 A 
HETATM   12  C   UNL     1      40.645 -11.930   2.410  1.00  0.00     0.057 A 
HETATM   13  C   UNL     1      39.262 -12.448   2.742  1.00  0.00     0.027 A 
BRANCH  12  14
HETATM   14  C   UNL     1      40.858 -11.343   1.028  1.00  0.00     0.057 A 
HETATM   15  O   UNL     1      40.351 -11.871  -0.122  1.00  0.00    -0.327 OA
HETATM   16  C   UNL     1      40.745 -11.062  -1.138  1.00  0.00     0.142 A 
HETATM   17  C   UNL     1      41.504 -10.022  -0.658  1.00  0.00     0.027 A 
HETATM   18  C   UNL     1      41.580 -10.204   0.745  1.00  0.00     0.035 A 
ENDBRANCH  12  14
ENDBRANCH   8  11
ENDBRANCH   3   7
BRANCH   5  19
HETATM   19  C   UNL     1      43.871 -19.235   4.143  1.00  0.00     0.010 A 
HETATM   20  C   UNL     1      43.797 -19.789   2.839  1.00  0.00     0.152 A 
HETATM   21  N   UNL     1      43.958 -21.115   2.825  1.00  0.00    -0.187 NA
HETATM   22  N   UNL     1      44.134 -21.422   4.118  1.00  0.00    -0.289 N 
HETATM   23  H   UNL     1      44.279 -22.395   4.367  1.00  0.00     0.188 HD
HETATM   24  C   UNL     1      44.092 -20.336   4.944  1.00  0.00     0.123 A 
ENDBRANCH   5  19
TORSDOF 4
ENDMDL
MODEL 9
REMARK VINA RESULT:      -6.9      5.251      8.747
REMARK  4 active torsions:
REMARK  status: ('A' for Active; 'I' for Inactive)
REMARK    1  A    between atoms: C_3  and  N_4 
REMARK       I    between atoms: N_4  and  C_5 
REMARK    2  A    between atoms: C_5  and  C_6 
REMARK    3  A    between atoms: C_7  and  C_8 
REMARK    4  A    between atoms: C_16  and  C_17 
ROOT
HETATM    1  C   UNL     1      43.485 -11.160   6.996  1.00  0.00     0.003 A 
HETATM    2  C   UNL     1      43.602 -12.447   6.467  1.00  0.00     0.029 A 
HETATM    3  C   UNL     1      42.543 -13.013   5.759  1.00  0.00     0.035 A 
HETATM    4  C   UNL     1      41.360 -12.273   5.597  1.00  0.00     0.042 A 
HETATM    5  C   UNL     1      41.224 -10.978   6.126  1.00  0.00    -0.021 A 
HETATM    6  C   UNL     1      42.307 -10.430   6.825  1.00  0.00     0.012 A 
ENDROOT
BRANCH   3   7
HETATM    7  N   UNL     1      42.590 -14.291   5.163  1.00  0.00    -0.327 N 
HETATM    8  C   UNL     1      42.163 -15.487   5.701  1.00  0.00     0.227 C 
HETATM    9  O   UNL     1      41.592 -15.657   6.769  1.00  0.00    -0.273 OA
HETATM   10  H   UNL     1      43.003 -14.332   4.241  1.00  0.00     0.169 HD
BRANCH   8  11
HETATM   11  C   UNL     1      42.485 -16.665   4.841  1.00  0.00     0.089 A 
HETATM   12  C   UNL     1      43.832 -17.362   4.979  1.00  0.00     0.057 A 
HETATM   13  C   UNL     1      43.512 -16.526   3.758  1.00  0.00     0.027 A 
BRANCH  12  14
HETATM   14  C   UNL     1      43.864 -18.868   4.807  1.00  0.00     0.057 A 
HETATM   15  O   UNL     1      43.946 -19.506   3.604  1.00  0.00    -0.327 OA
HETATM   16  C   UNL     1      43.964 -20.839   3.862  1.00  0.00     0.142 A 
HETATM   17  C   UNL     1      43.891 -21.068   5.216  1.00  0.00     0.027 A 
HETATM   18  C   UNL     1      43.824 -19.792   5.828  1.00  0.00     0.035 A 
ENDBRANCH  12  14
ENDBRANCH   8  11
ENDBRANCH   3   7
BRANCH   5  19
HETATM   19  C   UNL     1      39.985 -10.232   5.935  1.00  0.00     0.010 A 
HETATM   20  C   UNL     1      39.568  -8.979   6.451  1.00  0.00     0.152 A 
HETATM   21  N   UNL     1      38.350  -8.622   6.035  1.00  0.00    -0.187 NA
HETATM   22  N   UNL     1      37.976  -9.643   5.252  1.00  0.00    -0.289 N 
HETATM   23  H   UNL     1      37.063  -9.602   4.810  1.00  0.00     0.188 HD
HETATM   24  C   UNL     1      38.916 -10.628   5.158  1.00  0.00     0.123 A 
ENDBRANCH   5  19
TORSDOF 4
ENDMDL
MODEL 10
REMARK VINA RESULT:      -6.7      3.090      8.757
REMARK  4 active torsions:
REMARK  status: ('A' for Active; 'I' for Inactive)
REMARK    1  A    between atoms: C_3  and  N_4 
REMARK       I    between atoms: N_4  and  C_5 
REMARK    2  A    between atoms: C_5  and  C_6 
REMARK    3  A    between atoms: C_7  and  C_8 
REMARK    4  A    between atoms: C_16  and  C_17 
ROOT
HETATM    1  C   UNL     1      38.535 -12.971  -1.707  1.00  0.00     0.003 A 
HETATM    2  C   UNL     1      39.287 -14.030  -1.195  1.00  0.00     0.029 A 
HETATM    3  C   UNL     1      40.286 -13.789  -0.253  1.00  0.00     0.035 A 
HETATM    4  C   UNL     1      40.525 -12.469   0.163  1.00  0.00     0.042 A 
HETATM    5  C   UNL     1      39.779 -11.391  -0.344  1.00  0.00    -0.021 A 
HETATM    6  C   UNL     1      38.776 -11.663  -1.284  1.00  0.00     0.012 A 
ENDROOT
BRANCH   3   7
HETATM    7  N   UNL     1      41.067 -14.803   0.340  1.00  0.00    -0.327 N 
HETATM    8  C   UNL     1      40.815 -15.481   1.515  1.00  0.00     0.227 C 
HETATM    9  O   UNL     1      39.826 -15.386   2.227  1.00  0.00    -0.273 OA
HETATM   10  H   UNL     1      41.920 -15.044  -0.146  1.00  0.00     0.169 HD
BRANCH   8  11
HETATM   11  C   UNL     1      41.924 -16.401   1.911  1.00  0.00     0.089 A 
HETATM   12  C   UNL     1      42.829 -16.041   3.080  1.00  0.00     0.057 A 
HETATM   13  C   UNL     1      43.343 -15.993   1.657  1.00  0.00     0.027 A 
BRANCH  12  14
HETATM   14  C   UNL     1      43.320 -17.172   3.963  1.00  0.00     0.057 A 
HETATM   15  O   UNL     1      44.109 -18.199   3.536  1.00  0.00    -0.327 OA
HETATM   16  C   UNL     1      44.344 -18.994   4.611  1.00  0.00     0.142 A 
HETATM   17  C   UNL     1      43.711 -18.495   5.725  1.00  0.00     0.027 A 
HETATM   18  C   UNL     1      43.046 -17.316   5.306  1.00  0.00     0.035 A 
ENDBRANCH  12  14
ENDBRANCH   8  11
ENDBRANCH   3   7
BRANCH   5  19
HETATM   19  C   UNL     1      40.048 -10.032   0.112  1.00  0.00     0.010 A 
HETATM   20  C   UNL     1      40.503  -9.547   1.364  1.00  0.00     0.152 A 
HETATM   21  N   UNL     1      40.638  -8.218   1.392  1.00  0.00    -0.187 NA
HETATM   22  N   UNL     1      40.268  -7.841   0.160  1.00  0.00    -0.289 N 
HETATM   23  H   UNL     1      40.285  -6.852  -0.067  1.00  0.00     0.188 HD
HETATM   24  C   UNL     1      39.909  -8.885  -0.643  1.00  0.00     0.123 A 
ENDBRANCH   5  19
TORSDOF 4
ENDMDL
