MODEL 1
REMARK VINA RESULT:      -9.8      0.000      0.000
REMARK  7 active torsions:
REMARK  status: ('A' for Active; 'I' for Inactive)
REMARK    1  A    between atoms: N_2  and  C_4 
REMARK    2  A    between atoms: N_2  and  C_23 
REMARK    3  A    between atoms: C_4  and  C_5 
REMARK       I    between atoms: C_5  and  N_6 
REMARK    4  A    between atoms: N_6  and  C_7 
REMARK    5  A    between atoms: C_8  and  O_9 
REMARK    6  A    between atoms: C_23  and  C_24 
REMARK       I    between atoms: C_24  and  N_25 
REMARK    7  A    between atoms: N_25  and  C_26 
ROOT
HETATM    1  C   UNL     1      43.295 -11.721   4.040  1.00  0.00     0.248 C 
HETATM    2  N   UNL     1      42.481 -12.815   4.143  1.00  0.00    -0.323 N 
HETATM    3  O   UNL     1      44.373 -11.645   3.445  1.00  0.00    -0.271 OA
HETATM    4  H   UNL     1      41.494 -12.689   4.363  1.00  0.00     0.169 HD
ENDROOT
BRANCH   1   5
HETATM    5  C   UNL     1      42.755 -10.439   4.679  1.00  0.00     0.337 C 
BRANCH   5   6
HETATM    6  N   UNL     1      42.593 -10.678   6.193  1.00  0.00    -0.058 N 
HETATM    7  C   UNL     1      41.211 -10.389   6.676  1.00  0.00     0.270 C 
HETATM    8  H   UNL     1      42.744 -11.701   6.274  1.00  0.00     0.280 HD
BRANCH   6   9
HETATM    9  C   UNL     1      43.663 -10.002   7.049  1.00  0.00     0.337 C 
BRANCH   9  10
HETATM   10  C   UNL     1      43.486 -10.180   8.562  1.00  0.00     0.248 C 
HETATM   11  N   UNL     1      42.702  -9.222   9.174  1.00  0.00    -0.326 N 
HETATM   12  H   UNL     1      42.161  -8.589   8.594  1.00  0.00     0.169 HD
HETATM   13  O   UNL     1      43.945 -11.187   9.101  1.00  0.00    -0.271 OA
BRANCH  11  14
HETATM   14  C   UNL     1      42.460  -9.114  10.564  1.00  0.00     0.036 A 
HETATM   15  C   UNL     1      41.384  -9.726  11.213  1.00  0.00     0.055 A 
HETATM   16  C   UNL     1      41.217  -9.592  12.599  1.00  0.00     0.058 A 
HETATM   17 CL   UNL     1      39.862 -10.387  13.320  1.00  0.00    -0.082 Cl
HETATM   18  C   UNL     1      42.130  -8.845  13.347  1.00  0.00     0.055 A 
HETATM   19 CL   UNL     1      41.985  -8.635  15.053  1.00  0.00    -0.083 Cl
HETATM   20  C   UNL     1      43.209  -8.238  12.703  1.00  0.00     0.028 A 
HETATM   21  C   UNL     1      43.378  -8.378  11.321  1.00  0.00     0.031 A 
ENDBRANCH  11  14
ENDBRANCH   9  10
ENDBRANCH   6   9
ENDBRANCH   5   6
ENDBRANCH   1   5
BRANCH   2  22
HETATM   22  C   UNL     1      42.806 -14.153   3.823  1.00  0.00     0.071 A 
HETATM   23  C   UNL     1      42.599 -14.543   2.486  1.00  0.00     0.096 A 
HETATM   24  C   UNL     1      42.762 -15.869   2.062  1.00  0.00     0.054 A 
HETATM   25  C   UNL     1      43.180 -16.819   3.013  1.00  0.00     0.014 A 
HETATM   26  C   UNL     1      43.427 -16.391   4.313  1.00  0.00     0.089 A 
HETATM   27  C   UNL     1      43.419 -18.226   3.013  1.00  0.00     0.011 A 
HETATM   28  O   UNL     1      43.827 -17.434   5.092  1.00  0.00    -0.309 OA
HETATM   29  C   UNL     1      43.263 -15.079   4.763  1.00  0.00     0.070 A 
HETATM   30  C   UNL     1      43.814 -18.546   4.307  1.00  0.00     0.087 A 
HETATM   31  C   UNL     1      44.141 -19.833   4.729  1.00  0.00     0.038 A 
HETATM   32  C   UNL     1      44.046 -20.849   3.773  1.00  0.00     0.003 A 
HETATM   33  C   UNL     1      43.647 -20.570   2.462  1.00  0.00     0.001 A 
HETATM   34  C   UNL     1      43.332 -19.263   2.064  1.00  0.00     0.015 A 
BRANCH  23  35
HETATM   35  O   UNL     1      42.177 -13.564   1.611  1.00  0.00    -0.354 OA
HETATM   36  C   UNL     1      40.951 -13.934   0.974  1.00  0.00     0.210 C 
ENDBRANCH  23  35
ENDBRANCH   2  22
TORSDOF 7
ENDMDL
MODEL 2
REMARK VINA RESULT:      -9.6      1.996      2.615
REMARK  7 active torsions:
REMARK  status: ('A' for Active; 'I' for Inactive)
REMARK    1  A    between atoms: N_2  and  C_4 
REMARK    2  A    between atoms: N_2  and  C_23 
REMARK    3  A    between atoms: C_4  and  C_5 
REMARK       I    between atoms: C_5  and  N_6 
REMARK    4  A    between atoms: N_6  and  C_7 
REMARK    5  A    between atoms: C_8  and  O_9 
REMARK    6  A    between atoms: C_23  and  C_24 
REMARK       I    between atoms: C_24  and  N_25 
REMARK    7  A    between atoms: N_25  and  C_26 
ROOT
HETATM    1  C   UNL     1      44.282 -12.096   7.160  1.00  0.00     0.248 C 
HETATM    2  N   UNL     1      43.296 -12.990   6.849  1.00  0.00    -0.323 N 
HETATM    3  O   UNL     1      45.367 -11.952   6.592  1.00  0.00    -0.271 OA
HETATM    4  H   UNL     1      42.339 -12.812   7.155  1.00  0.00     0.169 HD
ENDROOT
BRANCH   1   5
HETATM    5  C   UNL     1      43.952 -11.124   8.297  1.00  0.00     0.337 C 
BRANCH   5   6
HETATM    6  N   UNL     1      44.217  -9.687   7.805  1.00  0.00    -0.058 N 
HETATM    7  C   UNL     1      45.452  -9.095   8.397  1.00  0.00     0.270 C 
HETATM    8  H   UNL     1      44.394  -9.829   6.792  1.00  0.00     0.280 HD
BRANCH   6   9
HETATM    9  C   UNL     1      43.011  -8.756   7.919  1.00  0.00     0.337 C 
BRANCH   9  10
HETATM   10  C   UNL     1      42.479  -8.562   9.343  1.00  0.00     0.248 C 
HETATM   11  N   UNL     1      43.067  -7.533  10.051  1.00  0.00    -0.326 N 
HETATM   12  H   UNL     1      43.660  -6.874   9.556  1.00  0.00     0.169 HD
HETATM   13  O   UNL     1      41.521  -9.238   9.719  1.00  0.00    -0.271 OA
BRANCH  11  14
HETATM   14  C   UNL     1      42.816  -7.209  11.405  1.00  0.00     0.036 A 
HETATM   15  C   UNL     1      42.137  -6.058  11.813  1.00  0.00     0.055 A 
HETATM   16  C   UNL     1      41.906  -5.810  13.174  1.00  0.00     0.058 A 
HETATM   17 CL   UNL     1      41.053  -4.365  13.589  1.00  0.00    -0.082 Cl
HETATM   18  C   UNL     1      42.353  -6.716  14.139  1.00  0.00     0.055 A 
HETATM   19 CL   UNL     1      42.107  -6.475  15.828  1.00  0.00    -0.083 Cl
HETATM   20  C   UNL     1      43.026  -7.870  13.734  1.00  0.00     0.028 A 
HETATM   21  C   UNL     1      43.251  -8.119  12.375  1.00  0.00     0.031 A 
ENDBRANCH  11  14
ENDBRANCH   9  10
ENDBRANCH   6   9
ENDBRANCH   5   6
ENDBRANCH   1   5
BRANCH   2  22
HETATM   22  C   UNL     1      43.399 -14.109   5.992  1.00  0.00     0.071 A 
HETATM   23  C   UNL     1      42.941 -13.928   4.673  1.00  0.00     0.096 A 
HETATM   24  C   UNL     1      42.869 -14.987   3.756  1.00  0.00     0.054 A 
HETATM   25  C   UNL     1      43.308 -16.256   4.180  1.00  0.00     0.014 A 
HETATM   26  C   UNL     1      43.805 -16.389   5.471  1.00  0.00     0.089 A 
HETATM   27  C   UNL     1      43.368 -17.559   3.602  1.00  0.00     0.011 A 
HETATM   28  O   UNL     1      44.187 -17.675   5.707  1.00  0.00    -0.309 OA
HETATM   29  C   UNL     1      43.876 -15.354   6.406  1.00  0.00     0.070 A 
HETATM   30  C   UNL     1      43.916 -18.385   4.578  1.00  0.00     0.087 A 
HETATM   31  C   UNL     1      44.141 -19.749   4.412  1.00  0.00     0.038 A 
HETATM   32  C   UNL     1      43.774 -20.299   3.179  1.00  0.00     0.003 A 
HETATM   33  C   UNL     1      43.214 -19.505   2.174  1.00  0.00     0.001 A 
HETATM   34  C   UNL     1      43.007 -18.132   2.367  1.00  0.00     0.015 A 
BRANCH  23  35
HETATM   35  O   UNL     1      42.513 -12.663   4.331  1.00  0.00    -0.354 OA
HETATM   36  C   UNL     1      43.182 -12.190   3.159  1.00  0.00     0.210 C 
ENDBRANCH  23  35
ENDBRANCH   2  22
TORSDOF 7
ENDMDL
MODEL 3
REMARK VINA RESULT:      -9.3      1.696      2.354
REMARK  7 active torsions:
REMARK  status: ('A' for Active; 'I' for Inactive)
REMARK    1  A    between atoms: N_2  and  C_4 
REMARK    2  A    between atoms: N_2  and  C_23 
REMARK    3  A    between atoms: C_4  and  C_5 
REMARK       I    between atoms: C_5  and  N_6 
REMARK    4  A    between atoms: N_6  and  C_7 
REMARK    5  A    between atoms: C_8  and  O_9 
REMARK    6  A    between atoms: C_23  and  C_24 
REMARK       I    between atoms: C_24  and  N_25 
REMARK    7  A    between atoms: N_25  and  C_26 
ROOT
HETATM    1  C   UNL     1      43.090 -11.647   3.807  1.00  0.00     0.248 C 
HETATM    2  N   UNL     1      42.255 -12.727   3.728  1.00  0.00    -0.323 N 
HETATM    3  O   UNL     1      44.277 -11.594   3.477  1.00  0.00    -0.271 OA
HETATM    4  H   UNL     1      41.246 -12.584   3.713  1.00  0.00     0.169 HD
ENDROOT
BRANCH   1   5
HETATM    5  C   UNL     1      42.438 -10.348   4.291  1.00  0.00     0.337 C 
BRANCH   5   6
HETATM    6  N   UNL     1      40.973 -10.329   3.814  1.00  0.00    -0.058 N 
HETATM    7  C   UNL     1      40.822  -9.761   2.442  1.00  0.00     0.270 C 
HETATM    8  H   UNL     1      40.743 -11.340   3.760  1.00  0.00     0.280 HD
BRANCH   6   9
HETATM    9  C   UNL     1      39.999  -9.706   4.814  1.00  0.00     0.337 C 
BRANCH   9  10
HETATM   10  C   UNL     1      40.182 -10.167   6.264  1.00  0.00     0.248 C 
HETATM   11  N   UNL     1      40.341  -9.149   7.185  1.00  0.00    -0.326 N 
HETATM   12  H   UNL     1      40.154  -8.194   6.896  1.00  0.00     0.169 HD
HETATM   13  O   UNL     1      40.071 -11.364   6.527  1.00  0.00    -0.271 OA
BRANCH  11  14
HETATM   14  C   UNL     1      40.612  -9.314   8.563  1.00  0.00     0.036 A 
HETATM   15  C   UNL     1      41.896  -9.250   9.113  1.00  0.00     0.055 A 
HETATM   16  C   UNL     1      42.089  -9.403  10.494  1.00  0.00     0.058 A 
HETATM   17 CL   UNL     1      43.709  -9.305  11.088  1.00  0.00    -0.082 Cl
HETATM   18  C   UNL     1      40.996  -9.620  11.336  1.00  0.00     0.055 A 
HETATM   19 CL   UNL     1      41.160  -9.821  13.041  1.00  0.00    -0.083 Cl
HETATM   20  C   UNL     1      39.712  -9.678  10.791  1.00  0.00     0.028 A 
HETATM   21  C   UNL     1      39.521  -9.519   9.413  1.00  0.00     0.031 A 
ENDBRANCH  11  14
ENDBRANCH   9  10
ENDBRANCH   6   9
ENDBRANCH   5   6
ENDBRANCH   1   5
BRANCH   2  22
HETATM   22  C   UNL     1      42.622 -14.074   3.505  1.00  0.00     0.071 A 
HETATM   23  C   UNL     1      42.441 -14.561   2.197  1.00  0.00     0.096 A 
HETATM   24  C   UNL     1      42.646 -15.909   1.868  1.00  0.00     0.054 A 
HETATM   25  C   UNL     1      43.081 -16.777   2.887  1.00  0.00     0.014 A 
HETATM   26  C   UNL     1      43.303 -16.253   4.155  1.00  0.00     0.089 A 
HETATM   27  C   UNL     1      43.361 -18.173   2.986  1.00  0.00     0.011 A 
HETATM   28  O   UNL     1      43.724 -17.227   5.008  1.00  0.00    -0.309 OA
HETATM   29  C   UNL     1      43.096 -14.919   4.512  1.00  0.00     0.070 A 
HETATM   30  C   UNL     1      43.753 -18.390   4.303  1.00  0.00     0.087 A 
HETATM   31  C   UNL     1      44.112 -19.635   4.817  1.00  0.00     0.038 A 
HETATM   32  C   UNL     1      44.056 -20.717   3.932  1.00  0.00     0.003 A 
HETATM   33  C   UNL     1      43.663 -20.542   2.602  1.00  0.00     0.001 A 
HETATM   34  C   UNL     1      43.314 -19.275   2.112  1.00  0.00     0.015 A 
BRANCH  23  35
HETATM   35  O   UNL     1      41.999 -13.658   1.253  1.00  0.00    -0.354 OA
HETATM   36  C   UNL     1      40.805 -14.120   0.615  1.00  0.00     0.210 C 
ENDBRANCH  23  35
ENDBRANCH   2  22
TORSDOF 7
ENDMDL
MODEL 4
REMARK VINA RESULT:      -9.2      1.670      1.836
REMARK  7 active torsions:
REMARK  status: ('A' for Active; 'I' for Inactive)
REMARK    1  A    between atoms: N_2  and  C_4 
REMARK    2  A    between atoms: N_2  and  C_23 
REMARK    3  A    between atoms: C_4  and  C_5 
REMARK       I    between atoms: C_5  and  N_6 
REMARK    4  A    between atoms: N_6  and  C_7 
REMARK    5  A    between atoms: C_8  and  O_9 
REMARK    6  A    between atoms: C_23  and  C_24 
REMARK       I    between atoms: C_24  and  N_25 
REMARK    7  A    between atoms: N_25  and  C_26 
ROOT
HETATM    1  C   UNL     1      40.458 -12.712   5.592  1.00  0.00     0.248 C 
HETATM    2  N   UNL     1      41.472 -12.940   4.704  1.00  0.00    -0.323 N 
HETATM    3  O   UNL     1      39.925 -13.532   6.344  1.00  0.00    -0.271 OA
HETATM    4  H   UNL     1      42.045 -12.160   4.384  1.00  0.00     0.169 HD
ENDROOT
BRANCH   1   5
HETATM    5  C   UNL     1      39.997 -11.256   5.704  1.00  0.00     0.337 C 
BRANCH   5   6
HETATM    6  N   UNL     1      40.376 -10.730   7.103  1.00  0.00    -0.058 N 
HETATM    7  C   UNL     1      39.311  -9.871   7.702  1.00  0.00     0.270 C 
HETATM    8  H   UNL     1      40.424 -11.602   7.663  1.00  0.00     0.280 HD
BRANCH   6   9
HETATM    9  C   UNL     1      41.757 -10.081   7.173  1.00  0.00     0.337 C 
BRANCH   9  10
HETATM   10  C   UNL     1      41.964  -9.130   8.358  1.00  0.00     0.248 C 
HETATM   11  N   UNL     1      42.065  -9.747   9.590  1.00  0.00    -0.326 N 
HETATM   12  H   UNL     1      42.176 -10.756   9.625  1.00  0.00     0.169 HD
HETATM   13  O   UNL     1      42.130  -7.931   8.139  1.00  0.00    -0.271 OA
BRANCH  11  14
HETATM   14  C   UNL     1      42.169  -9.091  10.839  1.00  0.00     0.036 A 
HETATM   15  C   UNL     1      41.066  -8.663  11.583  1.00  0.00     0.055 A 
HETATM   16  C   UNL     1      41.243  -8.036  12.825  1.00  0.00     0.058 A 
HETATM   17 CL   UNL     1      39.824  -7.543  13.681  1.00  0.00    -0.082 Cl
HETATM   18  C   UNL     1      42.529  -7.834  13.332  1.00  0.00     0.055 A 
HETATM   19 CL   UNL     1      42.822  -7.067  14.849  1.00  0.00    -0.083 Cl
HETATM   20  C   UNL     1      43.632  -8.266  12.595  1.00  0.00     0.028 A 
HETATM   21  C   UNL     1      43.453  -8.897  11.358  1.00  0.00     0.031 A 
ENDBRANCH  11  14
ENDBRANCH   9  10
ENDBRANCH   6   9
ENDBRANCH   5   6
ENDBRANCH   1   5
BRANCH   2  22
HETATM   22  C   UNL     1      41.952 -14.193   4.261  1.00  0.00     0.071 A 
HETATM   23  C   UNL     1      41.598 -14.569   2.951  1.00  0.00     0.096 A 
HETATM   24  C   UNL     1      41.901 -15.835   2.431  1.00  0.00     0.054 A 
HETATM   25  C   UNL     1      42.614 -16.731   3.250  1.00  0.00     0.014 A 
HETATM   26  C   UNL     1      42.995 -16.310   4.519  1.00  0.00     0.089 A 
HETATM   27  C   UNL     1      43.073 -18.077   3.131  1.00  0.00     0.011 A 
HETATM   28  O   UNL     1      43.677 -17.295   5.166  1.00  0.00    -0.309 OA
HETATM   29  C   UNL     1      42.697 -15.059   5.065  1.00  0.00     0.070 A 
HETATM   30  C   UNL     1      43.718 -18.367   4.329  1.00  0.00     0.087 A 
HETATM   31  C   UNL     1      44.310 -19.594   4.621  1.00  0.00     0.038 A 
HETATM   32  C   UNL     1      44.228 -20.580   3.632  1.00  0.00     0.003 A 
HETATM   33  C   UNL     1      43.583 -20.331   2.417  1.00  0.00     0.001 A 
HETATM   34  C   UNL     1      43.003 -19.083   2.148  1.00  0.00     0.015 A 
BRANCH  23  35
HETATM   35  O   UNL     1      40.889 -13.647   2.210  1.00  0.00    -0.354 OA
HETATM   36  C   UNL     1      41.050 -13.878   0.807  1.00  0.00     0.210 C 
ENDBRANCH  23  35
ENDBRANCH   2  22
TORSDOF 7
ENDMDL
MODEL 5
REMARK VINA RESULT:      -9.2      2.645      3.429
REMARK  7 active torsions:
REMARK  status: ('A' for Active; 'I' for Inactive)
REMARK    1  A    between atoms: N_2  and  C_4 
REMARK    2  A    between atoms: N_2  and  C_23 
REMARK    3  A    between atoms: C_4  and  C_5 
REMARK       I    between atoms: C_5  and  N_6 
REMARK    4  A    between atoms: N_6  and  C_7 
REMARK    5  A    between atoms: C_8  and  O_9 
REMARK    6  A    between atoms: C_23  and  C_24 
REMARK       I    between atoms: C_24  and  N_25 
REMARK    7  A    between atoms: N_25  and  C_26 
ROOT
HETATM    1  C   UNL     1      40.533 -12.342   3.452  1.00  0.00     0.248 C 
HETATM    2  N   UNL     1      41.828 -12.770   3.362  1.00  0.00    -0.323 N 
HETATM    3  O   UNL     1      39.531 -13.032   3.656  1.00  0.00    -0.271 OA
HETATM    4  H   UNL     1      42.589 -12.108   3.518  1.00  0.00     0.169 HD
ENDROOT
BRANCH   1   5
HETATM    5  C   UNL     1      40.333 -10.827   3.360  1.00  0.00     0.337 C 
BRANCH   5   6
HETATM    6  N   UNL     1      38.875 -10.502   3.738  1.00  0.00    -0.058 N 
HETATM    7  C   UNL     1      38.156  -9.752   2.666  1.00  0.00     0.270 C 
HETATM    8  H   UNL     1      38.446 -11.445   3.800  1.00  0.00     0.280 HD
BRANCH   6   9
HETATM    9  C   UNL     1      38.716  -9.851   5.111  1.00  0.00     0.337 C 
BRANCH   9  10
HETATM   10  C   UNL     1      39.728 -10.316   6.165  1.00  0.00     0.248 C 
HETATM   11  N   UNL     1      40.732  -9.411   6.450  1.00  0.00    -0.326 N 
HETATM   12  H   UNL     1      40.648  -8.461   6.101  1.00  0.00     0.169 HD
HETATM   13  O   UNL     1      39.533 -11.380   6.751  1.00  0.00    -0.271 OA
BRANCH  11  14
HETATM   14  C   UNL     1      41.829  -9.635   7.314  1.00  0.00     0.036 A 
HETATM   15  C   UNL     1      42.952 -10.389   6.962  1.00  0.00     0.055 A 
HETATM   16  C   UNL     1      44.013 -10.553   7.863  1.00  0.00     0.058 A 
HETATM   17 CL   UNL     1      45.364 -11.497   7.342  1.00  0.00    -0.082 Cl
HETATM   18  C   UNL     1      43.958  -9.961   9.127  1.00  0.00     0.055 A 
HETATM   19 CL   UNL     1      45.225 -10.124  10.287  1.00  0.00    -0.083 Cl
HETATM   20  C   UNL     1      42.842  -9.202   9.480  1.00  0.00     0.028 A 
HETATM   21  C   UNL     1      41.786  -9.034   8.577  1.00  0.00     0.031 A 
ENDBRANCH  11  14
ENDBRANCH   9  10
ENDBRANCH   6   9
ENDBRANCH   5   6
ENDBRANCH   1   5
BRANCH   2  22
HETATM   22  C   UNL     1      42.279 -14.102   3.221  1.00  0.00     0.071 A 
HETATM   23  C   UNL     1      42.129 -14.679   1.946  1.00  0.00     0.096 A 
HETATM   24  C   UNL     1      42.419 -16.029   1.700  1.00  0.00     0.054 A 
HETATM   25  C   UNL     1      42.907 -16.804   2.769  1.00  0.00     0.014 A 
HETATM   26  C   UNL     1      43.095 -16.190   4.002  1.00  0.00     0.089 A 
HETATM   27  C   UNL     1      43.274 -18.171   2.953  1.00  0.00     0.011 A 
HETATM   28  O   UNL     1      43.576 -17.081   4.912  1.00  0.00    -0.309 OA
HETATM   29  C   UNL     1      42.805 -14.852   4.276  1.00  0.00     0.070 A 
HETATM   30  C   UNL     1      43.678 -18.282   4.279  1.00  0.00     0.087 A 
HETATM   31  C   UNL     1      44.114 -19.467   4.868  1.00  0.00     0.038 A 
HETATM   32  C   UNL     1      44.127 -20.603   4.052  1.00  0.00     0.003 A 
HETATM   33  C   UNL     1      43.724 -20.535   2.715  1.00  0.00     0.001 A 
HETATM   34  C   UNL     1      43.297 -19.326   2.148  1.00  0.00     0.015 A 
BRANCH  23  35
HETATM   35  O   UNL     1      41.633 -13.866   0.950  1.00  0.00    -0.354 OA
HETATM   36  C   UNL     1      40.514 -14.473   0.296  1.00  0.00     0.210 C 
ENDBRANCH  23  35
ENDBRANCH   2  22
TORSDOF 7
ENDMDL
MODEL 6
REMARK VINA RESULT:      -9.2      4.739      7.570
REMARK  7 active torsions:
REMARK  status: ('A' for Active; 'I' for Inactive)
REMARK    1  A    between atoms: N_2  and  C_4 
REMARK    2  A    between atoms: N_2  and  C_23 
REMARK    3  A    between atoms: C_4  and  C_5 
REMARK       I    between atoms: C_5  and  N_6 
REMARK    4  A    between atoms: N_6  and  C_7 
REMARK    5  A    between atoms: C_8  and  O_9 
REMARK    6  A    between atoms: C_23  and  C_24 
REMARK       I    between atoms: C_24  and  N_25 
REMARK    7  A    between atoms: N_25  and  C_26 
ROOT
HETATM    1  C   UNL     1      40.529 -12.854   5.723  1.00  0.00     0.248 C 
HETATM    2  N   UNL     1      41.705 -13.314   5.198  1.00  0.00    -0.323 N 
HETATM    3  O   UNL     1      39.654 -13.515   6.287  1.00  0.00    -0.271 OA
HETATM    4  H   UNL     1      42.481 -12.667   5.057  1.00  0.00     0.169 HD
ENDROOT
BRANCH   1   5
HETATM    5  C   UNL     1      40.331 -11.337   5.660  1.00  0.00     0.337 C 
BRANCH   5   6
HETATM    6  N   UNL     1      41.715 -10.660   5.722  1.00  0.00    -0.058 N 
HETATM    7  C   UNL     1      41.951  -9.952   7.014  1.00  0.00     0.270 C 
HETATM    8  H   UNL     1      42.361 -11.472   5.688  1.00  0.00     0.280 HD
BRANCH   6   9
HETATM    9  C   UNL     1      42.037  -9.786   4.510  1.00  0.00     0.337 C 
BRANCH   9  10
HETATM   10  C   UNL     1      42.222 -10.551   3.195  1.00  0.00     0.248 C 
HETATM   11  N   UNL     1      41.294 -10.258   2.214  1.00  0.00    -0.326 N 
HETATM   12  H   UNL     1      40.682  -9.458   2.342  1.00  0.00     0.169 HD
HETATM   13  O   UNL     1      43.210 -11.272   3.058  1.00  0.00    -0.271 OA
BRANCH  11  14
HETATM   14  C   UNL     1      41.196 -10.889   0.952  1.00  0.00     0.036 A 
HETATM   15  C   UNL     1      40.744 -12.199   0.774  1.00  0.00     0.055 A 
HETATM   16  C   UNL     1      40.653 -12.755  -0.511  1.00  0.00     0.058 A 
HETATM   17 CL   UNL     1      40.077 -14.380  -0.639  1.00  0.00    -0.082 Cl
HETATM   18  C   UNL     1      41.015 -12.000  -1.629  1.00  0.00     0.055 A 
HETATM   19 CL   UNL     1      40.932 -12.620  -3.237  1.00  0.00    -0.083 Cl
HETATM   20  C   UNL     1      41.461 -10.689  -1.456  1.00  0.00     0.028 A 
HETATM   21  C   UNL     1      41.545 -10.134  -0.174  1.00  0.00     0.031 A 
ENDBRANCH  11  14
ENDBRANCH   9  10
ENDBRANCH   6   9
ENDBRANCH   5   6
ENDBRANCH   1   5
BRANCH   2  22
HETATM   22  C   UNL     1      42.059 -14.660   4.949  1.00  0.00     0.071 A 
HETATM   23  C   UNL     1      42.693 -15.343   6.004  1.00  0.00     0.096 A 
HETATM   24  C   UNL     1      43.208 -16.638   5.852  1.00  0.00     0.054 A 
HETATM   25  C   UNL     1      43.043 -17.270   4.605  1.00  0.00     0.014 A 
HETATM   26  C   UNL     1      42.365 -16.589   3.600  1.00  0.00     0.089 A 
HETATM   27  C   UNL     1      43.434 -18.519   4.035  1.00  0.00     0.011 A 
HETATM   28  O   UNL     1      42.294 -17.347   2.472  1.00  0.00    -0.309 OA
HETATM   29  C   UNL     1      41.853 -15.295   3.723  1.00  0.00     0.070 A 
HETATM   30  C   UNL     1      42.947 -18.512   2.732  1.00  0.00     0.087 A 
HETATM   31  C   UNL     1      43.120 -19.557   1.827  1.00  0.00     0.038 A 
HETATM   32  C   UNL     1      43.841 -20.666   2.282  1.00  0.00     0.003 A 
HETATM   33  C   UNL     1      44.353 -20.710   3.582  1.00  0.00     0.001 A 
HETATM   34  C   UNL     1      44.156 -19.645   4.473  1.00  0.00     0.015 A 
BRANCH  23  35
HETATM   35  O   UNL     1      42.832 -14.659   7.193  1.00  0.00    -0.354 OA
HETATM   36  C   UNL     1      43.146 -15.549   8.269  1.00  0.00     0.210 C 
ENDBRANCH  23  35
ENDBRANCH   2  22
TORSDOF 7
ENDMDL
MODEL 7
REMARK VINA RESULT:      -9.1      4.732      7.207
REMARK  7 active torsions:
REMARK  status: ('A' for Active; 'I' for Inactive)
REMARK    1  A    between atoms: N_2  and  C_4 
REMARK    2  A    between atoms: N_2  and  C_23 
REMARK    3  A    between atoms: C_4  and  C_5 
REMARK       I    between atoms: C_5  and  N_6 
REMARK    4  A    between atoms: N_6  and  C_7 
REMARK    5  A    between atoms: C_8  and  O_9 
REMARK    6  A    between atoms: C_23  and  C_24 
REMARK       I    between atoms: C_24  and  N_25 
REMARK    7  A    between atoms: N_25  and  C_26 
ROOT
HETATM    1  C   UNL     1      40.797 -12.950   5.792  1.00  0.00     0.248 C 
HETATM    2  N   UNL     1      41.927 -13.224   5.072  1.00  0.00    -0.323 N 
HETATM    3  O   UNL     1      40.033 -13.761   6.320  1.00  0.00    -0.271 OA
HETATM    4  H   UNL     1      42.643 -12.505   4.966  1.00  0.00     0.169 HD
ENDROOT
BRANCH   1   5
HETATM    5  C   UNL     1      40.507 -11.463   6.019  1.00  0.00     0.337 C 
BRANCH   5   6
HETATM    6  N   UNL     1      41.821 -10.677   5.847  1.00  0.00    -0.058 N 
HETATM    7  C   UNL     1      42.327 -10.115   7.134  1.00  0.00     0.270 C 
HETATM    8  H   UNL     1      42.485 -11.416   5.548  1.00  0.00     0.280 HD
BRANCH   6   9
HETATM    9  C   UNL     1      41.784  -9.635   4.730  1.00  0.00     0.337 C 
BRANCH   9  10
HETATM   10  C   UNL     1      41.963 -10.200   3.316  1.00  0.00     0.248 C 
HETATM   11  N   UNL     1      41.188  -9.597   2.344  1.00  0.00    -0.326 N 
HETATM   12  H   UNL     1      40.702  -8.735   2.570  1.00  0.00     0.169 HD
HETATM   13  O   UNL     1      42.831 -11.049   3.119  1.00  0.00    -0.271 OA
BRANCH  11  14
HETATM   14  C   UNL     1      41.105  -9.992   0.988  1.00  0.00     0.036 A 
HETATM   15  C   UNL     1      40.413 -11.125   0.551  1.00  0.00     0.055 A 
HETATM   16  C   UNL     1      40.356 -11.445  -0.813  1.00  0.00     0.058 A 
HETATM   17 CL   UNL     1      39.474 -12.861  -1.264  1.00  0.00    -0.082 Cl
HETATM   18  C   UNL     1      40.991 -10.629  -1.752  1.00  0.00     0.055 A 
HETATM   19 CL   UNL     1      40.965 -10.964  -3.444  1.00  0.00    -0.083 Cl
HETATM   20  C   UNL     1      41.677  -9.493  -1.320  1.00  0.00     0.028 A 
HETATM   21  C   UNL     1      41.728  -9.172   0.041  1.00  0.00     0.031 A 
ENDBRANCH  11  14
ENDBRANCH   9  10
ENDBRANCH   6   9
ENDBRANCH   5   6
ENDBRANCH   1   5
BRANCH   2  22
HETATM   22  C   UNL     1      42.325 -14.476   4.554  1.00  0.00     0.071 A 
HETATM   23  C   UNL     1      41.910 -14.768   3.241  1.00  0.00     0.096 A 
HETATM   24  C   UNL     1      42.128 -16.022   2.650  1.00  0.00     0.054 A 
HETATM   25  C   UNL     1      42.819 -16.992   3.401  1.00  0.00     0.014 A 
HETATM   26  C   UNL     1      43.263 -16.654   4.674  1.00  0.00     0.089 A 
HETATM   27  C   UNL     1      43.202 -18.352   3.202  1.00  0.00     0.011 A 
HETATM   28  O   UNL     1      43.912 -17.704   5.249  1.00  0.00    -0.309 OA
HETATM   29  C   UNL     1      43.049 -15.418   5.289  1.00  0.00     0.070 A 
HETATM   30  C   UNL     1      43.869 -18.734   4.361  1.00  0.00     0.087 A 
HETATM   31  C   UNL     1      44.404 -20.002   4.574  1.00  0.00     0.038 A 
HETATM   32  C   UNL     1      44.237 -20.933   3.543  1.00  0.00     0.003 A 
HETATM   33  C   UNL     1      43.568 -20.592   2.364  1.00  0.00     0.001 A 
HETATM   34  C   UNL     1      43.047 -19.304   2.176  1.00  0.00     0.015 A 
BRANCH  23  35
HETATM   35  O   UNL     1      41.227 -13.776   2.569  1.00  0.00    -0.354 OA
HETATM   36  C   UNL     1      39.871 -14.160   2.319  1.00  0.00     0.210 C 
ENDBRANCH  23  35
ENDBRANCH   2  22
TORSDOF 7
ENDMDL
MODEL 8
REMARK VINA RESULT:      -9.0      4.601      7.934
REMARK  7 active torsions:
REMARK  status: ('A' for Active; 'I' for Inactive)
REMARK    1  A    between atoms: N_2  and  C_4 
REMARK    2  A    between atoms: N_2  and  C_23 
REMARK    3  A    between atoms: C_4  and  C_5 
REMARK       I    between atoms: C_5  and  N_6 
REMARK    4  A    between atoms: N_6  and  C_7 
REMARK    5  A    between atoms: C_8  and  O_9 
REMARK    6  A    between atoms: C_23  and  C_24 
REMARK       I    between atoms: C_24  and  N_25 
REMARK    7  A    between atoms: N_25  and  C_26 
ROOT
HETATM    1  C   UNL     1      41.845 -11.888   4.310  1.00  0.00     0.248 C 
HETATM    2  N   UNL     1      42.256 -12.370   3.098  1.00  0.00    -0.323 N 
HETATM    3  O   UNL     1      40.726 -11.998   4.817  1.00  0.00    -0.271 OA
HETATM    4  H   UNL     1      43.251 -12.510   2.923  1.00  0.00     0.169 HD
ENDROOT
BRANCH   1   5
HETATM    5  C   UNL     1      42.930 -11.203   5.146  1.00  0.00     0.337 C 
BRANCH   5   6
HETATM    6  N   UNL     1      42.753 -11.627   6.618  1.00  0.00    -0.058 N 
HETATM    7  C   UNL     1      42.756 -10.465   7.555  1.00  0.00     0.270 C 
HETATM    8  H   UNL     1      41.795 -12.026   6.620  1.00  0.00     0.280 HD
BRANCH   6   9
HETATM    9  C   UNL     1      43.699 -12.740   7.064  1.00  0.00     0.337 C 
BRANCH   9  10
HETATM   10  C   UNL     1      43.219 -14.161   6.746  1.00  0.00     0.248 C 
HETATM   11  N   UNL     1      44.222 -15.101   6.616  1.00  0.00    -0.326 N 
HETATM   12  H   UNL     1      45.164 -14.855   6.905  1.00  0.00     0.169 HD
HETATM   13  O   UNL     1      42.010 -14.392   6.734  1.00  0.00    -0.271 OA
BRANCH  11  14
HETATM   14  C   UNL     1      44.047 -16.453   6.240  1.00  0.00     0.036 A 
HETATM   15  C   UNL     1      44.243 -16.928   4.940  1.00  0.00     0.055 A 
HETATM   16  C   UNL     1      44.071 -18.287   4.643  1.00  0.00     0.058 A 
HETATM   17 CL   UNL     1      44.340 -18.788   3.011  1.00  0.00    -0.082 Cl
HETATM   18  C   UNL     1      43.700 -19.184   5.648  1.00  0.00     0.055 A 
HETATM   19 CL   UNL     1      43.466 -20.867   5.354  1.00  0.00    -0.083 Cl
HETATM   20  C   UNL     1      43.509 -18.715   6.949  1.00  0.00     0.028 A 
HETATM   21  C   UNL     1      43.688 -17.359   7.244  1.00  0.00     0.031 A 
ENDBRANCH  11  14
ENDBRANCH   9  10
ENDBRANCH   6   9
ENDBRANCH   5   6
ENDBRANCH   1   5
BRANCH   2  22
HETATM   22  C   UNL     1      41.439 -12.863   2.055  1.00  0.00     0.071 A 
HETATM   23  C   UNL     1      41.636 -14.209   1.694  1.00  0.00     0.096 A 
HETATM   24  C   UNL     1      40.984 -14.790   0.596  1.00  0.00     0.054 A 
HETATM   25  C   UNL     1      40.082 -13.992  -0.132  1.00  0.00     0.014 A 
HETATM   26  C   UNL     1      39.870 -12.682   0.283  1.00  0.00     0.089 A 
HETATM   27  C   UNL     1      39.271 -14.170  -1.293  1.00  0.00     0.011 A 
HETATM   28  O   UNL     1      38.967 -12.063  -0.527  1.00  0.00    -0.309 OA
HETATM   29  C   UNL     1      40.514 -12.077   1.365  1.00  0.00     0.070 A 
HETATM   30  C   UNL     1      38.610 -12.961  -1.485  1.00  0.00     0.087 A 
HETATM   31  C   UNL     1      37.717 -12.715  -2.525  1.00  0.00     0.038 A 
HETATM   32  C   UNL     1      37.497 -13.764  -3.423  1.00  0.00     0.003 A 
HETATM   33  C   UNL     1      38.145 -14.993  -3.269  1.00  0.00     0.001 A 
HETATM   34  C   UNL     1      39.034 -15.214  -2.207  1.00  0.00     0.015 A 
BRANCH  23  35
HETATM   35  O   UNL     1      42.544 -14.928   2.442  1.00  0.00    -0.354 OA
HETATM   36  C   UNL     1      43.516 -15.563   1.605  1.00  0.00     0.210 C 
ENDBRANCH  23  35
ENDBRANCH   2  22
TORSDOF 7
ENDMDL
MODEL 9
REMARK VINA RESULT:      -8.7      1.625      2.472
REMARK  7 active torsions:
REMARK  status: ('A' for Active; 'I' for Inactive)
REMARK    1  A    between atoms: N_2  and  C_4 
REMARK    2  A    between atoms: N_2  and  C_23 
REMARK    3  A    between atoms: C_4  and  C_5 
REMARK       I    between atoms: C_5  and  N_6 
REMARK    4  A    between atoms: N_6  and  C_7 
REMARK    5  A    between atoms: C_8  and  O_9 
REMARK    6  A    between atoms: C_23  and  C_24 
REMARK       I    between atoms: C_24  and  N_25 
REMARK    7  A    between atoms: N_25  and  C_26 
ROOT
HETATM    1  C   UNL     1      42.048 -12.104   4.849  1.00  0.00     0.248 C 
HETATM    2  N   UNL     1      43.128 -12.885   4.544  1.00  0.00    -0.323 N 
HETATM    3  O   UNL     1      40.980 -12.466   5.348  1.00  0.00    -0.271 OA
HETATM    4  H   UNL     1      44.049 -12.457   4.449  1.00  0.00     0.169 HD
ENDROOT
BRANCH   1   5
HETATM    5  C   UNL     1      42.234 -10.603   4.605  1.00  0.00     0.337 C 
BRANCH   5   6
HETATM    6  N   UNL     1      41.120  -9.845   5.353  1.00  0.00    -0.058 N 
HETATM    7  C   UNL     1      40.024  -9.391   4.446  1.00  0.00     0.270 C 
HETATM    8  H   UNL     1      40.728 -10.580   5.972  1.00  0.00     0.280 HD
BRANCH   6   9
HETATM    9  C   UNL     1      41.628  -8.725   6.260  1.00  0.00     0.337 C 
BRANCH   9  10
HETATM   10  C   UNL     1      41.975  -9.160   7.688  1.00  0.00     0.248 C 
HETATM   11  N   UNL     1      41.202  -8.584   8.678  1.00  0.00    -0.326 N 
HETATM   12  H   UNL     1      40.367  -8.072   8.411  1.00  0.00     0.169 HD
HETATM   13  O   UNL     1      42.815 -10.043   7.855  1.00  0.00    -0.271 OA
BRANCH  11  14
HETATM   14  C   UNL     1      41.380  -8.752  10.071  1.00  0.00     0.036 A 
HETATM   15  C   UNL     1      40.556  -9.554  10.866  1.00  0.00     0.055 A 
HETATM   16  C   UNL     1      40.804  -9.691  12.240  1.00  0.00     0.058 A 
HETATM   17 CL   UNL     1      39.739 -10.707  13.145  1.00  0.00    -0.082 Cl
HETATM   18  C   UNL     1      41.882  -9.025  12.828  1.00  0.00     0.055 A 
HETATM   19 CL   UNL     1      42.243  -9.144  14.510  1.00  0.00    -0.083 Cl
HETATM   20  C   UNL     1      42.710  -8.228  12.036  1.00  0.00     0.028 A 
HETATM   21  C   UNL     1      42.465  -8.098  10.664  1.00  0.00     0.031 A 
ENDBRANCH  11  14
ENDBRANCH   9  10
ENDBRANCH   6   9
ENDBRANCH   5   6
ENDBRANCH   1   5
BRANCH   2  22
HETATM   22  C   UNL     1      43.169 -14.297   4.485  1.00  0.00     0.071 A 
HETATM   23  C   UNL     1      43.466 -14.962   5.689  1.00  0.00     0.096 A 
HETATM   24  C   UNL     1      43.662 -16.350   5.746  1.00  0.00     0.054 A 
HETATM   25  C   UNL     1      43.516 -17.085   4.554  1.00  0.00     0.014 A 
HETATM   26  C   UNL     1      43.170 -16.405   3.393  1.00  0.00     0.089 A 
HETATM   27  C   UNL     1      43.660 -18.454   4.177  1.00  0.00     0.011 A 
HETATM   28  O   UNL     1      43.066 -17.268   2.345  1.00  0.00    -0.309 OA
HETATM   29  C   UNL     1      42.980 -15.023   3.307  1.00  0.00     0.070 A 
HETATM   30  C   UNL     1      43.371 -18.507   2.818  1.00  0.00     0.087 A 
HETATM   31  C   UNL     1      43.401 -19.674   2.057  1.00  0.00     0.038 A 
HETATM   32  C   UNL     1      43.758 -20.849   2.726  1.00  0.00     0.003 A 
HETATM   33  C   UNL     1      44.063 -20.837   4.090  1.00  0.00     0.001 A 
HETATM   34  C   UNL     1      44.016 -19.648   4.832  1.00  0.00     0.015 A 
BRANCH  23  35
HETATM   35  O   UNL     1      43.609 -14.178   6.814  1.00  0.00    -0.354 OA
HETATM   36  C   UNL     1      43.119 -14.851   7.979  1.00  0.00     0.210 C 
ENDBRANCH  23  35
ENDBRANCH   2  22
TORSDOF 7
ENDMDL
MODEL 10
REMARK VINA RESULT:      -8.2      4.222     11.234
REMARK  7 active torsions:
REMARK  status: ('A' for Active; 'I' for Inactive)
REMARK    1  A    between atoms: N_2  and  C_4 
REMARK    2  A    between atoms: N_2  and  C_23 
REMARK    3  A    between atoms: C_4  and  C_5 
REMARK       I    between atoms: C_5  and  N_6 
REMARK    4  A    between atoms: N_6  and  C_7 
REMARK    5  A    between atoms: C_8  and  O_9 
REMARK    6  A    between atoms: C_23  and  C_24 
REMARK       I    between atoms: C_24  and  N_25 
REMARK    7  A    between atoms: N_25  and  C_26 
ROOT
HETATM    1  C   UNL     1      42.983 -10.599   7.080  1.00  0.00     0.248 C 
HETATM    2  N   UNL     1      43.755 -10.154   8.117  1.00  0.00    -0.323 N 
HETATM    3  O   UNL     1      41.809 -10.303   6.843  1.00  0.00    -0.271 OA
HETATM    4  H   UNL     1      44.772 -10.194   8.041  1.00  0.00     0.169 HD
ENDROOT
BRANCH   1   5
HETATM    5  C   UNL     1      43.695 -11.506   6.072  1.00  0.00     0.337 C 
BRANCH   5   6
HETATM    6  N   UNL     1      42.831 -12.762   5.849  1.00  0.00    -0.058 N 
HETATM    7  C   UNL     1      41.375 -12.449   5.755  1.00  0.00     0.270 C 
HETATM    8  H   UNL     1      43.142 -13.082   4.912  1.00  0.00     0.280 HD
BRANCH   6   9
HETATM    9  C   UNL     1      43.121 -13.901   6.826  1.00  0.00     0.337 C 
BRANCH   9  10
HETATM   10  C   UNL     1      43.701 -15.167   6.185  1.00  0.00     0.248 C 
HETATM   11  N   UNL     1      42.970 -15.675   5.129  1.00  0.00    -0.326 N 
HETATM   12  H   UNL     1      42.225 -15.109   4.732  1.00  0.00     0.169 HD
HETATM   13  O   UNL     1      44.797 -15.578   6.564  1.00  0.00    -0.271 OA
BRANCH  11  14
HETATM   14  C   UNL     1      43.244 -16.875   4.432  1.00  0.00     0.036 A 
HETATM   15  C   UNL     1      43.712 -18.039   5.048  1.00  0.00     0.055 A 
HETATM   16  C   UNL     1      43.944 -19.200   4.297  1.00  0.00     0.058 A 
HETATM   17 CL   UNL     1      44.517 -20.596   5.141  1.00  0.00    -0.082 Cl
HETATM   18  C   UNL     1      43.707 -19.205   2.920  1.00  0.00     0.055 A 
HETATM   19 CL   UNL     1      43.974 -20.595   1.934  1.00  0.00    -0.083 Cl
HETATM   20  C   UNL     1      43.234 -18.046   2.303  1.00  0.00     0.028 A 
HETATM   21  C   UNL     1      42.997 -16.890   3.055  1.00  0.00     0.031 A 
ENDBRANCH  11  14
ENDBRANCH   9  10
ENDBRANCH   6   9
ENDBRANCH   5   6
ENDBRANCH   1   5
BRANCH   2  22
HETATM   22  C   UNL     1      43.317  -9.477   9.278  1.00  0.00     0.071 A 
HETATM   23  C   UNL     1      43.240  -8.075   9.189  1.00  0.00     0.096 A 
HETATM   24  C   UNL     1      42.941  -7.272  10.300  1.00  0.00     0.054 A 
HETATM   25  C   UNL     1      42.679  -7.914  11.525  1.00  0.00     0.014 A 
HETATM   26  C   UNL     1      42.711  -9.303  11.567  1.00  0.00     0.089 A 
HETATM   27  C   UNL     1      42.385  -7.490  12.856  1.00  0.00     0.011 A 
HETATM   28  O   UNL     1      42.430  -9.751  12.821  1.00  0.00    -0.309 OA
HETATM   29  C   UNL     1      43.017 -10.124  10.478  1.00  0.00     0.070 A 
HETATM   30  C   UNL     1      42.240  -8.654  13.603  1.00  0.00     0.087 A 
HETATM   31  C   UNL     1      41.950  -8.677  14.965  1.00  0.00     0.038 A 
HETATM   32  C   UNL     1      41.811  -7.437  15.597  1.00  0.00     0.003 A 
HETATM   33  C   UNL     1      41.954  -6.244  14.883  1.00  0.00     0.001 A 
HETATM   34  C   UNL     1      42.239  -6.252  13.510  1.00  0.00     0.015 A 
BRANCH  23  35
HETATM   35  O   UNL     1      43.522  -7.512   7.962  1.00  0.00    -0.354 OA
HETATM   36  C   UNL     1      42.384  -6.825   7.434  1.00  0.00     0.210 C 
ENDBRANCH  23  35
ENDBRANCH   2  22
TORSDOF 7
ENDMDL
