MODEL 1
REMARK VINA RESULT:     -10.7      0.000      0.000
REMARK  8 active torsions:
REMARK  status: ('A' for Active; 'I' for Inactive)
REMARK    1  A    between atoms: C_4  and  C_5 
REMARK    2  A    between atoms: C_5  and  N_6 
REMARK    3  A    between atoms: C_5  and  C_36 
REMARK    4  A    between atoms: N_10  and  C_11 
REMARK    5  A    between atoms: C_13  and  C_14 
REMARK       I    between atoms: C_14  and  N_15 
REMARK    6  A    between atoms: N_15  and  C_16 
REMARK    7  A    between atoms: C_19  and  O_20 
REMARK    8  A    between atoms: O_20  and  C_21 
ROOT
HETATM    1  C   UNL     1      39.973 -10.050   4.718  1.00  0.00     0.181 C 
HETATM    2  N   UNL     1      41.301 -10.003   4.994  1.00  0.00    -0.249 NA
HETATM    3  C   UNL     1      41.784 -10.001   6.377  1.00  0.00     0.164 C 
HETATM    4  C   UNL     1      40.696  -9.781   7.393  1.00  0.00     0.134 C 
HETATM    5  C   UNL     1      39.392 -10.346   6.909  1.00  0.00     0.247 C 
HETATM    6  O   UNL     1      38.623 -10.872   7.709  1.00  0.00    -0.271 OA
HETATM    7  N   UNL     1      39.038 -10.131   5.602  1.00  0.00    -0.185 NA
HETATM    8  H   UNL     1      41.781 -10.752   4.485  1.00  0.00     0.131 HD
ENDROOT
BRANCH   1   9
HETATM    9  N   UNL     1      39.692  -9.989   3.367  1.00  0.00    -0.353 N 
HETATM   10  C   UNL     1      38.534 -10.650   2.745  1.00  0.00     0.153 C 
HETATM   11  C   UNL     1      38.962 -12.013   2.173  1.00  0.00     0.256 C 
HETATM   12  N   UNL     1      40.096 -11.808   1.166  1.00  0.00    -0.056 N 
HETATM   13  H   UNL     1      39.743 -11.139   0.476  1.00  0.00     0.281 HD
HETATM   14  C   UNL     1      41.282 -11.090   1.824  1.00  0.00     0.256 C 
HETATM   15  C   UNL     1      40.798  -9.744   2.414  1.00  0.00     0.153 C 
BRANCH  12  16
HETATM   16  C   UNL     1      40.403 -13.063   0.349  1.00  0.00     0.254 C 
BRANCH  16  17
HETATM   17  C   UNL     1      39.436 -13.323  -0.802  1.00  0.00    -0.023 A 
HETATM   18  C   UNL     1      39.580 -14.498  -1.568  1.00  0.00     0.009 A 
HETATM   19  C   UNL     1      38.736 -14.765  -2.647  1.00  0.00     0.001 A 
HETATM   20  C   UNL     1      37.729 -13.866  -2.982  1.00  0.00     0.000 A 
HETATM   21  C   UNL     1      37.561 -12.705  -2.234  1.00  0.00     0.001 A 
HETATM   22  C   UNL     1      38.404 -12.435  -1.153  1.00  0.00     0.009 A 
ENDBRANCH  16  17
BRANCH  16  23
HETATM   23  C   UNL     1      40.817 -14.252   1.217  1.00  0.00    -0.023 A 
HETATM   24  C   UNL     1      39.908 -15.030   1.953  1.00  0.00     0.009 A 
HETATM   25  C   UNL     1      40.342 -16.122   2.709  1.00  0.00     0.001 A 
HETATM   26  C   UNL     1      41.690 -16.462   2.747  1.00  0.00     0.000 A 
HETATM   27  C   UNL     1      42.609 -15.716   2.019  1.00  0.00     0.001 A 
HETATM   28  C   UNL     1      42.179 -14.626   1.258  1.00  0.00     0.009 A 
ENDBRANCH  16  23
ENDBRANCH  12  16
ENDBRANCH   1   9
BRANCH   3  29
HETATM   29  C   UNL     1      42.600 -11.284   6.626  1.00  0.00     0.240 C 
HETATM   30  N   UNL     1      42.212 -12.354   5.833  1.00  0.00    -0.326 N 
HETATM   31  H   UNL     1      41.486 -12.197   5.145  1.00  0.00     0.169 HD
HETATM   32  O   UNL     1      43.411 -11.314   7.552  1.00  0.00    -0.271 OA
BRANCH  30  33
HETATM   33  C   UNL     1      42.568 -13.709   6.025  1.00  0.00     0.034 A 
HETATM   34  C   UNL     1      41.524 -14.645   6.067  1.00  0.00     0.032 A 
HETATM   35  C   UNL     1      41.783 -15.992   6.346  1.00  0.00     0.039 A 
HETATM   36  C   UNL     1      43.096 -16.422   6.537  1.00  0.00     0.076 A 
HETATM   37  C   UNL     1      44.138 -15.499   6.481  1.00  0.00     0.039 A 
HETATM   38  C   UNL     1      43.877 -14.150   6.222  1.00  0.00     0.032 A 
BRANCH  36  39
HETATM   39  O   UNL     1      43.441 -17.706   6.883  1.00  0.00    -0.311 OA
BRANCH  39  40
HETATM   40  C   UNL     1      43.603 -18.648   5.893  1.00  0.00     0.076 A 
HETATM   41  C   UNL     1      43.935 -18.334   4.573  1.00  0.00     0.037 A 
HETATM   42  C   UNL     1      44.130 -19.358   3.644  1.00  0.00     0.003 A 
HETATM   43  C   UNL     1      44.021 -20.692   4.039  1.00  0.00     0.000 A 
HETATM   44  C   UNL     1      43.721 -21.005   5.365  1.00  0.00     0.003 A 
HETATM   45  C   UNL     1      43.516 -19.983   6.292  1.00  0.00     0.037 A 
ENDBRANCH  39  40
ENDBRANCH  36  39
ENDBRANCH  30  33
ENDBRANCH   3  29
TORSDOF 8
ENDMDL
MODEL 2
REMARK VINA RESULT:     -10.4      3.824      8.615
REMARK  8 active torsions:
REMARK  status: ('A' for Active; 'I' for Inactive)
REMARK    1  A    between atoms: C_4  and  C_5 
REMARK    2  A    between atoms: C_5  and  N_6 
REMARK    3  A    between atoms: C_5  and  C_36 
REMARK    4  A    between atoms: N_10  and  C_11 
REMARK    5  A    between atoms: C_13  and  C_14 
REMARK       I    between atoms: C_14  and  N_15 
REMARK    6  A    between atoms: N_15  and  C_16 
REMARK    7  A    between atoms: C_19  and  O_20 
REMARK    8  A    between atoms: O_20  and  C_21 
ROOT
HETATM    1  C   UNL     1      39.002  -9.116   7.162  1.00  0.00     0.181 C 
HETATM    2  N   UNL     1      39.016 -10.467   7.039  1.00  0.00    -0.249 NA
HETATM    3  C   UNL     1      39.035 -11.103   5.719  1.00  0.00     0.164 C 
HETATM    4  C   UNL     1      38.762 -10.149   4.589  1.00  0.00     0.134 C 
HETATM    5  C   UNL     1      39.266  -8.773   4.918  1.00  0.00     0.247 C 
HETATM    6  O   UNL     1      39.754  -8.077   4.032  1.00  0.00    -0.271 OA
HETATM    7  N   UNL     1      39.037  -8.284   6.178  1.00  0.00    -0.185 NA
HETATM    8  H   UNL     1      39.788 -10.851   7.594  1.00  0.00     0.131 HD
ENDROOT
BRANCH   1   9
HETATM    9  N   UNL     1      38.930  -8.687   8.474  1.00  0.00    -0.353 N 
HETATM   10  C   UNL     1      39.102  -7.283   8.882  1.00  0.00     0.153 C 
HETATM   11  C   UNL     1      40.558  -7.047   9.319  1.00  0.00     0.256 C 
HETATM   12  N   UNL     1      40.909  -8.007  10.457  1.00  0.00    -0.056 N 
HETATM   13  H   UNL     1      40.207  -7.851  11.185  1.00  0.00     0.281 HD
HETATM   14  C   UNL     1      40.695  -9.463  10.023  1.00  0.00     0.256 C 
HETATM   15  C   UNL     1      39.230  -9.646   9.561  1.00  0.00     0.153 C 
BRANCH  12  16
HETATM   16  C   UNL     1      42.236  -7.667  11.136  1.00  0.00     0.254 C 
BRANCH  16  17
HETATM   17  C   UNL     1      43.464  -8.289  10.478  1.00  0.00    -0.023 A 
HETATM   18  C   UNL     1      43.907  -7.784   9.238  1.00  0.00     0.009 A 
HETATM   19  C   UNL     1      45.009  -8.339   8.585  1.00  0.00     0.001 A 
HETATM   20  C   UNL     1      45.693  -9.406   9.157  1.00  0.00     0.000 A 
HETATM   21  C   UNL     1      45.280  -9.914  10.386  1.00  0.00     0.001 A 
HETATM   22  C   UNL     1      44.177  -9.360  11.041  1.00  0.00     0.009 A 
ENDBRANCH  16  17
BRANCH  16  23
HETATM   23  C   UNL     1      42.150  -7.700  12.663  1.00  0.00    -0.023 A 
HETATM   24  C   UNL     1      42.956  -6.916  13.503  1.00  0.00     0.009 A 
HETATM   25  C   UNL     1      42.814  -6.970  14.893  1.00  0.00     0.001 A 
HETATM   26  C   UNL     1      41.865  -7.805  15.472  1.00  0.00     0.000 A 
HETATM   27  C   UNL     1      41.047  -8.584  14.663  1.00  0.00     0.001 A 
HETATM   28  C   UNL     1      41.182  -8.529  13.273  1.00  0.00     0.009 A 
ENDBRANCH  16  23
ENDBRANCH  12  16
ENDBRANCH   1   9
BRANCH   3  29
HETATM   29  C   UNL     1      40.354 -11.882   5.556  1.00  0.00     0.240 C 
HETATM   30  N   UNL     1      40.212 -13.084   4.880  1.00  0.00    -0.326 N 
HETATM   31  H   UNL     1      39.296 -13.320   4.518  1.00  0.00     0.169 HD
HETATM   32  O   UNL     1      41.370 -11.473   6.118  1.00  0.00    -0.271 OA
BRANCH  30  33
HETATM   33  C   UNL     1      41.162 -14.131   4.827  1.00  0.00     0.034 A 
HETATM   34  C   UNL     1      41.023 -15.169   5.758  1.00  0.00     0.032 A 
HETATM   35  C   UNL     1      41.974 -16.195   5.833  1.00  0.00     0.039 A 
HETATM   36  C   UNL     1      43.046 -16.213   4.941  1.00  0.00     0.076 A 
HETATM   37  C   UNL     1      43.180 -15.192   4.003  1.00  0.00     0.039 A 
HETATM   38  C   UNL     1      42.241 -14.158   3.942  1.00  0.00     0.032 A 
BRANCH  36  39
HETATM   39  O   UNL     1      44.064 -17.136   4.982  1.00  0.00    -0.311 OA
BRANCH  39  40
HETATM   40  C   UNL     1      43.901 -18.343   4.342  1.00  0.00     0.076 A 
HETATM   41  C   UNL     1      43.660 -18.467   2.972  1.00  0.00     0.037 A 
HETATM   42  C   UNL     1      43.559 -19.735   2.397  1.00  0.00     0.003 A 
HETATM   43  C   UNL     1      43.726 -20.876   3.183  1.00  0.00     0.000 A 
HETATM   44  C   UNL     1      43.999 -20.751   4.545  1.00  0.00     0.003 A 
HETATM   45  C   UNL     1      44.091 -19.485   5.123  1.00  0.00     0.037 A 
ENDBRANCH  39  40
ENDBRANCH  36  39
ENDBRANCH  30  33
ENDBRANCH   3  29
TORSDOF 8
ENDMDL
MODEL 3
REMARK VINA RESULT:     -10.3      0.790      3.100
REMARK  8 active torsions:
REMARK  status: ('A' for Active; 'I' for Inactive)
REMARK    1  A    between atoms: C_4  and  C_5 
REMARK    2  A    between atoms: C_5  and  N_6 
REMARK    3  A    between atoms: C_5  and  C_36 
REMARK    4  A    between atoms: N_10  and  C_11 
REMARK    5  A    between atoms: C_13  and  C_14 
REMARK       I    between atoms: C_14  and  N_15 
REMARK    6  A    between atoms: N_15  and  C_16 
REMARK    7  A    between atoms: C_19  and  O_20 
REMARK    8  A    between atoms: O_20  and  C_21 
ROOT
HETATM    1  C   UNL     1      40.552 -10.048   4.833  1.00  0.00     0.181 C 
HETATM    2  N   UNL     1      41.883 -10.152   5.074  1.00  0.00    -0.249 NA
HETATM    3  C   UNL     1      42.411 -10.069   6.438  1.00  0.00     0.164 C 
HETATM    4  C   UNL     1      41.399  -9.596   7.446  1.00  0.00     0.134 C 
HETATM    5  C   UNL     1      40.015 -10.026   7.055  1.00  0.00     0.247 C 
HETATM    6  O   UNL     1      39.211 -10.354   7.924  1.00  0.00    -0.271 OA
HETATM    7  N   UNL     1      39.647  -9.905   5.740  1.00  0.00    -0.185 NA
HETATM    8  H   UNL     1      42.240 -11.010   4.641  1.00  0.00     0.131 HD
ENDROOT
BRANCH   1   9
HETATM    9  N   UNL     1      40.234 -10.093   3.490  1.00  0.00    -0.353 N 
HETATM   10  C   UNL     1      38.908 -10.477   2.979  1.00  0.00     0.153 C 
HETATM   11  C   UNL     1      38.910 -11.970   2.605  1.00  0.00     0.256 C 
HETATM   12  N   UNL     1      40.005 -12.232   1.570  1.00  0.00    -0.056 N 
HETATM   13  H   UNL     1      39.820 -11.591   0.794  1.00  0.00     0.281 HD
HETATM   14  C   UNL     1      41.375 -11.798   2.108  1.00  0.00     0.256 C 
HETATM   15  C   UNL     1      41.316 -10.303   2.502  1.00  0.00     0.153 C 
BRANCH  12  16
HETATM   16  C   UNL     1      39.909 -13.622   0.939  1.00  0.00     0.254 C 
BRANCH  16  17
HETATM   17  C   UNL     1      40.782 -14.682   1.604  1.00  0.00    -0.023 A 
HETATM   18  C   UNL     1      42.064 -14.942   1.080  1.00  0.00     0.009 A 
HETATM   19  C   UNL     1      42.887 -15.922   1.639  1.00  0.00     0.001 A 
HETATM   20  C   UNL     1      42.448 -16.659   2.733  1.00  0.00     0.000 A 
HETATM   21  C   UNL     1      41.190 -16.411   3.274  1.00  0.00     0.001 A 
HETATM   22  C   UNL     1      40.364 -15.432   2.717  1.00  0.00     0.009 A 
ENDBRANCH  16  17
BRANCH  16  23
HETATM   23  C   UNL     1      39.873 -13.581  -0.589  1.00  0.00    -0.023 A 
HETATM   24  C   UNL     1      40.464 -12.561  -1.353  1.00  0.00     0.009 A 
HETATM   25  C   UNL     1      40.421 -12.590  -2.750  1.00  0.00     0.001 A 
HETATM   26  C   UNL     1      39.790 -13.637  -3.413  1.00  0.00     0.000 A 
HETATM   27  C   UNL     1      39.207 -14.665  -2.682  1.00  0.00     0.001 A 
HETATM   28  C   UNL     1      39.252 -14.642  -1.286  1.00  0.00     0.009 A 
ENDBRANCH  16  23
ENDBRANCH  12  16
ENDBRANCH   1   9
BRANCH   3  29
HETATM   29  C   UNL     1      43.057 -11.418   6.810  1.00  0.00     0.240 C 
HETATM   30  N   UNL     1      42.510 -12.502   6.140  1.00  0.00    -0.326 N 
HETATM   31  H   UNL     1      41.793 -12.320   5.448  1.00  0.00     0.169 HD
HETATM   32  O   UNL     1      43.881 -11.461   7.724  1.00  0.00    -0.271 OA
BRANCH  30  33
HETATM   33  C   UNL     1      42.689 -13.865   6.469  1.00  0.00     0.034 A 
HETATM   34  C   UNL     1      44.007 -14.336   6.554  1.00  0.00     0.032 A 
HETATM   35  C   UNL     1      44.268 -15.692   6.783  1.00  0.00     0.039 A 
HETATM   36  C   UNL     1      43.210 -16.580   6.977  1.00  0.00     0.076 A 
HETATM   37  C   UNL     1      41.899 -16.115   6.910  1.00  0.00     0.039 A 
HETATM   38  C   UNL     1      41.638 -14.763   6.662  1.00  0.00     0.032 A 
BRANCH  36  39
HETATM   39  O   UNL     1      43.365 -17.936   7.138  1.00  0.00    -0.311 OA
BRANCH  39  40
HETATM   40  C   UNL     1      43.612 -18.720   6.035  1.00  0.00     0.076 A 
HETATM   41  C   UNL     1      44.173 -18.236   4.851  1.00  0.00     0.037 A 
HETATM   42  C   UNL     1      44.438 -19.113   3.799  1.00  0.00     0.003 A 
HETATM   43  C   UNL     1      44.168 -20.475   3.938  1.00  0.00     0.000 A 
HETATM   44  C   UNL     1      43.638 -20.963   5.132  1.00  0.00     0.003 A 
HETATM   45  C   UNL     1      43.364 -20.086   6.182  1.00  0.00     0.037 A 
ENDBRANCH  39  40
ENDBRANCH  36  39
ENDBRANCH  30  33
ENDBRANCH   3  29
TORSDOF 8
ENDMDL
MODEL 4
REMARK VINA RESULT:     -10.2      5.769      9.673
REMARK  8 active torsions:
REMARK  status: ('A' for Active; 'I' for Inactive)
REMARK    1  A    between atoms: C_4  and  C_5 
REMARK    2  A    between atoms: C_5  and  N_6 
REMARK    3  A    between atoms: C_5  and  C_36 
REMARK    4  A    between atoms: N_10  and  C_11 
REMARK    5  A    between atoms: C_13  and  C_14 
REMARK       I    between atoms: C_14  and  N_15 
REMARK    6  A    between atoms: N_15  and  C_16 
REMARK    7  A    between atoms: C_19  and  O_20 
REMARK    8  A    between atoms: O_20  and  C_21 
ROOT
HETATM    1  C   UNL     1      43.533 -10.356   7.216  1.00  0.00     0.181 C 
HETATM    2  N   UNL     1      42.949 -10.701   8.391  1.00  0.00    -0.249 NA
HETATM    3  C   UNL     1      43.681 -10.595   9.656  1.00  0.00     0.164 C 
HETATM    4  C   UNL     1      45.154 -10.348   9.479  1.00  0.00     0.134 C 
HETATM    5  C   UNL     1      45.416  -9.553   8.233  1.00  0.00     0.247 C 
HETATM    6  O   UNL     1      46.316  -8.717   8.223  1.00  0.00    -0.271 OA
HETATM    7  N   UNL     1      44.727  -9.886   7.096  1.00  0.00    -0.185 NA
HETATM    8  H   UNL     1      42.060 -10.200   8.489  1.00  0.00     0.131 HD
ENDROOT
BRANCH   1   9
HETATM    9  N   UNL     1      42.722 -10.570   6.119  1.00  0.00    -0.353 N 
HETATM   10  C   UNL     1      41.289 -10.895   6.216  1.00  0.00     0.153 C 
HETATM   11  C   UNL     1      41.098 -12.420   6.136  1.00  0.00     0.256 C 
HETATM   12  N   UNL     1      41.702 -12.939   4.830  1.00  0.00    -0.056 N 
HETATM   13  H   UNL     1      41.254 -12.406   4.080  1.00  0.00     0.281 HD
HETATM   14  C   UNL     1      43.187 -12.565   4.732  1.00  0.00     0.256 C 
HETATM   15  C   UNL     1      43.333 -11.029   4.851  1.00  0.00     0.153 C 
BRANCH  12  16
HETATM   16  C   UNL     1      41.325 -14.392   4.534  1.00  0.00     0.254 C 
BRANCH  16  17
HETATM   17  C   UNL     1      42.224 -15.429   5.202  1.00  0.00    -0.023 A 
HETATM   18  C   UNL     1      43.218 -16.070   4.435  1.00  0.00     0.009 A 
HETATM   19  C   UNL     1      44.045 -17.044   4.996  1.00  0.00     0.001 A 
HETATM   20  C   UNL     1      43.899 -17.396   6.334  1.00  0.00     0.000 A 
HETATM   21  C   UNL     1      42.932 -16.768   7.113  1.00  0.00     0.001 A 
HETATM   22  C   UNL     1      42.102 -15.793   6.554  1.00  0.00     0.009 A 
ENDBRANCH  16  17
BRANCH  16  23
HETATM   23  C   UNL     1      40.932 -14.620   3.074  1.00  0.00    -0.023 A 
HETATM   24  C   UNL     1      40.196 -15.732   2.633  1.00  0.00     0.009 A 
HETATM   25  C   UNL     1      39.844 -15.874   1.288  1.00  0.00     0.001 A 
HETATM   26  C   UNL     1      40.217 -14.911   0.356  1.00  0.00     0.000 A 
HETATM   27  C   UNL     1      40.935 -13.795   0.768  1.00  0.00     0.001 A 
HETATM   28  C   UNL     1      41.286 -13.647   2.113  1.00  0.00     0.009 A 
ENDBRANCH  16  23
ENDBRANCH  12  16
ENDBRANCH   1   9
BRANCH   3  29
HETATM   29  C   UNL     1      42.990  -9.546  10.549  1.00  0.00     0.240 C 
HETATM   30  N   UNL     1      43.577  -9.402  11.797  1.00  0.00    -0.326 N 
HETATM   31  H   UNL     1      44.412  -9.941  11.994  1.00  0.00     0.169 HD
HETATM   32  O   UNL     1      41.941  -9.026  10.169  1.00  0.00    -0.271 OA
BRANCH  30  33
HETATM   33  C   UNL     1      43.014  -8.745  12.916  1.00  0.00     0.034 A 
HETATM   34  C   UNL     1      41.962  -9.394  13.577  1.00  0.00     0.032 A 
HETATM   35  C   UNL     1      41.290  -8.771  14.635  1.00  0.00     0.039 A 
HETATM   36  C   UNL     1      41.698  -7.510  15.070  1.00  0.00     0.076 A 
HETATM   37  C   UNL     1      42.753  -6.867  14.427  1.00  0.00     0.039 A 
HETATM   38  C   UNL     1      43.412  -7.482  13.358  1.00  0.00     0.032 A 
BRANCH  36  39
HETATM   39  O   UNL     1      41.057  -6.792  16.051  1.00  0.00    -0.311 OA
BRANCH  39  40
HETATM   40  C   UNL     1      41.106  -7.239  17.351  1.00  0.00     0.076 A 
HETATM   41  C   UNL     1      42.252  -7.180  18.148  1.00  0.00     0.037 A 
HETATM   42  C   UNL     1      42.198  -7.610  19.475  1.00  0.00     0.003 A 
HETATM   43  C   UNL     1      40.995  -8.071  20.013  1.00  0.00     0.000 A 
HETATM   44  C   UNL     1      39.844  -8.099  19.227  1.00  0.00     0.003 A 
HETATM   45  C   UNL     1      39.899  -7.678  17.897  1.00  0.00     0.037 A 
ENDBRANCH  39  40
ENDBRANCH  36  39
ENDBRANCH  30  33
ENDBRANCH   3  29
TORSDOF 8
ENDMDL
MODEL 5
REMARK VINA RESULT:     -10.1      3.114      7.916
REMARK  8 active torsions:
REMARK  status: ('A' for Active; 'I' for Inactive)
REMARK    1  A    between atoms: C_4  and  C_5 
REMARK    2  A    between atoms: C_5  and  N_6 
REMARK    3  A    between atoms: C_5  and  C_36 
REMARK    4  A    between atoms: N_10  and  C_11 
REMARK    5  A    between atoms: C_13  and  C_14 
REMARK       I    between atoms: C_14  and  N_15 
REMARK    6  A    between atoms: N_15  and  C_16 
REMARK    7  A    between atoms: C_19  and  O_20 
REMARK    8  A    between atoms: O_20  and  C_21 
ROOT
HETATM    1  C   UNL     1      39.677  -9.267   4.989  1.00  0.00     0.181 C 
HETATM    2  N   UNL     1      39.579 -10.581   5.312  1.00  0.00    -0.249 NA
HETATM    3  C   UNL     1      39.265 -11.587   4.294  1.00  0.00     0.164 C 
HETATM    4  C   UNL     1      38.810 -10.996   2.987  1.00  0.00     0.134 C 
HETATM    5  C   UNL     1      39.459  -9.664   2.748  1.00  0.00     0.247 C 
HETATM    6  O   UNL     1      39.782  -9.341   1.608  1.00  0.00    -0.271 OA
HETATM    7  N   UNL     1      39.546  -8.788   3.799  1.00  0.00    -0.185 NA
HETATM    8  H   UNL     1      40.429 -10.874   5.805  1.00  0.00     0.131 HD
ENDROOT
BRANCH   1   9
HETATM    9  N   UNL     1      39.924  -8.453   6.077  1.00  0.00    -0.353 N 
HETATM   10  C   UNL     1      41.142  -7.640   6.227  1.00  0.00     0.153 C 
HETATM   11  C   UNL     1      42.169  -8.400   7.085  1.00  0.00     0.256 C 
HETATM   12  N   UNL     1      41.548  -8.732   8.444  1.00  0.00    -0.056 N 
HETATM   13  H   UNL     1      41.230  -7.841   8.834  1.00  0.00     0.281 HD
HETATM   14  C   UNL     1      40.264  -9.553   8.267  1.00  0.00     0.256 C 
HETATM   15  C   UNL     1      39.276  -8.767   7.371  1.00  0.00     0.153 C 
BRANCH  12  16
HETATM   16  C   UNL     1      42.571  -9.243   9.458  1.00  0.00     0.254 C 
BRANCH  16  17
HETATM   17  C   UNL     1      42.655  -8.424  10.743  1.00  0.00    -0.023 A 
HETATM   18  C   UNL     1      42.209  -7.086  10.733  1.00  0.00     0.009 A 
HETATM   19  C   UNL     1      42.291  -6.290  11.877  1.00  0.00     0.001 A 
HETATM   20  C   UNL     1      42.816  -6.813  13.054  1.00  0.00     0.000 A 
HETATM   21  C   UNL     1      43.252  -8.135  13.089  1.00  0.00     0.001 A 
HETATM   22  C   UNL     1      43.171  -8.934  11.946  1.00  0.00     0.009 A 
ENDBRANCH  16  17
BRANCH  16  23
HETATM   23  C   UNL     1      43.882  -9.690   8.809  1.00  0.00    -0.023 A 
HETATM   24  C   UNL     1      44.048 -10.930   8.170  1.00  0.00     0.009 A 
HETATM   25  C   UNL     1      45.264 -11.273   7.571  1.00  0.00     0.001 A 
HETATM   26  C   UNL     1      46.336 -10.388   7.595  1.00  0.00     0.000 A 
HETATM   27  C   UNL     1      46.195  -9.151   8.211  1.00  0.00     0.001 A 
HETATM   28  C   UNL     1      44.980  -8.801   8.807  1.00  0.00     0.009 A 
ENDBRANCH  16  23
ENDBRANCH  12  16
ENDBRANCH   1   9
BRANCH   3  29
HETATM   29  C   UNL     1      40.465 -12.543   4.146  1.00  0.00     0.240 C 
HETATM   30  N   UNL     1      40.524 -13.177   2.914  1.00  0.00    -0.326 N 
HETATM   31  H   UNL     1      39.830 -12.930   2.219  1.00  0.00     0.169 HD
HETATM   32  O   UNL     1      41.180 -12.771   5.122  1.00  0.00    -0.271 OA
BRANCH  30  33
HETATM   33  C   UNL     1      41.321 -14.298   2.588  1.00  0.00     0.034 A 
HETATM   34  C   UNL     1      40.732 -15.563   2.722  1.00  0.00     0.032 A 
HETATM   35  C   UNL     1      41.481 -16.727   2.509  1.00  0.00     0.039 A 
HETATM   36  C   UNL     1      42.814 -16.631   2.112  1.00  0.00     0.076 A 
HETATM   37  C   UNL     1      43.400 -15.376   1.961  1.00  0.00     0.039 A 
HETATM   38  C   UNL     1      42.658 -14.215   2.193  1.00  0.00     0.032 A 
BRANCH  36  39
HETATM   39  O   UNL     1      43.647 -17.713   1.946  1.00  0.00    -0.311 OA
BRANCH  39  40
HETATM   40  C   UNL     1      43.794 -18.610   2.978  1.00  0.00     0.076 A 
HETATM   41  C   UNL     1      43.901 -18.237   4.320  1.00  0.00     0.037 A 
HETATM   42  C   UNL     1      43.996 -19.217   5.308  1.00  0.00     0.003 A 
HETATM   43  C   UNL     1      43.958 -20.568   4.960  1.00  0.00     0.000 A 
HETATM   44  C   UNL     1      43.820 -20.941   3.623  1.00  0.00     0.003 A 
HETATM   45  C   UNL     1      43.733 -19.961   2.633  1.00  0.00     0.037 A 
ENDBRANCH  39  40
ENDBRANCH  36  39
ENDBRANCH  30  33
ENDBRANCH   3  29
TORSDOF 8
ENDMDL
MODEL 6
REMARK VINA RESULT:     -10.0      2.635      6.464
REMARK  8 active torsions:
REMARK  status: ('A' for Active; 'I' for Inactive)
REMARK    1  A    between atoms: C_4  and  C_5 
REMARK    2  A    between atoms: C_5  and  N_6 
REMARK    3  A    between atoms: C_5  and  C_36 
REMARK    4  A    between atoms: N_10  and  C_11 
REMARK    5  A    between atoms: C_13  and  C_14 
REMARK       I    between atoms: C_14  and  N_15 
REMARK    6  A    between atoms: N_15  and  C_16 
REMARK    7  A    between atoms: C_19  and  O_20 
REMARK    8  A    between atoms: O_20  and  C_21 
ROOT
HETATM    1  C   UNL     1      39.630 -10.171   2.713  1.00  0.00     0.181 C 
HETATM    2  N   UNL     1      39.087 -11.414   2.667  1.00  0.00    -0.249 NA
HETATM    3  C   UNL     1      38.535 -11.950   1.421  1.00  0.00     0.164 C 
HETATM    4  C   UNL     1      38.388 -10.917   0.336  1.00  0.00     0.134 C 
HETATM    5  C   UNL     1      39.451  -9.863   0.456  1.00  0.00     0.247 C 
HETATM    6  O   UNL     1      39.939  -9.375  -0.560  1.00  0.00    -0.271 OA
HETATM    7  N   UNL     1      39.744  -9.378   1.704  1.00  0.00    -0.185 NA
HETATM    8  H   UNL     1      39.759 -12.092   3.041  1.00  0.00     0.131 HD
ENDROOT
BRANCH   1   9
HETATM    9  N   UNL     1      40.052  -9.805   3.977  1.00  0.00    -0.353 N 
HETATM   10  C   UNL     1      41.241  -8.975   4.230  1.00  0.00     0.153 C 
HETATM   11  C   UNL     1      42.447  -9.879   4.539  1.00  0.00     0.256 C 
HETATM   12  N   UNL     1      42.120 -10.768   5.741  1.00  0.00    -0.056 N 
HETATM   13  H   UNL     1      41.848 -10.133   6.496  1.00  0.00     0.281 HD
HETATM   14  C   UNL     1      40.861 -11.603   5.471  1.00  0.00     0.256 C 
HETATM   15  C   UNL     1      39.685 -10.657   5.132  1.00  0.00     0.153 C 
BRANCH  12  16
HETATM   16  C   UNL     1      43.343 -11.503   6.290  1.00  0.00     0.254 C 
BRANCH  16  17
HETATM   17  C   UNL     1      43.192 -13.019   6.366  1.00  0.00    -0.023 A 
HETATM   18  C   UNL     1      43.021 -13.752   5.174  1.00  0.00     0.009 A 
HETATM   19  C   UNL     1      42.851 -15.137   5.196  1.00  0.00     0.001 A 
HETATM   20  C   UNL     1      42.852 -15.819   6.408  1.00  0.00     0.000 A 
HETATM   21  C   UNL     1      43.030 -15.118   7.597  1.00  0.00     0.001 A 
HETATM   22  C   UNL     1      43.200 -13.731   7.578  1.00  0.00     0.009 A 
ENDBRANCH  16  17
BRANCH  16  23
HETATM   23  C   UNL     1      43.983 -10.788   7.480  1.00  0.00    -0.023 A 
HETATM   24  C   UNL     1      43.245 -10.157   8.495  1.00  0.00     0.009 A 
HETATM   25  C   UNL     1      43.885  -9.540   9.574  1.00  0.00     0.001 A 
HETATM   26  C   UNL     1      45.273  -9.541   9.664  1.00  0.00     0.000 A 
HETATM   27  C   UNL     1      46.027 -10.167   8.679  1.00  0.00     0.001 A 
HETATM   28  C   UNL     1      45.391 -10.789   7.602  1.00  0.00     0.009 A 
ENDBRANCH  16  23
ENDBRANCH  12  16
ENDBRANCH   1   9
BRANCH   3  29
HETATM   29  C   UNL     1      39.365 -13.174   0.989  1.00  0.00     0.240 C 
HETATM   30  N   UNL     1      39.954 -13.850   2.046  1.00  0.00    -0.326 N 
HETATM   31  H   UNL     1      39.757 -13.526   2.985  1.00  0.00     0.169 HD
HETATM   32  O   UNL     1      39.550 -13.386  -0.210  1.00  0.00    -0.271 OA
BRANCH  30  33
HETATM   33  C   UNL     1      40.983 -14.815   1.953  1.00  0.00     0.034 A 
HETATM   34  C   UNL     1      40.648 -16.140   2.271  1.00  0.00     0.032 A 
HETATM   35  C   UNL     1      41.628 -17.139   2.293  1.00  0.00     0.039 A 
HETATM   36  C   UNL     1      42.944 -16.829   1.950  1.00  0.00     0.076 A 
HETATM   37  C   UNL     1      43.279 -15.518   1.617  1.00  0.00     0.039 A 
HETATM   38  C   UNL     1      42.303 -14.516   1.614  1.00  0.00     0.032 A 
BRANCH  36  39
HETATM   39  O   UNL     1      43.985 -17.724   2.009  1.00  0.00    -0.311 OA
BRANCH  39  40
HETATM   40  C   UNL     1      43.939 -18.748   2.926  1.00  0.00     0.076 A 
HETATM   41  C   UNL     1      43.768 -20.091   2.581  1.00  0.00     0.037 A 
HETATM   42  C   UNL     1      43.785 -21.071   3.574  1.00  0.00     0.003 A 
HETATM   43  C   UNL     1      43.999 -20.714   4.906  1.00  0.00     0.000 A 
HETATM   44  C   UNL     1      44.201 -19.377   5.247  1.00  0.00     0.003 A 
HETATM   45  C   UNL     1      44.176 -18.395   4.256  1.00  0.00     0.037 A 
ENDBRANCH  39  40
ENDBRANCH  36  39
ENDBRANCH  30  33
ENDBRANCH   3  29
TORSDOF 8
ENDMDL
MODEL 7
REMARK VINA RESULT:     -10.0      3.193      7.814
REMARK  8 active torsions:
REMARK  status: ('A' for Active; 'I' for Inactive)
REMARK    1  A    between atoms: C_4  and  C_5 
REMARK    2  A    between atoms: C_5  and  N_6 
REMARK    3  A    between atoms: C_5  and  C_36 
REMARK    4  A    between atoms: N_10  and  C_11 
REMARK    5  A    between atoms: C_13  and  C_14 
REMARK       I    between atoms: C_14  and  N_15 
REMARK    6  A    between atoms: N_15  and  C_16 
REMARK    7  A    between atoms: C_19  and  O_20 
REMARK    8  A    between atoms: O_20  and  C_21 
ROOT
HETATM    1  C   UNL     1      39.819  -8.946   4.946  1.00  0.00     0.181 C 
HETATM    2  N   UNL     1      39.200 -10.135   5.159  1.00  0.00    -0.249 NA
HETATM    3  C   UNL     1      38.891 -11.034   4.044  1.00  0.00     0.164 C 
HETATM    4  C   UNL     1      39.068 -10.397   2.692  1.00  0.00     0.134 C 
HETATM    5  C   UNL     1      40.161  -9.368   2.726  1.00  0.00     0.247 C 
HETATM    6  O   UNL     1      40.896  -9.231   1.752  1.00  0.00    -0.271 OA
HETATM    7  N   UNL     1      40.214  -8.515   3.797  1.00  0.00    -0.185 NA
HETATM    8  H   UNL     1      39.718 -10.665   5.868  1.00  0.00     0.131 HD
ENDROOT
BRANCH   1   9
HETATM    9  N   UNL     1      39.984  -8.201   6.098  1.00  0.00    -0.353 N 
HETATM   10  C   UNL     1      41.153  -7.344   6.353  1.00  0.00     0.153 C 
HETATM   11  C   UNL     1      42.185  -8.113   7.196  1.00  0.00     0.256 C 
HETATM   12  N   UNL     1      41.533  -8.572   8.502  1.00  0.00    -0.056 N 
HETATM   13  H   UNL     1      41.156  -7.727   8.941  1.00  0.00     0.281 HD
HETATM   14  C   UNL     1      40.300  -9.439   8.217  1.00  0.00     0.256 C 
HETATM   15  C   UNL     1      39.307  -8.639   7.340  1.00  0.00     0.153 C 
BRANCH  12  16
HETATM   16  C   UNL     1      42.544  -9.105   9.518  1.00  0.00     0.254 C 
BRANCH  16  17
HETATM   17  C   UNL     1      42.660  -8.274  10.793  1.00  0.00    -0.023 A 
HETATM   18  C   UNL     1      43.145  -8.885  11.967  1.00  0.00     0.009 A 
HETATM   19  C   UNL     1      43.243  -8.172  13.163  1.00  0.00     0.001 A 
HETATM   20  C   UNL     1      42.863  -6.835  13.211  1.00  0.00     0.000 A 
HETATM   21  C   UNL     1      42.391  -6.209  12.060  1.00  0.00     0.001 A 
HETATM   22  C   UNL     1      42.292  -6.920  10.862  1.00  0.00     0.009 A 
ENDBRANCH  16  17
BRANCH  16  23
HETATM   23  C   UNL     1      43.835  -9.602   8.868  1.00  0.00    -0.023 A 
HETATM   24  C   UNL     1      43.962 -10.859   8.256  1.00  0.00     0.009 A 
HETATM   25  C   UNL     1      45.163 -11.250   7.655  1.00  0.00     0.001 A 
HETATM   26  C   UNL     1      46.259 -10.395   7.651  1.00  0.00     0.000 A 
HETATM   27  C   UNL     1      46.157  -9.140   8.240  1.00  0.00     0.001 A 
HETATM   28  C   UNL     1      44.958  -8.744   8.838  1.00  0.00     0.009 A 
ENDBRANCH  16  23
ENDBRANCH  12  16
ENDBRANCH   1   9
BRANCH   3  29
HETATM   29  C   UNL     1      39.693 -12.338   4.213  1.00  0.00     0.240 C 
HETATM   30  N   UNL     1      39.733 -12.804   5.519  1.00  0.00    -0.326 N 
HETATM   31  H   UNL     1      39.208 -12.296   6.220  1.00  0.00     0.169 HD
HETATM   32  O   UNL     1      40.323 -12.788   3.256  1.00  0.00    -0.271 OA
BRANCH  30  33
HETATM   33  C   UNL     1      40.606 -13.792   6.029  1.00  0.00     0.034 A 
HETATM   34  C   UNL     1      41.943 -13.423   6.232  1.00  0.00     0.032 A 
HETATM   35  C   UNL     1      42.891 -14.366   6.645  1.00  0.00     0.039 A 
HETATM   36  C   UNL     1      42.497 -15.678   6.905  1.00  0.00     0.076 A 
HETATM   37  C   UNL     1      41.166 -16.047   6.720  1.00  0.00     0.039 A 
HETATM   38  C   UNL     1      40.223 -15.109   6.289  1.00  0.00     0.032 A 
BRANCH  36  39
HETATM   39  O   UNL     1      43.364 -16.688   7.247  1.00  0.00    -0.311 OA
BRANCH  39  40
HETATM   40  C   UNL     1      43.623 -17.687   6.338  1.00  0.00     0.076 A 
HETATM   41  C   UNL     1      44.235 -17.470   5.101  1.00  0.00     0.037 A 
HETATM   42  C   UNL     1      44.507 -18.551   4.262  1.00  0.00     0.003 A 
HETATM   43  C   UNL     1      44.192 -19.849   4.667  1.00  0.00     0.000 A 
HETATM   44  C   UNL     1      43.610 -20.069   5.915  1.00  0.00     0.003 A 
HETATM   45  C   UNL     1      43.330 -18.988   6.752  1.00  0.00     0.037 A 
ENDBRANCH  39  40
ENDBRANCH  36  39
ENDBRANCH  30  33
ENDBRANCH   3  29
TORSDOF 8
ENDMDL
MODEL 8
REMARK VINA RESULT:      -9.9      3.082      7.719
REMARK  8 active torsions:
REMARK  status: ('A' for Active; 'I' for Inactive)
REMARK    1  A    between atoms: C_4  and  C_5 
REMARK    2  A    between atoms: C_5  and  N_6 
REMARK    3  A    between atoms: C_5  and  C_36 
REMARK    4  A    between atoms: N_10  and  C_11 
REMARK    5  A    between atoms: C_13  and  C_14 
REMARK       I    between atoms: C_14  and  N_15 
REMARK    6  A    between atoms: N_15  and  C_16 
REMARK    7  A    between atoms: C_19  and  O_20 
REMARK    8  A    between atoms: O_20  and  C_21 
ROOT
HETATM    1  C   UNL     1      39.667  -9.215   5.170  1.00  0.00     0.181 C 
HETATM    2  N   UNL     1      39.366 -10.537   5.187  1.00  0.00    -0.249 NA
HETATM    3  C   UNL     1      39.287 -11.308   3.943  1.00  0.00     0.164 C 
HETATM    4  C   UNL     1      39.295 -10.453   2.705  1.00  0.00     0.134 C 
HETATM    5  C   UNL     1      40.097  -9.203   2.925  1.00  0.00     0.247 C 
HETATM    6  O   UNL     1      40.772  -8.745   2.007  1.00  0.00    -0.271 OA
HETATM    7  N   UNL     1      39.939  -8.533   4.110  1.00  0.00    -0.185 NA
HETATM    8  H   UNL     1      40.001 -11.023   5.828  1.00  0.00     0.131 HD
ENDROOT
BRANCH   1   9
HETATM    9  N   UNL     1      39.645  -8.633   6.423  1.00  0.00    -0.353 N 
HETATM   10  C   UNL     1      40.277  -7.340   6.732  1.00  0.00     0.153 C 
HETATM   11  C   UNL     1      41.679  -7.577   7.321  1.00  0.00     0.256 C 
HETATM   12  N   UNL     1      41.563  -8.455   8.569  1.00  0.00    -0.056 N 
HETATM   13  H   UNL     1      40.906  -7.976   9.190  1.00  0.00     0.281 HD
HETATM   14  C   UNL     1      40.875  -9.785   8.234  1.00  0.00     0.256 C 
HETATM   15  C   UNL     1      39.486  -9.497   7.614  1.00  0.00     0.153 C 
BRANCH  12  16
HETATM   16  C   UNL     1      42.862  -8.521   9.374  1.00  0.00     0.254 C 
BRANCH  16  17
HETATM   17  C   UNL     1      43.986  -9.303   8.701  1.00  0.00    -0.023 A 
HETATM   18  C   UNL     1      45.251  -8.698   8.557  1.00  0.00     0.009 A 
HETATM   19  C   UNL     1      46.301  -9.365   7.924  1.00  0.00     0.001 A 
HETATM   20  C   UNL     1      46.112 -10.649   7.426  1.00  0.00     0.000 A 
HETATM   21  C   UNL     1      44.874 -11.270   7.566  1.00  0.00     0.001 A 
HETATM   22  C   UNL     1      43.821 -10.605   8.199  1.00  0.00     0.009 A 
ENDBRANCH  16  17
BRANCH  16  23
HETATM   23  C   UNL     1      42.625  -8.750  10.867  1.00  0.00    -0.023 A 
HETATM   24  C   UNL     1      41.824  -9.785  11.376  1.00  0.00     0.009 A 
HETATM   25  C   UNL     1      41.665  -9.962  12.754  1.00  0.00     0.001 A 
HETATM   26  C   UNL     1      42.302  -9.111  13.651  1.00  0.00     0.000 A 
HETATM   27  C   UNL     1      43.110  -8.086  13.174  1.00  0.00     0.001 A 
HETATM   28  C   UNL     1      43.275  -7.909  11.798  1.00  0.00     0.009 A 
ENDBRANCH  16  23
ENDBRANCH  12  16
ENDBRANCH   1   9
BRANCH   3  29
HETATM   29  C   UNL     1      40.390 -12.384   3.949  1.00  0.00     0.240 C 
HETATM   30  N   UNL     1      40.654 -12.919   2.697  1.00  0.00    -0.326 N 
HETATM   31  H   UNL     1      40.156 -12.536   1.903  1.00  0.00     0.169 HD
HETATM   32  O   UNL     1      40.849 -12.773   5.023  1.00  0.00    -0.271 OA
BRANCH  30  33
HETATM   33  C   UNL     1      41.389 -14.096   2.428  1.00  0.00     0.034 A 
HETATM   34  C   UNL     1      40.711 -15.317   2.551  1.00  0.00     0.032 A 
HETATM   35  C   UNL     1      41.389 -16.531   2.394  1.00  0.00     0.039 A 
HETATM   36  C   UNL     1      42.744 -16.532   2.063  1.00  0.00     0.076 A 
HETATM   37  C   UNL     1      43.419 -15.322   1.923  1.00  0.00     0.039 A 
HETATM   38  C   UNL     1      42.746 -14.109   2.100  1.00  0.00     0.032 A 
BRANCH  36  39
HETATM   39  O   UNL     1      43.508 -17.669   1.956  1.00  0.00    -0.311 OA
BRANCH  39  40
HETATM   40  C   UNL     1      43.695 -18.459   3.066  1.00  0.00     0.076 A 
HETATM   41  C   UNL     1      43.760 -17.962   4.370  1.00  0.00     0.037 A 
HETATM   42  C   UNL     1      43.899 -18.842   5.443  1.00  0.00     0.003 A 
HETATM   43  C   UNL     1      43.946 -20.219   5.218  1.00  0.00     0.000 A 
HETATM   44  C   UNL     1      43.849 -20.718   3.919  1.00  0.00     0.003 A 
HETATM   45  C   UNL     1      43.718 -19.838   2.844  1.00  0.00     0.037 A 
ENDBRANCH  39  40
ENDBRANCH  36  39
ENDBRANCH  30  33
ENDBRANCH   3  29
TORSDOF 8
ENDMDL
MODEL 9
REMARK VINA RESULT:      -9.7      2.865      6.646
REMARK  8 active torsions:
REMARK  status: ('A' for Active; 'I' for Inactive)
REMARK    1  A    between atoms: C_4  and  C_5 
REMARK    2  A    between atoms: C_5  and  N_6 
REMARK    3  A    between atoms: C_5  and  C_36 
REMARK    4  A    between atoms: N_10  and  C_11 
REMARK    5  A    between atoms: C_13  and  C_14 
REMARK       I    between atoms: C_14  and  N_15 
REMARK    6  A    between atoms: N_15  and  C_16 
REMARK    7  A    between atoms: C_19  and  O_20 
REMARK    8  A    between atoms: O_20  and  C_21 
ROOT
HETATM    1  C   UNL     1      38.718 -10.724  -0.385  1.00  0.00     0.181 C 
HETATM    2  N   UNL     1      38.345 -12.010  -0.170  1.00  0.00    -0.249 NA
HETATM    3  C   UNL     1      38.431 -13.009  -1.238  1.00  0.00     0.164 C 
HETATM    4  C   UNL     1      38.693 -12.415  -2.595  1.00  0.00     0.134 C 
HETATM    5  C   UNL     1      39.515 -11.164  -2.481  1.00  0.00     0.247 C 
HETATM    6  O   UNL     1      40.358 -10.911  -3.337  1.00  0.00    -0.271 OA
HETATM    7  N   UNL     1      39.200 -10.270  -1.491  1.00  0.00    -0.185 NA
HETATM    8  H   UNL     1      38.836 -12.374   0.653  1.00  0.00     0.131 HD
ENDROOT
BRANCH   1   9
HETATM    9  N   UNL     1      38.519  -9.906   0.711  1.00  0.00    -0.353 N 
HETATM   10  C   UNL     1      39.218  -8.625   0.908  1.00  0.00     0.153 C 
HETATM   11  C   UNL     1      40.446  -8.839   1.809  1.00  0.00     0.256 C 
HETATM   12  N   UNL     1      39.999  -9.443   3.142  1.00  0.00    -0.056 N 
HETATM   13  H   UNL     1      39.292  -8.806   3.517  1.00  0.00     0.281 HD
HETATM   14  C   UNL     1      39.248 -10.761   2.915  1.00  0.00     0.256 C 
HETATM   15  C   UNL     1      38.043 -10.505   1.978  1.00  0.00     0.153 C 
BRANCH  12  16
HETATM   16  C   UNL     1      41.105  -9.441   4.199  1.00  0.00     0.254 C 
BRANCH  16  17
HETATM   17  C   UNL     1      41.812 -10.781   4.381  1.00  0.00    -0.023 A 
HETATM   18  C   UNL     1      42.754 -11.195   3.418  1.00  0.00     0.009 A 
HETATM   19  C   UNL     1      43.406 -12.425   3.529  1.00  0.00     0.001 A 
HETATM   20  C   UNL     1      43.132 -13.264   4.604  1.00  0.00     0.000 A 
HETATM   21  C   UNL     1      42.213 -12.870   5.572  1.00  0.00     0.001 A 
HETATM   22  C   UNL     1      41.559 -11.640   5.464  1.00  0.00     0.009 A 
ENDBRANCH  16  17
BRANCH  16  23
HETATM   23  C   UNL     1      40.726  -8.655   5.455  1.00  0.00    -0.023 A 
HETATM   24  C   UNL     1      41.662  -8.003   6.275  1.00  0.00     0.009 A 
HETATM   25  C   UNL     1      41.254  -7.278   7.398  1.00  0.00     0.001 A 
HETATM   26  C   UNL     1      39.905  -7.187   7.726  1.00  0.00     0.000 A 
HETATM   27  C   UNL     1      38.957  -7.813   6.925  1.00  0.00     0.001 A 
HETATM   28  C   UNL     1      39.361  -8.535   5.799  1.00  0.00     0.009 A 
ENDBRANCH  16  23
ENDBRANCH  12  16
ENDBRANCH   1   9
BRANCH   3  29
HETATM   29  C   UNL     1      39.456 -14.087  -0.836  1.00  0.00     0.240 C 
HETATM   30  N   UNL     1      39.553 -14.281   0.534  1.00  0.00    -0.326 N 
HETATM   31  H   UNL     1      38.929 -13.755   1.133  1.00  0.00     0.169 HD
HETATM   32  O   UNL     1      40.178 -14.586  -1.699  1.00  0.00    -0.271 OA
BRANCH  30  33
HETATM   33  C   UNL     1      40.582 -14.977   1.209  1.00  0.00     0.034 A 
HETATM   34  C   UNL     1      40.221 -15.701   2.354  1.00  0.00     0.032 A 
HETATM   35  C   UNL     1      41.193 -16.341   3.132  1.00  0.00     0.039 A 
HETATM   36  C   UNL     1      42.531 -16.300   2.742  1.00  0.00     0.076 A 
HETATM   37  C   UNL     1      42.894 -15.596   1.596  1.00  0.00     0.039 A 
HETATM   38  C   UNL     1      41.925 -14.941   0.830  1.00  0.00     0.032 A 
BRANCH  36  39
HETATM   39  O   UNL     1      43.563 -16.837   3.476  1.00  0.00    -0.311 OA
BRANCH  39  40
HETATM   40  C   UNL     1      43.638 -18.202   3.628  1.00  0.00     0.076 A 
HETATM   41  C   UNL     1      43.539 -19.107   2.568  1.00  0.00     0.037 A 
HETATM   42  C   UNL     1      43.680 -20.474   2.807  1.00  0.00     0.003 A 
HETATM   43  C   UNL     1      43.946 -20.936   4.096  1.00  0.00     0.000 A 
HETATM   44  C   UNL     1      44.077 -20.031   5.149  1.00  0.00     0.003 A 
HETATM   45  C   UNL     1      43.928 -18.663   4.913  1.00  0.00     0.037 A 
ENDBRANCH  39  40
ENDBRANCH  36  39
ENDBRANCH  30  33
ENDBRANCH   3  29
TORSDOF 8
ENDMDL
MODEL 10
REMARK VINA RESULT:      -9.6      4.391      8.293
REMARK  8 active torsions:
REMARK  status: ('A' for Active; 'I' for Inactive)
REMARK    1  A    between atoms: C_4  and  C_5 
REMARK    2  A    between atoms: C_5  and  N_6 
REMARK    3  A    between atoms: C_5  and  C_36 
REMARK    4  A    between atoms: N_10  and  C_11 
REMARK    5  A    between atoms: C_13  and  C_14 
REMARK       I    between atoms: C_14  and  N_15 
REMARK    6  A    between atoms: N_15  and  C_16 
REMARK    7  A    between atoms: C_19  and  O_20 
REMARK    8  A    between atoms: O_20  and  C_21 
ROOT
HETATM    1  C   UNL     1      40.973 -11.490   6.366  1.00  0.00     0.181 C 
HETATM    2  N   UNL     1      41.741 -10.463   6.811  1.00  0.00    -0.249 NA
HETATM    3  C   UNL     1      41.267  -9.078   6.731  1.00  0.00     0.164 C 
HETATM    4  C   UNL     1      40.031  -8.914   5.888  1.00  0.00     0.134 C 
HETATM    5  C   UNL     1      39.172 -10.144   5.956  1.00  0.00     0.247 C 
HETATM    6  O   UNL     1      37.949 -10.032   5.951  1.00  0.00    -0.271 OA
HETATM    7  N   UNL     1      39.786 -11.367   5.880  1.00  0.00    -0.185 NA
HETATM    8  H   UNL     1      42.032 -10.649   7.776  1.00  0.00     0.131 HD
ENDROOT
BRANCH   1   9
HETATM    9  N   UNL     1      41.595 -12.720   6.467  1.00  0.00    -0.353 N 
HETATM   10  C   UNL     1      43.025 -12.934   6.191  1.00  0.00     0.153 C 
HETATM   11  C   UNL     1      43.205 -13.424   4.743  1.00  0.00     0.256 C 
HETATM   12  N   UNL     1      42.397 -14.707   4.537  1.00  0.00    -0.056 N 
HETATM   13  H   UNL     1      42.715 -15.359   5.259  1.00  0.00     0.281 HD
HETATM   14  C   UNL     1      40.915 -14.472   4.858  1.00  0.00     0.256 C 
HETATM   15  C   UNL     1      40.785 -13.949   6.309  1.00  0.00     0.153 C 
BRANCH  12  16
HETATM   16  C   UNL     1      42.725 -15.413   3.221  1.00  0.00     0.254 C 
BRANCH  16  17
HETATM   17  C   UNL     1      41.751 -15.119   2.083  1.00  0.00    -0.023 A 
HETATM   18  C   UNL     1      41.897 -13.925   1.348  1.00  0.00     0.009 A 
HETATM   19  C   UNL     1      41.014 -13.600   0.317  1.00  0.00     0.001 A 
HETATM   20  C   UNL     1      39.971 -14.462  -0.004  1.00  0.00     0.000 A 
HETATM   21  C   UNL     1      39.815 -15.652   0.701  1.00  0.00     0.001 A 
HETATM   22  C   UNL     1      40.697 -15.979   1.734  1.00  0.00     0.009 A 
ENDBRANCH  16  17
BRANCH  16  23
HETATM   23  C   UNL     1      43.177 -16.861   3.419  1.00  0.00    -0.023 A 
HETATM   24  C   UNL     1      43.286 -17.790   2.371  1.00  0.00     0.009 A 
HETATM   25  C   UNL     1      43.730 -19.094   2.609  1.00  0.00     0.001 A 
HETATM   26  C   UNL     1      44.075 -19.497   3.894  1.00  0.00     0.000 A 
HETATM   27  C   UNL     1      43.988 -18.595   4.947  1.00  0.00     0.001 A 
HETATM   28  C   UNL     1      43.549 -17.289   4.713  1.00  0.00     0.009 A 
ENDBRANCH  16  23
ENDBRANCH  12  16
ENDBRANCH   1   9
BRANCH   3  29
HETATM   29  C   UNL     1      41.111  -8.517   8.157  1.00  0.00     0.240 C 
HETATM   30  N   UNL     1      41.966  -9.098   9.082  1.00  0.00    -0.326 N 
HETATM   31  H   UNL     1      42.635  -9.781   8.747  1.00  0.00     0.169 HD
HETATM   32  O   UNL     1      40.198  -7.728   8.399  1.00  0.00    -0.271 OA
BRANCH  30  33
HETATM   33  C   UNL     1      41.866  -9.003  10.489  1.00  0.00     0.034 A 
HETATM   34  C   UNL     1      42.799  -8.185  11.143  1.00  0.00     0.032 A 
HETATM   35  C   UNL     1      42.827  -8.110  12.541  1.00  0.00     0.039 A 
HETATM   36  C   UNL     1      41.889  -8.816  13.293  1.00  0.00     0.076 A 
HETATM   37  C   UNL     1      40.950  -9.618  12.648  1.00  0.00     0.039 A 
HETATM   38  C   UNL     1      40.935  -9.708  11.252  1.00  0.00     0.032 A 
BRANCH  36  39
HETATM   39  O   UNL     1      41.881  -8.859  14.667  1.00  0.00    -0.311 OA
BRANCH  39  40
HETATM   40  C   UNL     1      41.194  -7.893  15.365  1.00  0.00     0.076 A 
HETATM   41  C   UNL     1      40.228  -7.063  14.792  1.00  0.00     0.037 A 
HETATM   42  C   UNL     1      39.542  -6.144  15.587  1.00  0.00     0.003 A 
HETATM   43  C   UNL     1      39.800  -6.073  16.956  1.00  0.00     0.000 A 
HETATM   44  C   UNL     1      40.742  -6.924  17.535  1.00  0.00     0.003 A 
HETATM   45  C   UNL     1      41.435  -7.838  16.739  1.00  0.00     0.037 A 
ENDBRANCH  39  40
ENDBRANCH  36  39
ENDBRANCH  30  33
ENDBRANCH   3  29
TORSDOF 8
ENDMDL
