MODEL 1
REMARK VINA RESULT:      -9.0      0.000      0.000
REMARK  10 active torsions:
REMARK  status: ('A' for Active; 'I' for Inactive)
REMARK    1  A    between atoms: C_2  and  C_3 
REMARK    2  A    between atoms: C_3  and  O_4 
REMARK    3  A    between atoms: O_4  and  C_5 
REMARK    4  A    between atoms: C_7  and  C_8 
REMARK       I    between atoms: C_8  and  N_9 
REMARK    5  A    between atoms: N_9  and  C_10 
REMARK    6  A    between atoms: C_10  and  N_11 
REMARK    7  A    between atoms: N_11  and  C_12 
REMARK    8  A    between atoms: C_15  and  N_16 
REMARK    9  A    between atoms: N_19  and  C_21 
REMARK   10  A    between atoms: C_21  and  C_22 
ROOT
HETATM    1  C   UNL     1      43.711 -11.817   7.124  1.00  0.00     0.034 C 
HETATM    2  C   UNL     1      42.647 -11.218   6.476  1.00  0.00     0.032 C 
HETATM    3  C   UNL     1      41.808 -11.942   5.614  1.00  0.00     0.031 C 
HETATM    4  C   UNL     1      41.936 -13.322   5.417  1.00  0.00     0.030 C 
HETATM    5  C   UNL     1      43.069 -13.898   6.009  1.00  0.00     0.031 C 
HETATM    6  C   UNL     1      43.939 -13.165   6.841  1.00  0.00     0.032 C 
ENDROOT
BRANCH   1   7
HETATM    7  N   UNL     1      44.568 -11.210   8.066  1.00  0.00    -0.333 N 
HETATM    8  H   UNL     1      45.174 -11.859   8.557  1.00  0.00     0.168 HD
BRANCH   7   9
HETATM    9  C   UNL     1      44.610  -9.993   8.663  1.00  0.00     0.179 C 
HETATM   10  S   UNL     1      45.930  -9.015   8.328  1.00  0.00    -0.040 SA
BRANCH   9  11
HETATM   11  N   UNL     1      43.745  -9.580   9.617  1.00  0.00    -0.299 N 
HETATM   12  C   UNL     1      43.585 -10.192  10.845  1.00  0.00     0.257 C 
HETATM   13  O   UNL     1      44.103 -11.258  11.158  1.00  0.00    -0.267 OA
HETATM   14  H   UNL     1      42.850  -9.330   9.214  1.00  0.00     0.171 HD
BRANCH  12  15
HETATM   15  C   UNL     1      42.769  -9.431  11.847  1.00  0.00     0.035 A 
HETATM   16  C   UNL     1      41.376  -9.566  11.946  1.00  0.00     0.053 A 
HETATM   17  C   UNL     1      40.663  -8.743  12.821  1.00  0.00     0.069 A 
HETATM   18  C   UNL     1      41.313  -7.750  13.551  1.00  0.00     0.037 A 
HETATM   19  C   UNL     1      42.695  -7.616  13.463  1.00  0.00     0.004 A 
HETATM   20  C   UNL     1      43.422  -8.458  12.619  1.00  0.00     0.017 A 
BRANCH  17  21
HETATM   21  O   UNL     1      39.301  -8.808  12.923  1.00  0.00    -0.351 OA
BRANCH  21  22
HETATM   22  C   UNL     1      38.652  -7.560  12.644  1.00  0.00     0.175 C 
BRANCH  22  23
HETATM   23  C   UNL     1      38.555  -7.269  11.144  1.00  0.00     0.022 C 
HETATM   24  C   UNL     1      39.296  -6.004  10.741  1.00  0.00     0.007 C 
ENDBRANCH  22  23
ENDBRANCH  21  22
ENDBRANCH  17  21
ENDBRANCH  12  15
ENDBRANCH   9  11
ENDBRANCH   7   9
ENDBRANCH   1   7
BRANCH   4  25
HETATM   25  N   UNL     1      41.008 -14.059   4.660  1.00  0.00    -0.378 N 
HETATM   26  C   UNL     1      40.839 -15.498   4.980  1.00  0.00     0.150 C 
HETATM   27  C   UNL     1      42.024 -16.313   4.408  1.00  0.00     0.255 C 
HETATM   28  N   UNL     1      42.132 -16.094   2.890  1.00  0.00    -0.064 N 
HETATM   29  H   UNL     1      41.281 -16.489   2.476  1.00  0.00     0.280 HD
HETATM   30  C   UNL     1      42.159 -14.601   2.528  1.00  0.00     0.255 C 
HETATM   31  C   UNL     1      40.985 -13.846   3.194  1.00  0.00     0.150 C 
BRANCH  28  32
HETATM   32  C   UNL     1      43.312 -16.812   2.277  1.00  0.00     0.273 C 
BRANCH  32  33
HETATM   33  C   UNL     1      43.548 -18.203   2.801  1.00  0.00    -0.033 A 
HETATM   34  C   UNL     1      44.111 -18.425   4.068  1.00  0.00     0.009 A 
HETATM   35  C   UNL     1      44.311 -19.725   4.537  1.00  0.00     0.001 A 
HETATM   36  C   UNL     1      43.932 -20.816   3.758  1.00  0.00     0.000 A 
HETATM   37  C   UNL     1      43.350 -20.610   2.510  1.00  0.00     0.001 A 
HETATM   38  C   UNL     1      43.159 -19.312   2.033  1.00  0.00     0.009 A 
ENDBRANCH  32  33
ENDBRANCH  28  32
ENDBRANCH   4  25
TORSDOF 10
ENDMDL
MODEL 2
REMARK VINA RESULT:      -9.0      2.587      4.448
REMARK  10 active torsions:
REMARK  status: ('A' for Active; 'I' for Inactive)
REMARK    1  A    between atoms: C_2  and  C_3 
REMARK    2  A    between atoms: C_3  and  O_4 
REMARK    3  A    between atoms: O_4  and  C_5 
REMARK    4  A    between atoms: C_7  and  C_8 
REMARK       I    between atoms: C_8  and  N_9 
REMARK    5  A    between atoms: N_9  and  C_10 
REMARK    6  A    between atoms: C_10  and  N_11 
REMARK    7  A    between atoms: N_11  and  C_12 
REMARK    8  A    between atoms: C_15  and  N_16 
REMARK    9  A    between atoms: N_19  and  C_21 
REMARK   10  A    between atoms: C_21  and  C_22 
ROOT
HETATM    1  C   UNL     1      39.528 -10.876   5.326  1.00  0.00     0.034 C 
HETATM    2  C   UNL     1      39.699 -10.499   4.007  1.00  0.00     0.032 C 
HETATM    3  C   UNL     1      40.014 -11.434   3.009  1.00  0.00     0.031 C 
HETATM    4  C   UNL     1      40.094 -12.809   3.260  1.00  0.00     0.030 C 
HETATM    5  C   UNL     1      40.006 -13.168   4.613  1.00  0.00     0.031 C 
HETATM    6  C   UNL     1      39.732 -12.224   5.624  1.00  0.00     0.032 C 
ENDROOT
BRANCH   1   7
HETATM    7  N   UNL     1      39.136 -10.040   6.393  1.00  0.00    -0.333 N 
HETATM    8  H   UNL     1      38.192 -10.204   6.727  1.00  0.00     0.168 HD
BRANCH   7   9
HETATM    9  C   UNL     1      39.623  -8.892   6.925  1.00  0.00     0.179 C 
HETATM   10  S   UNL     1      38.885  -7.457   6.473  1.00  0.00    -0.040 SA
BRANCH   9  11
HETATM   11  N   UNL     1      40.750  -8.814   7.672  1.00  0.00    -0.299 N 
HETATM   12  C   UNL     1      40.843  -9.216   8.990  1.00  0.00     0.257 C 
HETATM   13  O   UNL     1      39.887  -9.557   9.678  1.00  0.00    -0.267 OA
HETATM   14  H   UNL     1      41.224  -7.932   7.525  1.00  0.00     0.171 HD
BRANCH  12  15
HETATM   15  C   UNL     1      42.232  -9.286   9.550  1.00  0.00     0.035 A 
HETATM   16  C   UNL     1      43.277  -9.956   8.898  1.00  0.00     0.053 A 
HETATM   17  C   UNL     1      44.516 -10.083   9.529  1.00  0.00     0.069 A 
HETATM   18  C   UNL     1      44.707  -9.605  10.823  1.00  0.00     0.037 A 
HETATM   19  C   UNL     1      43.677  -8.932  11.473  1.00  0.00     0.004 A 
HETATM   20  C   UNL     1      42.445  -8.767  10.837  1.00  0.00     0.017 A 
BRANCH  17  21
HETATM   21  O   UNL     1      45.553 -10.763   8.952  1.00  0.00    -0.351 OA
BRANCH  21  22
HETATM   22  C   UNL     1      45.835 -10.337   7.612  1.00  0.00     0.175 C 
BRANCH  22  23
HETATM   23  C   UNL     1      45.724 -11.477   6.596  1.00  0.00     0.022 C 
HETATM   24  C   UNL     1      44.453 -11.401   5.764  1.00  0.00     0.007 C 
ENDBRANCH  22  23
ENDBRANCH  21  22
ENDBRANCH  17  21
ENDBRANCH  12  15
ENDBRANCH   9  11
ENDBRANCH   7   9
ENDBRANCH   1   7
BRANCH   4  25
HETATM   25  N   UNL     1      40.275 -13.749   2.228  1.00  0.00    -0.378 N 
HETATM   26  C   UNL     1      39.853 -15.148   2.484  1.00  0.00     0.150 C 
HETATM   27  C   UNL     1      40.893 -15.862   3.380  1.00  0.00     0.255 C 
HETATM   28  N   UNL     1      42.281 -15.816   2.721  1.00  0.00    -0.064 N 
HETATM   29  H   UNL     1      42.214 -16.367   1.859  1.00  0.00     0.280 HD
HETATM   30  C   UNL     1      42.673 -14.386   2.314  1.00  0.00     0.255 C 
HETATM   31  C   UNL     1      41.554 -13.719   1.481  1.00  0.00     0.150 C 
BRANCH  28  32
HETATM   32  C   UNL     1      43.358 -16.440   3.578  1.00  0.00     0.273 C 
BRANCH  32  33
HETATM   33  C   UNL     1      43.489 -17.933   3.441  1.00  0.00    -0.033 A 
HETATM   34  C   UNL     1      43.134 -18.595   2.254  1.00  0.00     0.009 A 
HETATM   35  C   UNL     1      43.273 -19.981   2.148  1.00  0.00     0.001 A 
HETATM   36  C   UNL     1      43.787 -20.716   3.213  1.00  0.00     0.000 A 
HETATM   37  C   UNL     1      44.165 -20.069   4.387  1.00  0.00     0.001 A 
HETATM   38  C   UNL     1      44.017 -18.687   4.501  1.00  0.00     0.009 A 
ENDBRANCH  32  33
ENDBRANCH  28  32
ENDBRANCH   4  25
TORSDOF 10
ENDMDL
MODEL 3
REMARK VINA RESULT:      -8.9      2.619      3.952
REMARK  10 active torsions:
REMARK  status: ('A' for Active; 'I' for Inactive)
REMARK    1  A    between atoms: C_2  and  C_3 
REMARK    2  A    between atoms: C_3  and  O_4 
REMARK    3  A    between atoms: O_4  and  C_5 
REMARK    4  A    between atoms: C_7  and  C_8 
REMARK       I    between atoms: C_8  and  N_9 
REMARK    5  A    between atoms: N_9  and  C_10 
REMARK    6  A    between atoms: C_10  and  N_11 
REMARK    7  A    between atoms: N_11  and  C_12 
REMARK    8  A    between atoms: C_15  and  N_16 
REMARK    9  A    between atoms: N_19  and  C_21 
REMARK   10  A    between atoms: C_21  and  C_22 
ROOT
HETATM    1  C   UNL     1      39.272 -11.382   5.479  1.00  0.00     0.034 C 
HETATM    2  C   UNL     1      39.784 -12.652   5.667  1.00  0.00     0.032 C 
HETATM    3  C   UNL     1      40.103 -13.485   4.583  1.00  0.00     0.031 C 
HETATM    4  C   UNL     1      40.004 -13.065   3.252  1.00  0.00     0.030 C 
HETATM    5  C   UNL     1      39.401 -11.811   3.073  1.00  0.00     0.031 C 
HETATM    6  C   UNL     1      39.041 -10.989   4.159  1.00  0.00     0.032 C 
ENDROOT
BRANCH   1   7
HETATM    7  N   UNL     1      38.989 -10.434   6.485  1.00  0.00    -0.333 N 
HETATM    8  H   UNL     1      38.000 -10.247   6.616  1.00  0.00     0.168 HD
BRANCH   7   9
HETATM    9  C   UNL     1      39.729  -9.518   7.158  1.00  0.00     0.179 C 
HETATM   10  S   UNL     1      39.311  -7.905   6.975  1.00  0.00    -0.040 SA
BRANCH   9  11
HETATM   11  N   UNL     1      40.862  -9.803   7.840  1.00  0.00    -0.299 N 
HETATM   12  C   UNL     1      42.104  -9.968   7.257  1.00  0.00     0.257 C 
HETATM   13  O   UNL     1      42.299 -10.015   6.047  1.00  0.00    -0.267 OA
HETATM   14  H   UNL     1      40.694 -10.508   8.547  1.00  0.00     0.171 HD
BRANCH  12  15
HETATM   15  C   UNL     1      43.264 -10.023   8.206  1.00  0.00     0.035 A 
HETATM   16  C   UNL     1      43.172  -9.588   9.536  1.00  0.00     0.053 A 
HETATM   17  C   UNL     1      44.319  -9.558  10.333  1.00  0.00     0.069 A 
HETATM   18  C   UNL     1      45.562  -9.896   9.803  1.00  0.00     0.037 A 
HETATM   19  C   UNL     1      45.658 -10.335   8.486  1.00  0.00     0.004 A 
HETATM   20  C   UNL     1      44.513 -10.405   7.691  1.00  0.00     0.017 A 
BRANCH  17  21
HETATM   21  O   UNL     1      44.289  -9.103  11.623  1.00  0.00    -0.351 OA
BRANCH  21  22
HETATM   22  C   UNL     1      43.174  -8.244  11.895  1.00  0.00     0.175 C 
BRANCH  22  23
HETATM   23  C   UNL     1      42.933  -8.049  13.395  1.00  0.00     0.022 C 
HETATM   24  C   UNL     1      42.735  -6.589  13.773  1.00  0.00     0.007 C 
ENDBRANCH  22  23
ENDBRANCH  21  22
ENDBRANCH  17  21
ENDBRANCH  12  15
ENDBRANCH   9  11
ENDBRANCH   7   9
ENDBRANCH   1   7
BRANCH   4  25
HETATM   25  N   UNL     1      40.454 -13.859   2.181  1.00  0.00    -0.378 N 
HETATM   26  C   UNL     1      40.101 -15.300   2.191  1.00  0.00     0.150 C 
HETATM   27  C   UNL     1      41.000 -16.062   3.194  1.00  0.00     0.255 C 
HETATM   28  N   UNL     1      42.481 -15.858   2.836  1.00  0.00    -0.064 N 
HETATM   29  H   UNL     1      42.625 -16.302   1.923  1.00  0.00     0.280 HD
HETATM   30  C   UNL     1      42.832 -14.370   2.677  1.00  0.00     0.255 C 
HETATM   31  C   UNL     1      41.847 -13.667   1.714  1.00  0.00     0.150 C 
BRANCH  28  32
HETATM   32  C   UNL     1      43.418 -16.524   3.818  1.00  0.00     0.273 C 
BRANCH  32  33
HETATM   33  C   UNL     1      43.574 -18.009   3.635  1.00  0.00    -0.033 A 
HETATM   34  C   UNL     1      44.000 -18.838   4.686  1.00  0.00     0.009 A 
HETATM   35  C   UNL     1      44.128 -20.215   4.494  1.00  0.00     0.001 A 
HETATM   36  C   UNL     1      43.812 -20.783   3.261  1.00  0.00     0.000 A 
HETATM   37  C   UNL     1      43.366 -19.975   2.218  1.00  0.00     0.001 A 
HETATM   38  C   UNL     1      43.248 -18.597   2.402  1.00  0.00     0.009 A 
ENDBRANCH  32  33
ENDBRANCH  28  32
ENDBRANCH   4  25
TORSDOF 10
ENDMDL
MODEL 4
REMARK VINA RESULT:      -8.9      1.254      2.243
REMARK  10 active torsions:
REMARK  status: ('A' for Active; 'I' for Inactive)
REMARK    1  A    between atoms: C_2  and  C_3 
REMARK    2  A    between atoms: C_3  and  O_4 
REMARK    3  A    between atoms: O_4  and  C_5 
REMARK    4  A    between atoms: C_7  and  C_8 
REMARK       I    between atoms: C_8  and  N_9 
REMARK    5  A    between atoms: N_9  and  C_10 
REMARK    6  A    between atoms: C_10  and  N_11 
REMARK    7  A    between atoms: N_11  and  C_12 
REMARK    8  A    between atoms: C_15  and  N_16 
REMARK    9  A    between atoms: N_19  and  C_21 
REMARK   10  A    between atoms: C_21  and  C_22 
ROOT
HETATM    1  C   UNL     1      43.587 -12.162   7.025  1.00  0.00     0.034 C 
HETATM    2  C   UNL     1      43.503 -13.541   6.986  1.00  0.00     0.032 C 
HETATM    3  C   UNL     1      42.576 -14.199   6.163  1.00  0.00     0.031 C 
HETATM    4  C   UNL     1      41.738 -13.518   5.272  1.00  0.00     0.030 C 
HETATM    5  C   UNL     1      41.771 -12.120   5.385  1.00  0.00     0.031 C 
HETATM    6  C   UNL     1      42.671 -11.456   6.242  1.00  0.00     0.032 C 
ENDROOT
BRANCH   1   7
HETATM    7  N   UNL     1      44.526 -11.399   7.751  1.00  0.00    -0.333 N 
HETATM    8  H   UNL     1      45.387 -11.891   7.965  1.00  0.00     0.168 HD
BRANCH   7   9
HETATM    9  C   UNL     1      44.464 -10.242   8.456  1.00  0.00     0.179 C 
HETATM   10  S   UNL     1      45.776  -9.204   8.350  1.00  0.00    -0.040 SA
BRANCH   9  11
HETATM   11  N   UNL     1      43.492  -9.942   9.348  1.00  0.00    -0.299 N 
HETATM   12  C   UNL     1      43.447 -10.418  10.644  1.00  0.00     0.257 C 
HETATM   13  O   UNL     1      44.201 -11.275  11.092  1.00  0.00    -0.267 OA
HETATM   14  H   UNL     1      42.578  -9.975   8.914  1.00  0.00     0.171 HD
BRANCH  12  15
HETATM   15  C   UNL     1      42.436  -9.766  11.539  1.00  0.00     0.035 A 
HETATM   16  C   UNL     1      42.669  -9.543  12.904  1.00  0.00     0.053 A 
HETATM   17  C   UNL     1      41.642  -9.038  13.706  1.00  0.00     0.069 A 
HETATM   18  C   UNL     1      40.374  -8.812  13.177  1.00  0.00     0.037 A 
HETATM   19  C   UNL     1      40.139  -9.025  11.822  1.00  0.00     0.004 A 
HETATM   20  C   UNL     1      41.167  -9.494  11.004  1.00  0.00     0.017 A 
BRANCH  17  21
HETATM   21  O   UNL     1      41.807  -8.842  15.050  1.00  0.00    -0.351 OA
BRANCH  21  22
HETATM   22  C   UNL     1      41.280  -7.589  15.508  1.00  0.00     0.175 C 
BRANCH  22  23
HETATM   23  C   UNL     1      40.882  -7.623  16.986  1.00  0.00     0.022 C 
HETATM   24  C   UNL     1      41.944  -7.024  17.895  1.00  0.00     0.007 C 
ENDBRANCH  22  23
ENDBRANCH  21  22
ENDBRANCH  17  21
ENDBRANCH  12  15
ENDBRANCH   9  11
ENDBRANCH   7   9
ENDBRANCH   1   7
BRANCH   4  25
HETATM   25  N   UNL     1      40.912 -14.193   4.356  1.00  0.00    -0.378 N 
HETATM   26  C   UNL     1      40.662 -15.639   4.583  1.00  0.00     0.150 C 
HETATM   27  C   UNL     1      41.896 -16.466   4.152  1.00  0.00     0.255 C 
HETATM   28  N   UNL     1      42.229 -16.189   2.677  1.00  0.00    -0.064 N 
HETATM   29  H   UNL     1      41.437 -16.540   2.127  1.00  0.00     0.280 HD
HETATM   30  C   UNL     1      42.347 -14.683   2.390  1.00  0.00     0.255 C 
HETATM   31  C   UNL     1      41.108 -13.920   2.913  1.00  0.00     0.150 C 
BRANCH  28  32
HETATM   32  C   UNL     1      43.467 -16.918   2.209  1.00  0.00     0.273 C 
BRANCH  32  33
HETATM   33  C   UNL     1      43.676 -18.273   2.831  1.00  0.00    -0.033 A 
HETATM   34  C   UNL     1      44.253 -18.415   4.103  1.00  0.00     0.009 A 
HETATM   35  C   UNL     1      44.428 -19.682   4.663  1.00  0.00     0.001 A 
HETATM   36  C   UNL     1      44.010 -20.817   3.972  1.00  0.00     0.000 A 
HETATM   37  C   UNL     1      43.415 -20.688   2.719  1.00  0.00     0.001 A 
HETATM   38  C   UNL     1      43.249 -19.425   2.151  1.00  0.00     0.009 A 
ENDBRANCH  32  33
ENDBRANCH  28  32
ENDBRANCH   4  25
TORSDOF 10
ENDMDL
MODEL 5
REMARK VINA RESULT:      -8.8      3.460     11.209
REMARK  10 active torsions:
REMARK  status: ('A' for Active; 'I' for Inactive)
REMARK    1  A    between atoms: C_2  and  C_3 
REMARK    2  A    between atoms: C_3  and  O_4 
REMARK    3  A    between atoms: O_4  and  C_5 
REMARK    4  A    between atoms: C_7  and  C_8 
REMARK       I    between atoms: C_8  and  N_9 
REMARK    5  A    between atoms: N_9  and  C_10 
REMARK    6  A    between atoms: C_10  and  N_11 
REMARK    7  A    between atoms: N_11  and  C_12 
REMARK    8  A    between atoms: C_15  and  N_16 
REMARK    9  A    between atoms: N_19  and  C_21 
REMARK   10  A    between atoms: C_21  and  C_22 
ROOT
HETATM    1  C   UNL     1      41.767 -10.873   5.369  1.00  0.00     0.034 C 
HETATM    2  C   UNL     1      41.374  -9.789   6.131  1.00  0.00     0.032 C 
HETATM    3  C   UNL     1      42.176  -9.290   7.170  1.00  0.00     0.031 C 
HETATM    4  C   UNL     1      43.451  -9.795   7.450  1.00  0.00     0.030 C 
HETATM    5  C   UNL     1      43.799 -10.947   6.731  1.00  0.00     0.031 C 
HETATM    6  C   UNL     1      42.978 -11.476   5.715  1.00  0.00     0.032 C 
ENDROOT
BRANCH   1   7
HETATM    7  N   UNL     1      41.084 -11.408   4.256  1.00  0.00    -0.333 N 
HETATM    8  H   UNL     1      40.660 -10.711   3.652  1.00  0.00     0.168 HD
BRANCH   7   9
HETATM    9  C   UNL     1      40.636 -12.644   3.925  1.00  0.00     0.179 C 
HETATM   10  S   UNL     1      39.233 -12.737   3.012  1.00  0.00    -0.040 SA
BRANCH   9  11
HETATM   11  N   UNL     1      41.155 -13.798   4.403  1.00  0.00    -0.299 N 
HETATM   12  C   UNL     1      42.246 -14.450   3.858  1.00  0.00     0.257 C 
HETATM   13  O   UNL     1      42.780 -14.136   2.800  1.00  0.00    -0.267 OA
HETATM   14  H   UNL     1      40.423 -14.454   4.648  1.00  0.00     0.171 HD
BRANCH  12  15
HETATM   15  C   UNL     1      42.815 -15.563   4.685  1.00  0.00     0.035 A 
HETATM   16  C   UNL     1      43.551 -16.619   4.126  1.00  0.00     0.053 A 
HETATM   17  C   UNL     1      43.953 -17.684   4.935  1.00  0.00     0.069 A 
HETATM   18  C   UNL     1      43.580 -17.739   6.276  1.00  0.00     0.037 A 
HETATM   19  C   UNL     1      42.856 -16.691   6.838  1.00  0.00     0.004 A 
HETATM   20  C   UNL     1      42.480 -15.604   6.048  1.00  0.00     0.017 A 
BRANCH  17  21
HETATM   21  O   UNL     1      44.636 -18.756   4.430  1.00  0.00    -0.351 OA
BRANCH  21  22
HETATM   22  C   UNL     1      44.080 -20.019   4.822  1.00  0.00     0.175 C 
BRANCH  22  23
HETATM   23  C   UNL     1      43.913 -20.981   3.643  1.00  0.00     0.022 C 
HETATM   24  C   UNL     1      43.521 -20.271   2.357  1.00  0.00     0.007 C 
ENDBRANCH  22  23
ENDBRANCH  21  22
ENDBRANCH  17  21
ENDBRANCH  12  15
ENDBRANCH   9  11
ENDBRANCH   7   9
ENDBRANCH   1   7
BRANCH   4  25
HETATM   25  N   UNL     1      44.299  -9.200   8.402  1.00  0.00    -0.378 N 
HETATM   26  C   UNL     1      44.978 -10.090   9.377  1.00  0.00     0.150 C 
HETATM   27  C   UNL     1      43.983 -10.536  10.474  1.00  0.00     0.255 C 
HETATM   28  N   UNL     1      43.381  -9.307  11.174  1.00  0.00    -0.064 N 
HETATM   29  H   UNL     1      44.155  -8.838  11.658  1.00  0.00     0.280 HD
HETATM   30  C   UNL     1      42.802  -8.301  10.167  1.00  0.00     0.255 C 
HETATM   31  C   UNL     1      43.833  -7.960   9.066  1.00  0.00     0.150 C 
BRANCH  28  32
HETATM   32  C   UNL     1      42.348  -9.672  12.216  1.00  0.00     0.273 C 
BRANCH  32  33
HETATM   33  C   UNL     1      42.314  -8.764  13.416  1.00  0.00    -0.033 A 
HETATM   34  C   UNL     1      43.202  -7.685  13.547  1.00  0.00     0.009 A 
HETATM   35  C   UNL     1      43.144  -6.851  14.665  1.00  0.00     0.001 A 
HETATM   36  C   UNL     1      42.187  -7.071  15.653  1.00  0.00     0.000 A 
HETATM   37  C   UNL     1      41.284  -8.123  15.524  1.00  0.00     0.001 A 
HETATM   38  C   UNL     1      41.346  -8.966  14.414  1.00  0.00     0.009 A 
ENDBRANCH  32  33
ENDBRANCH  28  32
ENDBRANCH   4  25
TORSDOF 10
ENDMDL
MODEL 6
REMARK VINA RESULT:      -8.5      4.096     11.454
REMARK  10 active torsions:
REMARK  status: ('A' for Active; 'I' for Inactive)
REMARK    1  A    between atoms: C_2  and  C_3 
REMARK    2  A    between atoms: C_3  and  O_4 
REMARK    3  A    between atoms: O_4  and  C_5 
REMARK    4  A    between atoms: C_7  and  C_8 
REMARK       I    between atoms: C_8  and  N_9 
REMARK    5  A    between atoms: N_9  and  C_10 
REMARK    6  A    between atoms: C_10  and  N_11 
REMARK    7  A    between atoms: N_11  and  C_12 
REMARK    8  A    between atoms: C_15  and  N_16 
REMARK    9  A    between atoms: N_19  and  C_21 
REMARK   10  A    between atoms: C_21  and  C_22 
ROOT
HETATM    1  C   UNL     1      43.261 -13.031   6.055  1.00  0.00     0.034 C 
HETATM    2  C   UNL     1      44.475 -12.814   6.680  1.00  0.00     0.032 C 
HETATM    3  C   UNL     1      44.801 -11.570   7.242  1.00  0.00     0.031 C 
HETATM    4  C   UNL     1      43.900 -10.499   7.283  1.00  0.00     0.030 C 
HETATM    5  C   UNL     1      42.709 -10.703   6.570  1.00  0.00     0.031 C 
HETATM    6  C   UNL     1      42.397 -11.938   5.967  1.00  0.00     0.032 C 
ENDROOT
BRANCH   1   7
HETATM    7  N   UNL     1      42.797 -14.254   5.526  1.00  0.00    -0.333 N 
HETATM    8  H   UNL     1      43.531 -14.924   5.317  1.00  0.00     0.168 HD
BRANCH   7   9
HETATM    9  C   UNL     1      41.623 -14.670   4.990  1.00  0.00     0.179 C 
HETATM   10  S   UNL     1      40.756 -15.829   5.836  1.00  0.00    -0.040 SA
BRANCH   9  11
HETATM   11  N   UNL     1      41.183 -14.328   3.757  1.00  0.00    -0.299 N 
HETATM   12  C   UNL     1      42.003 -14.121   2.664  1.00  0.00     0.257 C 
HETATM   13  O   UNL     1      43.227 -14.086   2.715  1.00  0.00    -0.267 OA
HETATM   14  H   UNL     1      40.462 -13.619   3.811  1.00  0.00     0.171 HD
BRANCH  12  15
HETATM   15  C   UNL     1      41.304 -14.004   1.342  1.00  0.00     0.035 A 
HETATM   16  C   UNL     1      41.275 -12.810   0.607  1.00  0.00     0.053 A 
HETATM   17  C   UNL     1      40.509 -12.736  -0.559  1.00  0.00     0.069 A 
HETATM   18  C   UNL     1      39.726 -13.814  -0.965  1.00  0.00     0.037 A 
HETATM   19  C   UNL     1      39.757 -15.004  -0.243  1.00  0.00     0.004 A 
HETATM   20  C   UNL     1      40.547 -15.101   0.903  1.00  0.00     0.017 A 
BRANCH  17  21
HETATM   21  O   UNL     1      40.415 -11.582  -1.288  1.00  0.00    -0.351 OA
BRANCH  21  22
HETATM   22  C   UNL     1      39.065 -11.232  -1.625  1.00  0.00     0.175 C 
BRANCH  22  23
HETATM   23  C   UNL     1      38.912 -10.819  -3.091  1.00  0.00     0.022 C 
HETATM   24  C   UNL     1      40.017  -9.884  -3.556  1.00  0.00     0.007 C 
ENDBRANCH  22  23
ENDBRANCH  21  22
ENDBRANCH  17  21
ENDBRANCH  12  15
ENDBRANCH   9  11
ENDBRANCH   7   9
ENDBRANCH   1   7
BRANCH   4  25
HETATM   25  N   UNL     1      44.188  -9.305   7.968  1.00  0.00    -0.378 N 
HETATM   26  C   UNL     1      45.222  -9.348   9.032  1.00  0.00     0.150 C 
HETATM   27  C   UNL     1      44.642  -9.997  10.311  1.00  0.00     0.255 C 
HETATM   28  N   UNL     1      43.399  -9.223  10.780  1.00  0.00    -0.064 N 
HETATM   29  H   UNL     1      43.721  -8.287  11.050  1.00  0.00     0.280 HD
HETATM   30  C   UNL     1      42.378  -9.040   9.646  1.00  0.00     0.255 C 
HETATM   31  C   UNL     1      43.049  -8.453   8.383  1.00  0.00     0.150 C 
BRANCH  28  32
HETATM   32  C   UNL     1      42.744  -9.845  11.992  1.00  0.00     0.273 C 
BRANCH  32  33
HETATM   33  C   UNL     1      42.543  -8.908  13.153  1.00  0.00    -0.033 A 
HETATM   34  C   UNL     1      41.571  -9.154  14.136  1.00  0.00     0.009 A 
HETATM   35  C   UNL     1      41.411  -8.275  15.209  1.00  0.00     0.001 A 
HETATM   36  C   UNL     1      42.232  -7.155  15.325  1.00  0.00     0.000 A 
HETATM   37  C   UNL     1      43.215  -6.912  14.369  1.00  0.00     0.001 A 
HETATM   38  C   UNL     1      43.371  -7.782  13.290  1.00  0.00     0.009 A 
ENDBRANCH  32  33
ENDBRANCH  28  32
ENDBRANCH   4  25
TORSDOF 10
ENDMDL
MODEL 7
REMARK VINA RESULT:      -8.5      2.630      4.559
REMARK  10 active torsions:
REMARK  status: ('A' for Active; 'I' for Inactive)
REMARK    1  A    between atoms: C_2  and  C_3 
REMARK    2  A    between atoms: C_3  and  O_4 
REMARK    3  A    between atoms: O_4  and  C_5 
REMARK    4  A    between atoms: C_7  and  C_8 
REMARK       I    between atoms: C_8  and  N_9 
REMARK    5  A    between atoms: N_9  and  C_10 
REMARK    6  A    between atoms: C_10  and  N_11 
REMARK    7  A    between atoms: N_11  and  C_12 
REMARK    8  A    between atoms: C_15  and  N_16 
REMARK    9  A    between atoms: N_19  and  C_21 
REMARK   10  A    between atoms: C_21  and  C_22 
ROOT
HETATM    1  C   UNL     1      39.888  -9.184   5.504  1.00  0.00     0.034 C 
HETATM    2  C   UNL     1      39.357  -9.660   4.320  1.00  0.00     0.032 C 
HETATM    3  C   UNL     1      40.152 -10.320   3.370  1.00  0.00     0.031 C 
HETATM    4  C   UNL     1      41.503 -10.613   3.587  1.00  0.00     0.030 C 
HETATM    5  C   UNL     1      42.049 -10.049   4.749  1.00  0.00     0.031 C 
HETATM    6  C   UNL     1      41.263  -9.349   5.685  1.00  0.00     0.032 C 
ENDROOT
BRANCH   1   7
HETATM    7  N   UNL     1      39.174  -8.578   6.560  1.00  0.00    -0.333 N 
HETATM    8  H   UNL     1      38.168  -8.556   6.424  1.00  0.00     0.168 HD
BRANCH   7   9
HETATM    9  C   UNL     1      39.520  -7.789   7.607  1.00  0.00     0.179 C 
HETATM   10  S   UNL     1      38.895  -6.234   7.639  1.00  0.00    -0.040 SA
BRANCH   9  11
HETATM   11  N   UNL     1      40.444  -8.118   8.538  1.00  0.00    -0.299 N 
HETATM   12  C   UNL     1      40.287  -9.119   9.477  1.00  0.00     0.257 C 
HETATM   13  O   UNL     1      39.240  -9.730   9.666  1.00  0.00    -0.267 OA
HETATM   14  H   UNL     1      40.854  -7.290   8.953  1.00  0.00     0.171 HD
BRANCH  12  15
HETATM   15  C   UNL     1      41.521  -9.491  10.242  1.00  0.00     0.035 A 
HETATM   16  C   UNL     1      42.745  -9.766   9.614  1.00  0.00     0.053 A 
HETATM   17  C   UNL     1      43.824 -10.220  10.376  1.00  0.00     0.069 A 
HETATM   18  C   UNL     1      43.681 -10.460  11.740  1.00  0.00     0.037 A 
HETATM   19  C   UNL     1      42.472 -10.182  12.370  1.00  0.00     0.004 A 
HETATM   20  C   UNL     1      41.397  -9.693  11.626  1.00  0.00     0.017 A 
BRANCH  17  21
HETATM   21  O   UNL     1      45.025 -10.541   9.805  1.00  0.00    -0.351 OA
BRANCH  21  22
HETATM   22  C   UNL     1      45.218  -9.942   8.515  1.00  0.00     0.175 C 
BRANCH  22  23
HETATM   23  C   UNL     1      45.693 -10.949   7.464  1.00  0.00     0.022 C 
HETATM   24  C   UNL     1      44.592 -11.900   7.022  1.00  0.00     0.007 C 
ENDBRANCH  22  23
ENDBRANCH  21  22
ENDBRANCH  17  21
ENDBRANCH  12  15
ENDBRANCH   9  11
ENDBRANCH   7   9
ENDBRANCH   1   7
BRANCH   4  25
HETATM   25  N   UNL     1      42.254 -11.393   2.688  1.00  0.00    -0.378 N 
HETATM   26  C   UNL     1      41.514 -12.261   1.738  1.00  0.00     0.150 C 
HETATM   27  C   UNL     1      40.990 -13.522   2.468  1.00  0.00     0.255 C 
HETATM   28  N   UNL     1      42.159 -14.282   3.115  1.00  0.00    -0.064 N 
HETATM   29  H   UNL     1      42.752 -14.616   2.348  1.00  0.00     0.280 HD
HETATM   30  C   UNL     1      43.026 -13.361   3.989  1.00  0.00     0.255 C 
HETATM   31  C   UNL     1      43.450 -12.094   3.210  1.00  0.00     0.150 C 
BRANCH  28  32
HETATM   32  C   UNL     1      41.708 -15.491   3.901  1.00  0.00     0.273 C 
BRANCH  32  33
HETATM   33  C   UNL     1      42.508 -16.742   3.650  1.00  0.00    -0.033 A 
HETATM   34  C   UNL     1      42.337 -17.500   2.481  1.00  0.00     0.009 A 
HETATM   35  C   UNL     1      43.098 -18.651   2.266  1.00  0.00     0.001 A 
HETATM   36  C   UNL     1      44.050 -19.046   3.203  1.00  0.00     0.000 A 
HETATM   37  C   UNL     1      44.246 -18.290   4.356  1.00  0.00     0.001 A 
HETATM   38  C   UNL     1      43.480 -17.145   4.580  1.00  0.00     0.009 A 
ENDBRANCH  32  33
ENDBRANCH  28  32
ENDBRANCH   4  25
TORSDOF 10
ENDMDL
MODEL 8
REMARK VINA RESULT:      -8.4      1.899      2.406
REMARK  10 active torsions:
REMARK  status: ('A' for Active; 'I' for Inactive)
REMARK    1  A    between atoms: C_2  and  C_3 
REMARK    2  A    between atoms: C_3  and  O_4 
REMARK    3  A    between atoms: O_4  and  C_5 
REMARK    4  A    between atoms: C_7  and  C_8 
REMARK       I    between atoms: C_8  and  N_9 
REMARK    5  A    between atoms: N_9  and  C_10 
REMARK    6  A    between atoms: C_10  and  N_11 
REMARK    7  A    between atoms: N_11  and  C_12 
REMARK    8  A    between atoms: C_15  and  N_16 
REMARK    9  A    between atoms: N_19  and  C_21 
REMARK   10  A    between atoms: C_21  and  C_22 
ROOT
HETATM    1  C   UNL     1      41.834 -10.471   5.945  1.00  0.00     0.034 C 
HETATM    2  C   UNL     1      40.850 -11.424   6.126  1.00  0.00     0.032 C 
HETATM    3  C   UNL     1      40.546 -12.366   5.130  1.00  0.00     0.031 C 
HETATM    4  C   UNL     1      41.265 -12.460   3.933  1.00  0.00     0.030 C 
HETATM    5  C   UNL     1      42.200 -11.435   3.725  1.00  0.00     0.031 C 
HETATM    6  C   UNL     1      42.477 -10.461   4.706  1.00  0.00     0.032 C 
ENDROOT
BRANCH   1   7
HETATM    7  N   UNL     1      42.276  -9.530   6.900  1.00  0.00    -0.333 N 
HETATM    8  H   UNL     1      42.057  -8.566   6.667  1.00  0.00     0.168 HD
BRANCH   7   9
HETATM    9  C   UNL     1      43.145  -9.571   7.939  1.00  0.00     0.179 C 
HETATM   10  S   UNL     1      44.374 -10.710   7.873  1.00  0.00    -0.040 SA
BRANCH   9  11
HETATM   11  N   UNL     1      43.000  -8.864   9.084  1.00  0.00    -0.299 N 
HETATM   12  C   UNL     1      41.847  -8.836   9.845  1.00  0.00     0.257 C 
HETATM   13  O   UNL     1      40.780  -9.333   9.500  1.00  0.00    -0.267 OA
HETATM   14  H   UNL     1      43.401  -7.939   8.994  1.00  0.00     0.171 HD
BRANCH  12  15
HETATM   15  C   UNL     1      41.978  -8.205  11.198  1.00  0.00     0.035 A 
HETATM   16  C   UNL     1      41.117  -7.192  11.646  1.00  0.00     0.053 A 
HETATM   17  C   UNL     1      41.366  -6.565  12.869  1.00  0.00     0.069 A 
HETATM   18  C   UNL     1      42.492  -6.893  13.619  1.00  0.00     0.037 A 
HETATM   19  C   UNL     1      43.346  -7.902  13.184  1.00  0.00     0.004 A 
HETATM   20  C   UNL     1      43.088  -8.560  11.981  1.00  0.00     0.017 A 
BRANCH  17  21
HETATM   21  O   UNL     1      40.580  -5.545  13.330  1.00  0.00    -0.351 OA
BRANCH  21  22
HETATM   22  C   UNL     1      39.263  -5.970  13.709  1.00  0.00     0.175 C 
BRANCH  22  23
HETATM   23  C   UNL     1      39.145  -6.249  15.210  1.00  0.00     0.022 C 
HETATM   24  C   UNL     1      38.554  -5.079  15.980  1.00  0.00     0.007 C 
ENDBRANCH  22  23
ENDBRANCH  21  22
ENDBRANCH  17  21
ENDBRANCH  12  15
ENDBRANCH   9  11
ENDBRANCH   7   9
ENDBRANCH   1   7
BRANCH   4  25
HETATM   25  N   UNL     1      41.042 -13.492   3.004  1.00  0.00    -0.378 N 
HETATM   26  C   UNL     1      40.390 -14.734   3.491  1.00  0.00     0.150 C 
HETATM   27  C   UNL     1      41.408 -15.596   4.275  1.00  0.00     0.255 C 
HETATM   28  N   UNL     1      42.621 -15.920   3.388  1.00  0.00    -0.064 N 
HETATM   29  H   UNL     1      42.274 -16.506   2.621  1.00  0.00     0.280 HD
HETATM   30  C   UNL     1      43.221 -14.655   2.754  1.00  0.00     0.255 C 
HETATM   31  C   UNL     1      42.129 -13.815   2.051  1.00  0.00     0.150 C 
BRANCH  28  32
HETATM   32  C   UNL     1      43.687 -16.707   4.115  1.00  0.00     0.273 C 
BRANCH  32  33
HETATM   33  C   UNL     1      43.701 -18.182   3.812  1.00  0.00    -0.033 A 
HETATM   34  C   UNL     1      43.370 -18.673   2.539  1.00  0.00     0.009 A 
HETATM   35  C   UNL     1      43.400 -20.045   2.280  1.00  0.00     0.001 A 
HETATM   36  C   UNL     1      43.780 -20.938   3.279  1.00  0.00     0.000 A 
HETATM   37  C   UNL     1      44.133 -20.462   4.539  1.00  0.00     0.001 A 
HETATM   38  C   UNL     1      44.094 -19.093   4.805  1.00  0.00     0.009 A 
ENDBRANCH  32  33
ENDBRANCH  28  32
ENDBRANCH   4  25
TORSDOF 10
ENDMDL
MODEL 9
REMARK VINA RESULT:      -8.4      3.416      5.560
REMARK  10 active torsions:
REMARK  status: ('A' for Active; 'I' for Inactive)
REMARK    1  A    between atoms: C_2  and  C_3 
REMARK    2  A    between atoms: C_3  and  O_4 
REMARK    3  A    between atoms: O_4  and  C_5 
REMARK    4  A    between atoms: C_7  and  C_8 
REMARK       I    between atoms: C_8  and  N_9 
REMARK    5  A    between atoms: N_9  and  C_10 
REMARK    6  A    between atoms: C_10  and  N_11 
REMARK    7  A    between atoms: N_11  and  C_12 
REMARK    8  A    between atoms: C_15  and  N_16 
REMARK    9  A    between atoms: N_19  and  C_21 
REMARK   10  A    between atoms: C_21  and  C_22 
ROOT
HETATM    1  C   UNL     1      42.472 -10.071  11.223  1.00  0.00     0.034 C 
HETATM    2  C   UNL     1      41.765  -9.402  10.242  1.00  0.00     0.032 C 
HETATM    3  C   UNL     1      42.221  -9.344   8.916  1.00  0.00     0.031 C 
HETATM    4  C   UNL     1      43.366 -10.021   8.480  1.00  0.00     0.030 C 
HETATM    5  C   UNL     1      44.120 -10.620   9.499  1.00  0.00     0.031 C 
HETATM    6  C   UNL     1      43.686 -10.644  10.840  1.00  0.00     0.032 C 
ENDROOT
BRANCH   1   7
HETATM    7  N   UNL     1      42.073 -10.260  12.563  1.00  0.00    -0.333 N 
HETATM    8  H   UNL     1      42.642 -10.925  13.078  1.00  0.00     0.168 HD
BRANCH   7   9
HETATM    9  C   UNL     1      40.957  -9.958  13.271  1.00  0.00     0.179 C 
HETATM   10  S   UNL     1      39.506 -10.607  12.739  1.00  0.00    -0.040 SA
BRANCH   9  11
HETATM   11  N   UNL     1      40.913  -9.056  14.279  1.00  0.00    -0.299 N 
HETATM   12  C   UNL     1      41.179  -7.708  14.134  1.00  0.00     0.257 C 
HETATM   13  O   UNL     1      41.621  -7.198  13.111  1.00  0.00    -0.267 OA
HETATM   14  H   UNL     1      41.344  -9.426  15.118  1.00  0.00     0.171 HD
BRANCH  12  15
HETATM   15  C   UNL     1      40.825  -6.847  15.309  1.00  0.00     0.035 A 
HETATM   16  C   UNL     1      41.530  -6.896  16.521  1.00  0.00     0.053 A 
HETATM   17  C   UNL     1      41.078  -6.153  17.613  1.00  0.00     0.069 A 
HETATM   18  C   UNL     1      39.901  -5.413  17.531  1.00  0.00     0.037 A 
HETATM   19  C   UNL     1      39.201  -5.355  16.330  1.00  0.00     0.004 A 
HETATM   20  C   UNL     1      39.664  -6.064  15.220  1.00  0.00     0.017 A 
BRANCH  17  21
HETATM   21  O   UNL     1      41.706  -6.200  18.827  1.00  0.00    -0.351 OA
BRANCH  21  22
HETATM   22  C   UNL     1      41.576  -7.468  19.485  1.00  0.00     0.175 C 
BRANCH  22  23
HETATM   23  C   UNL     1      40.277  -7.584  20.288  1.00  0.00     0.022 C 
HETATM   24  C   UNL     1      39.341  -8.649  19.738  1.00  0.00     0.007 C 
ENDBRANCH  22  23
ENDBRANCH  21  22
ENDBRANCH  17  21
ENDBRANCH  12  15
ENDBRANCH   9  11
ENDBRANCH   7   9
ENDBRANCH   1   7
BRANCH   4  25
HETATM   25  N   UNL     1      43.737 -10.067   7.124  1.00  0.00    -0.378 N 
HETATM   26  C   UNL     1      42.656 -10.167   6.112  1.00  0.00     0.150 C 
HETATM   27  C   UNL     1      42.109 -11.614   6.060  1.00  0.00     0.255 C 
HETATM   28  N   UNL     1      43.248 -12.599   5.750  1.00  0.00    -0.064 N 
HETATM   29  H   UNL     1      43.577 -12.378   4.804  1.00  0.00     0.280 HD
HETATM   30  C   UNL     1      44.442 -12.409   6.699  1.00  0.00     0.255 C 
HETATM   31  C   UNL     1      44.883 -10.928   6.748  1.00  0.00     0.150 C 
BRANCH  28  32
HETATM   32  C   UNL     1      42.793 -14.040   5.750  1.00  0.00     0.273 C 
BRANCH  32  33
HETATM   33  C   UNL     1      42.961 -14.755   4.436  1.00  0.00    -0.033 A 
HETATM   34  C   UNL     1      42.924 -16.156   4.353  1.00  0.00     0.009 A 
HETATM   35  C   UNL     1      43.073 -16.797   3.121  1.00  0.00     0.001 A 
HETATM   36  C   UNL     1      43.238 -16.048   1.958  1.00  0.00     0.000 A 
HETATM   37  C   UNL     1      43.253 -14.657   2.024  1.00  0.00     0.001 A 
HETATM   38  C   UNL     1      43.115 -14.014   3.254  1.00  0.00     0.009 A 
ENDBRANCH  32  33
ENDBRANCH  28  32
ENDBRANCH   4  25
TORSDOF 10
ENDMDL
MODEL 10
REMARK VINA RESULT:      -8.3      2.484      3.652
REMARK  10 active torsions:
REMARK  status: ('A' for Active; 'I' for Inactive)
REMARK    1  A    between atoms: C_2  and  C_3 
REMARK    2  A    between atoms: C_3  and  O_4 
REMARK    3  A    between atoms: O_4  and  C_5 
REMARK    4  A    between atoms: C_7  and  C_8 
REMARK       I    between atoms: C_8  and  N_9 
REMARK    5  A    between atoms: N_9  and  C_10 
REMARK    6  A    between atoms: C_10  and  N_11 
REMARK    7  A    between atoms: N_11  and  C_12 
REMARK    8  A    between atoms: C_15  and  N_16 
REMARK    9  A    between atoms: N_19  and  C_21 
REMARK   10  A    between atoms: C_21  and  C_22 
ROOT
HETATM    1  C   UNL     1      41.245 -10.542   5.307  1.00  0.00     0.034 C 
HETATM    2  C   UNL     1      40.166 -11.395   5.171  1.00  0.00     0.032 C 
HETATM    3  C   UNL     1      40.239 -12.741   5.563  1.00  0.00     0.031 C 
HETATM    4  C   UNL     1      41.366 -13.287   6.189  1.00  0.00     0.030 C 
HETATM    5  C   UNL     1      42.480 -12.437   6.241  1.00  0.00     0.031 C 
HETATM    6  C   UNL     1      42.424 -11.096   5.808  1.00  0.00     0.032 C 
ENDROOT
BRANCH   1   7
HETATM    7  N   UNL     1      41.262  -9.160   5.020  1.00  0.00    -0.333 N 
HETATM    8  H   UNL     1      41.705  -8.923   4.138  1.00  0.00     0.168 HD
BRANCH   7   9
HETATM    9  C   UNL     1      41.054  -8.038   5.753  1.00  0.00     0.179 C 
HETATM   10  S   UNL     1      41.105  -6.569   4.945  1.00  0.00    -0.040 SA
BRANCH   9  11
HETATM   11  N   UNL     1      40.959  -8.013   7.102  1.00  0.00    -0.299 N 
HETATM   12  C   UNL     1      39.880  -8.495   7.819  1.00  0.00     0.257 C 
HETATM   13  O   UNL     1      38.828  -8.871   7.314  1.00  0.00    -0.267 OA
HETATM   14  H   UNL     1      41.278  -7.127   7.474  1.00  0.00     0.171 HD
BRANCH  12  15
HETATM   15  C   UNL     1      40.084  -8.608   9.300  1.00  0.00     0.035 A 
HETATM   16  C   UNL     1      41.104  -7.924   9.976  1.00  0.00     0.053 A 
HETATM   17  C   UNL     1      41.312  -8.164  11.337  1.00  0.00     0.069 A 
HETATM   18  C   UNL     1      40.557  -9.119  12.013  1.00  0.00     0.037 A 
HETATM   19  C   UNL     1      39.539  -9.796  11.349  1.00  0.00     0.004 A 
HETATM   20  C   UNL     1      39.298  -9.538   9.999  1.00  0.00     0.017 A 
BRANCH  17  21
HETATM   21  O   UNL     1      42.319  -7.552  12.031  1.00  0.00    -0.351 OA
BRANCH  21  22
HETATM   22  C   UNL     1      43.379  -8.446  12.398  1.00  0.00     0.175 C 
BRANCH  22  23
HETATM   23  C   UNL     1      44.084  -9.053  11.182  1.00  0.00     0.022 C 
HETATM   24  C   UNL     1      44.011 -10.572  11.158  1.00  0.00     0.007 C 
ENDBRANCH  22  23
ENDBRANCH  21  22
ENDBRANCH  17  21
ENDBRANCH  12  15
ENDBRANCH   9  11
ENDBRANCH   7   9
ENDBRANCH   1   7
BRANCH   4  25
HETATM   25  N   UNL     1      41.377 -14.597   6.700  1.00  0.00    -0.378 N 
HETATM   26  C   UNL     1      42.681 -15.162   7.130  1.00  0.00     0.150 C 
HETATM   27  C   UNL     1      43.509 -15.587   5.894  1.00  0.00     0.255 C 
HETATM   28  N   UNL     1      42.720 -16.600   5.050  1.00  0.00    -0.064 N 
HETATM   29  H   UNL     1      42.610 -17.440   5.629  1.00  0.00     0.280 HD
HETATM   30  C   UNL     1      41.307 -16.091   4.719  1.00  0.00     0.255 C 
HETATM   31  C   UNL     1      40.572 -15.622   5.996  1.00  0.00     0.150 C 
BRANCH  28  32
HETATM   32  C   UNL     1      43.448 -17.007   3.790  1.00  0.00     0.273 C 
BRANCH  32  33
HETATM   33  C   UNL     1      43.638 -18.491   3.622  1.00  0.00    -0.033 A 
HETATM   34  C   UNL     1      43.471 -19.117   2.376  1.00  0.00     0.009 A 
HETATM   35  C   UNL     1      43.663 -20.493   2.243  1.00  0.00     0.001 A 
HETATM   36  C   UNL     1      44.045 -21.256   3.345  1.00  0.00     0.000 A 
HETATM   37  C   UNL     1      44.237 -20.644   4.581  1.00  0.00     0.001 A 
HETATM   38  C   UNL     1      44.035 -19.271   4.720  1.00  0.00     0.009 A 
ENDBRANCH  32  33
ENDBRANCH  28  32
ENDBRANCH   4  25
TORSDOF 10
ENDMDL
