MODEL 1
REMARK VINA RESULT:      -7.8      0.000      0.000
REMARK  4 active torsions:
REMARK  status: ('A' for Active; 'I' for Inactive)
REMARK    1  A    between atoms: C_6  and  N_7 
REMARK       I    between atoms: N_7  and  C_8 
REMARK    2  A    between atoms: C_8  and  C_9 
REMARK    3  A    between atoms: C_9  and  O_10 
REMARK    4  A    between atoms: O_10  and  C_11 
ROOT
HETATM    1  N   UNL     1      41.018 -13.898   0.354  1.00  0.00    -0.323 N 
HETATM    2  C   UNL     1      40.906 -14.933   1.268  1.00  0.00     0.256 C 
HETATM    3  O   UNL     1      39.991 -15.753   1.299  1.00  0.00    -0.270 OA
HETATM    4  H   UNL     1      41.862 -13.332   0.403  1.00  0.00     0.169 HD
ENDROOT
BRANCH   2   5
HETATM    5  C   UNL     1      42.096 -15.000   2.268  1.00  0.00     0.141 C 
HETATM    6  C   UNL     1      43.444 -15.199   1.554  1.00  0.00     0.057 C 
HETATM    7  C   UNL     1      42.171 -13.631   2.980  1.00  0.00     0.057 C 
BRANCH   5   8
HETATM    8  O   UNL     1      41.907 -15.946   3.328  1.00  0.00    -0.331 OA
BRANCH   8   9
HETATM    9  C   UNL     1      42.665 -17.076   3.435  1.00  0.00     0.072 A 
HETATM   10  C   UNL     1      42.750 -18.119   2.515  1.00  0.00     0.060 A 
HETATM   11  C   UNL     1      43.585 -19.211   2.774  1.00  0.00     0.036 A 
HETATM   12 CL   UNL     1      43.698 -20.487   1.624  1.00  0.00    -0.084 Cl
HETATM   13  C   UNL     1      44.330 -19.279   3.949  1.00  0.00     0.024 A 
HETATM   14  C   UNL     1      44.234 -18.250   4.881  1.00  0.00     0.004 A 
HETATM   15  C   UNL     1      43.401 -17.158   4.623  1.00  0.00     0.037 A 
ENDBRANCH   8   9
ENDBRANCH   5   8
ENDBRANCH   2   5
BRANCH   1  16
HETATM   16  C   UNL     1      40.135 -13.575  -0.707  1.00  0.00     0.060 A 
HETATM   17  C   UNL     1      40.198 -14.194  -1.953  1.00  0.00     0.050 A 
HETATM   18  C   UNL     1      39.297 -13.809  -2.929  1.00  0.00     0.119 A 
HETATM   19  N   UNL     1      38.359 -12.854  -2.755  1.00  0.00    -0.264 NA
HETATM   20  C   UNL     1      38.296 -12.248  -1.542  1.00  0.00     0.054 A 
HETATM   21  C   UNL     1      37.267 -11.164  -1.410  1.00  0.00     0.072 C 
HETATM   22  C   UNL     1      39.153 -12.591  -0.491  1.00  0.00     0.085 A 
HETATM   23 CL   UNL     1      39.048 -11.793   1.046  1.00  0.00    -0.080 Cl
ENDBRANCH   1  16
TORSDOF 4
ENDMDL
MODEL 2
REMARK VINA RESULT:      -7.6      2.820      7.515
REMARK  4 active torsions:
REMARK  status: ('A' for Active; 'I' for Inactive)
REMARK    1  A    between atoms: C_6  and  N_7 
REMARK       I    between atoms: N_7  and  C_8 
REMARK    2  A    between atoms: C_8  and  C_9 
REMARK    3  A    between atoms: C_9  and  O_10 
REMARK    4  A    between atoms: O_10  and  C_11 
ROOT
HETATM    1  N   UNL     1      43.216 -16.764   3.018  1.00  0.00    -0.323 N 
HETATM    2  C   UNL     1      42.079 -16.051   3.362  1.00  0.00     0.256 C 
HETATM    3  O   UNL     1      41.022 -16.548   3.744  1.00  0.00    -0.270 OA
HETATM    4  H   UNL     1      44.044 -16.222   2.782  1.00  0.00     0.169 HD
ENDROOT
BRANCH   2   5
HETATM    5  C   UNL     1      42.266 -14.510   3.259  1.00  0.00     0.141 C 
HETATM    6  C   UNL     1      42.824 -13.905   4.559  1.00  0.00     0.057 C 
HETATM    7  C   UNL     1      43.324 -14.252   2.163  1.00  0.00     0.057 C 
BRANCH   5   8
HETATM    8  O   UNL     1      41.099 -13.816   2.802  1.00  0.00    -0.331 OA
BRANCH   8   9
HETATM    9  C   UNL     1      40.831 -13.643   1.475  1.00  0.00     0.072 A 
HETATM   10  C   UNL     1      41.142 -12.531   0.695  1.00  0.00     0.060 A 
HETATM   11  C   UNL     1      40.801 -12.513  -0.661  1.00  0.00     0.036 A 
HETATM   12 CL   UNL     1      41.204 -11.143  -1.622  1.00  0.00    -0.084 Cl
HETATM   13  C   UNL     1      40.143 -13.592  -1.248  1.00  0.00     0.024 A 
HETATM   14  C   UNL     1      39.813 -14.698  -0.469  1.00  0.00     0.004 A 
HETATM   15  C   UNL     1      40.154 -14.717   0.886  1.00  0.00     0.037 A 
ENDBRANCH   8   9
ENDBRANCH   5   8
ENDBRANCH   2   5
BRANCH   1  16
HETATM   16  C   UNL     1      43.400 -18.169   3.035  1.00  0.00     0.060 A 
HETATM   17  C   UNL     1      43.147 -18.974   1.926  1.00  0.00     0.050 A 
HETATM   18  C   UNL     1      43.351 -20.338   2.038  1.00  0.00     0.119 A 
HETATM   19  N   UNL     1      43.769 -20.947   3.168  1.00  0.00    -0.264 NA
HETATM   20  C   UNL     1      44.014 -20.166   4.250  1.00  0.00     0.054 A 
HETATM   21  C   UNL     1      44.435 -20.893   5.494  1.00  0.00     0.072 C 
HETATM   22  C   UNL     1      43.857 -18.776   4.218  1.00  0.00     0.085 A 
HETATM   23 CL   UNL     1      44.176 -17.808   5.623  1.00  0.00    -0.080 Cl
ENDBRANCH   1  16
TORSDOF 4
ENDMDL
MODEL 3
REMARK VINA RESULT:      -7.6      4.585      6.694
REMARK  4 active torsions:
REMARK  status: ('A' for Active; 'I' for Inactive)
REMARK    1  A    between atoms: C_6  and  N_7 
REMARK       I    between atoms: N_7  and  C_8 
REMARK    2  A    between atoms: C_8  and  C_9 
REMARK    3  A    between atoms: C_9  and  O_10 
REMARK    4  A    between atoms: O_10  and  C_11 
ROOT
HETATM    1  N   UNL     1      43.338 -13.206   5.551  1.00  0.00    -0.323 N 
HETATM    2  C   UNL     1      42.894 -14.438   6.005  1.00  0.00     0.256 C 
HETATM    3  O   UNL     1      42.809 -14.768   7.185  1.00  0.00    -0.270 OA
HETATM    4  H   UNL     1      43.295 -13.044   4.549  1.00  0.00     0.169 HD
ENDROOT
BRANCH   2   5
HETATM    5  C   UNL     1      42.458 -15.394   4.857  1.00  0.00     0.141 C 
HETATM    6  C   UNL     1      41.449 -16.452   5.333  1.00  0.00     0.057 C 
HETATM    7  C   UNL     1      41.730 -14.533   3.800  1.00  0.00     0.057 C 
BRANCH   5   8
HETATM    8  O   UNL     1      43.556 -15.982   4.147  1.00  0.00    -0.331 OA
BRANCH   8   9
HETATM    9  C   UNL     1      43.608 -17.317   3.871  1.00  0.00     0.072 A 
HETATM   10  C   UNL     1      44.046 -18.332   4.719  1.00  0.00     0.060 A 
HETATM   11  C   UNL     1      44.031 -19.660   4.282  1.00  0.00     0.036 A 
HETATM   12 CL   UNL     1      44.556 -20.911   5.343  1.00  0.00    -0.084 Cl
HETATM   13  C   UNL     1      43.592 -19.988   3.001  1.00  0.00     0.024 A 
HETATM   14  C   UNL     1      43.173 -18.976   2.143  1.00  0.00     0.004 A 
HETATM   15  C   UNL     1      43.186 -17.649   2.578  1.00  0.00     0.037 A 
ENDBRANCH   8   9
ENDBRANCH   5   8
ENDBRANCH   2   5
BRANCH   1  16
HETATM   16  C   UNL     1      43.772 -12.101   6.324  1.00  0.00     0.060 A 
HETATM   17  C   UNL     1      45.088 -11.956   6.758  1.00  0.00     0.050 A 
HETATM   18  C   UNL     1      45.418 -10.844   7.513  1.00  0.00     0.119 A 
HETATM   19  N   UNL     1      44.535  -9.888   7.871  1.00  0.00    -0.264 NA
HETATM   20  C   UNL     1      43.252 -10.027   7.451  1.00  0.00     0.054 A 
HETATM   21  C   UNL     1      42.299  -8.962   7.911  1.00  0.00     0.072 C 
HETATM   22  C   UNL     1      42.836 -11.107   6.666  1.00  0.00     0.085 A 
HETATM   23 CL   UNL     1      41.186 -11.256   6.150  1.00  0.00    -0.080 Cl
ENDBRANCH   1  16
TORSDOF 4
ENDMDL
MODEL 4
REMARK VINA RESULT:      -7.6      3.454      7.374
REMARK  4 active torsions:
REMARK  status: ('A' for Active; 'I' for Inactive)
REMARK    1  A    between atoms: C_6  and  N_7 
REMARK       I    between atoms: N_7  and  C_8 
REMARK    2  A    between atoms: C_8  and  C_9 
REMARK    3  A    between atoms: C_9  and  O_10 
REMARK    4  A    between atoms: O_10  and  C_11 
ROOT
HETATM    1  N   UNL     1      43.504 -16.542   4.775  1.00  0.00    -0.323 N 
HETATM    2  C   UNL     1      42.342 -15.849   5.075  1.00  0.00     0.256 C 
HETATM    3  O   UNL     1      41.230 -16.355   5.201  1.00  0.00    -0.270 OA
HETATM    4  H   UNL     1      44.368 -16.007   4.765  1.00  0.00     0.169 HD
ENDROOT
BRANCH   2   5
HETATM    5  C   UNL     1      42.574 -14.325   5.286  1.00  0.00     0.141 C 
HETATM    6  C   UNL     1      41.291 -13.596   5.718  1.00  0.00     0.057 C 
HETATM    7  C   UNL     1      43.580 -14.174   6.449  1.00  0.00     0.057 C 
BRANCH   5   8
HETATM    8  O   UNL     1      43.210 -13.679   4.175  1.00  0.00    -0.331 OA
BRANCH   8   9
HETATM    9  C   UNL     1      42.506 -13.249   3.088  1.00  0.00     0.072 A 
HETATM   10  C   UNL     1      41.818 -14.038   2.169  1.00  0.00     0.060 A 
HETATM   11  C   UNL     1      41.138 -13.436   1.105  1.00  0.00     0.036 A 
HETATM   12 CL   UNL     1      40.275 -14.417  -0.017  1.00  0.00    -0.084 Cl
HETATM   13  C   UNL     1      41.145 -12.052   0.942  1.00  0.00     0.024 A 
HETATM   14  C   UNL     1      41.847 -11.261   1.846  1.00  0.00     0.004 A 
HETATM   15  C   UNL     1      42.526 -11.860   2.909  1.00  0.00     0.037 A 
ENDBRANCH   8   9
ENDBRANCH   5   8
ENDBRANCH   2   5
BRANCH   1  16
HETATM   16  C   UNL     1      43.653 -17.935   4.559  1.00  0.00     0.060 A 
HETATM   17  C   UNL     1      43.895 -18.835   5.594  1.00  0.00     0.050 A 
HETATM   18  C   UNL     1      44.032 -20.177   5.285  1.00  0.00     0.119 A 
HETATM   19  N   UNL     1      43.959 -20.673   4.032  1.00  0.00    -0.264 NA
HETATM   20  C   UNL     1      43.725 -19.798   3.021  1.00  0.00     0.054 A 
HETATM   21  C   UNL     1      43.695 -20.392   1.643  1.00  0.00     0.072 C 
HETATM   22  C   UNL     1      43.551 -18.428   3.245  1.00  0.00     0.085 A 
HETATM   23 CL   UNL     1      43.257 -17.337   1.929  1.00  0.00    -0.080 Cl
ENDBRANCH   1  16
TORSDOF 4
ENDMDL
MODEL 5
REMARK VINA RESULT:      -7.4      3.692      5.961
REMARK  4 active torsions:
REMARK  status: ('A' for Active; 'I' for Inactive)
REMARK    1  A    between atoms: C_6  and  N_7 
REMARK       I    between atoms: N_7  and  C_8 
REMARK    2  A    between atoms: C_8  and  C_9 
REMARK    3  A    between atoms: C_9  and  O_10 
REMARK    4  A    between atoms: O_10  and  C_11 
ROOT
HETATM    1  N   UNL     1      42.356 -12.850   4.327  1.00  0.00    -0.323 N 
HETATM    2  C   UNL     1      41.335 -13.782   4.227  1.00  0.00     0.256 C 
HETATM    3  O   UNL     1      40.335 -13.814   4.940  1.00  0.00    -0.270 OA
HETATM    4  H   UNL     1      43.093 -12.901   3.629  1.00  0.00     0.169 HD
ENDROOT
BRANCH   2   5
HETATM    5  C   UNL     1      41.545 -14.800   3.070  1.00  0.00     0.141 C 
HETATM    6  C   UNL     1      40.548 -15.969   3.137  1.00  0.00     0.057 C 
HETATM    7  C   UNL     1      41.261 -14.053   1.748  1.00  0.00     0.057 C 
BRANCH   5   8
HETATM    8  O   UNL     1      42.898 -15.256   2.941  1.00  0.00    -0.331 OA
BRANCH   8   9
HETATM    9  C   UNL     1      43.267 -16.530   3.264  1.00  0.00     0.072 A 
HETATM   10  C   UNL     1      43.240 -17.647   2.433  1.00  0.00     0.060 A 
HETATM   11  C   UNL     1      43.661 -18.889   2.921  1.00  0.00     0.036 A 
HETATM   12 CL   UNL     1      43.641 -20.262   1.882  1.00  0.00    -0.084 Cl
HETATM   13  C   UNL     1      44.100 -19.030   4.235  1.00  0.00     0.024 A 
HETATM   14  C   UNL     1      44.111 -17.921   5.076  1.00  0.00     0.004 A 
HETATM   15  C   UNL     1      43.692 -16.680   4.590  1.00  0.00     0.037 A 
ENDBRANCH   8   9
ENDBRANCH   5   8
ENDBRANCH   2   5
BRANCH   1  16
HETATM   16  C   UNL     1      42.461 -11.771   5.240  1.00  0.00     0.060 A 
HETATM   17  C   UNL     1      41.791 -10.563   5.058  1.00  0.00     0.050 A 
HETATM   18  C   UNL     1      41.959  -9.565   6.000  1.00  0.00     0.119 A 
HETATM   19  N   UNL     1      42.749  -9.681   7.088  1.00  0.00    -0.264 NA
HETATM   20  C   UNL     1      43.404 -10.855   7.268  1.00  0.00     0.054 A 
HETATM   21  C   UNL     1      44.302 -10.920   8.469  1.00  0.00     0.072 C 
HETATM   22  C   UNL     1      43.274 -11.926   6.377  1.00  0.00     0.085 A 
HETATM   23 CL   UNL     1      44.130 -13.413   6.635  1.00  0.00    -0.080 Cl
ENDBRANCH   1  16
TORSDOF 4
ENDMDL
MODEL 6
REMARK VINA RESULT:      -7.3      2.100      2.914
REMARK  4 active torsions:
REMARK  status: ('A' for Active; 'I' for Inactive)
REMARK    1  A    between atoms: C_6  and  N_7 
REMARK       I    between atoms: N_7  and  C_8 
REMARK    2  A    between atoms: C_8  and  C_9 
REMARK    3  A    between atoms: C_9  and  O_10 
REMARK    4  A    between atoms: O_10  and  C_11 
ROOT
HETATM    1  N   UNL     1      41.587 -14.017   2.483  1.00  0.00    -0.323 N 
HETATM    2  C   UNL     1      41.053 -14.066   3.760  1.00  0.00     0.256 C 
HETATM    3  O   UNL     1      40.024 -13.499   4.119  1.00  0.00    -0.270 OA
HETATM    4  H   UNL     1      42.410 -14.588   2.307  1.00  0.00     0.169 HD
ENDROOT
BRANCH   2   5
HETATM    5  C   UNL     1      41.871 -14.963   4.734  1.00  0.00     0.141 C 
HETATM    6  C   UNL     1      42.070 -14.299   6.107  1.00  0.00     0.057 C 
HETATM    7  C   UNL     1      41.043 -16.244   4.979  1.00  0.00     0.057 C 
BRANCH   5   8
HETATM    8  O   UNL     1      43.108 -15.434   4.183  1.00  0.00    -0.331 OA
BRANCH   8   9
HETATM    9  C   UNL     1      43.306 -16.746   3.863  1.00  0.00     0.072 A 
HETATM   10  C   UNL     1      43.769 -17.754   4.706  1.00  0.00     0.060 A 
HETATM   11  C   UNL     1      43.911 -19.057   4.220  1.00  0.00     0.036 A 
HETATM   12 CL   UNL     1      44.468 -20.301   5.273  1.00  0.00    -0.084 Cl
HETATM   13  C   UNL     1      43.606 -19.366   2.897  1.00  0.00     0.024 A 
HETATM   14  C   UNL     1      43.161 -18.359   2.045  1.00  0.00     0.004 A 
HETATM   15  C   UNL     1      43.017 -17.056   2.529  1.00  0.00     0.037 A 
ENDBRANCH   8   9
ENDBRANCH   5   8
ENDBRANCH   2   5
BRANCH   1  16
HETATM   16  C   UNL     1      41.078 -13.329   1.354  1.00  0.00     0.060 A 
HETATM   17  C   UNL     1      41.332 -11.980   1.117  1.00  0.00     0.050 A 
HETATM   18  C   UNL     1      40.787 -11.392  -0.011  1.00  0.00     0.119 A 
HETATM   19  N   UNL     1      40.007 -12.044  -0.898  1.00  0.00    -0.264 NA
HETATM   20  C   UNL     1      39.756 -13.358  -0.670  1.00  0.00     0.054 A 
HETATM   21  C   UNL     1      38.849 -14.028  -1.661  1.00  0.00     0.072 C 
HETATM   22  C   UNL     1      40.285 -14.038   0.433  1.00  0.00     0.085 A 
HETATM   23 CL   UNL     1      39.941 -15.718   0.696  1.00  0.00    -0.080 Cl
ENDBRANCH   1  16
TORSDOF 4
ENDMDL
MODEL 7
REMARK VINA RESULT:      -7.2      3.332      4.630
REMARK  4 active torsions:
REMARK  status: ('A' for Active; 'I' for Inactive)
REMARK    1  A    between atoms: C_6  and  N_7 
REMARK       I    between atoms: N_7  and  C_8 
REMARK    2  A    between atoms: C_8  and  C_9 
REMARK    3  A    between atoms: C_9  and  O_10 
REMARK    4  A    between atoms: O_10  and  C_11 
ROOT
HETATM    1  N   UNL     1      39.853 -13.346   4.179  1.00  0.00    -0.323 N 
HETATM    2  C   UNL     1      41.112 -13.660   3.693  1.00  0.00     0.256 C 
HETATM    3  O   UNL     1      42.102 -12.937   3.775  1.00  0.00    -0.270 OA
HETATM    4  H   UNL     1      39.139 -14.066   4.102  1.00  0.00     0.169 HD
ENDROOT
BRANCH   2   5
HETATM    5  C   UNL     1      41.185 -15.073   3.045  1.00  0.00     0.141 C 
HETATM    6  C   UNL     1      40.501 -16.145   3.911  1.00  0.00     0.057 C 
HETATM    7  C   UNL     1      40.395 -15.007   1.719  1.00  0.00     0.057 C 
BRANCH   5   8
HETATM    8  O   UNL     1      42.508 -15.462   2.656  1.00  0.00    -0.331 OA
BRANCH   8   9
HETATM    9  C   UNL     1      43.041 -16.669   3.006  1.00  0.00     0.072 A 
HETATM   10  C   UNL     1      43.032 -17.840   2.251  1.00  0.00     0.060 A 
HETATM   11  C   UNL     1      43.631 -18.999   2.755  1.00  0.00     0.036 A 
HETATM   12 CL   UNL     1      43.632 -20.437   1.808  1.00  0.00    -0.084 Cl
HETATM   13  C   UNL     1      44.231 -19.006   4.012  1.00  0.00     0.024 A 
HETATM   14  C   UNL     1      44.226 -17.845   4.779  1.00  0.00     0.004 A 
HETATM   15  C   UNL     1      43.629 -16.686   4.276  1.00  0.00     0.037 A 
ENDBRANCH   8   9
ENDBRANCH   5   8
ENDBRANCH   2   5
BRANCH   1  16
HETATM   16  C   UNL     1      39.451 -12.166   4.853  1.00  0.00     0.060 A 
HETATM   17  C   UNL     1      39.460 -12.052   6.241  1.00  0.00     0.050 A 
HETATM   18  C   UNL     1      39.045 -10.861   6.810  1.00  0.00     0.119 A 
HETATM   19  N   UNL     1      38.614  -9.797   6.100  1.00  0.00    -0.264 NA
HETATM   20  C   UNL     1      38.603  -9.905   4.747  1.00  0.00     0.054 A 
HETATM   21  C   UNL     1      38.076  -8.712   4.004  1.00  0.00     0.072 C 
HETATM   22  C   UNL     1      39.027 -11.064   4.088  1.00  0.00     0.085 A 
HETATM   23 CL   UNL     1      38.996 -11.170   2.357  1.00  0.00    -0.080 Cl
ENDBRANCH   1  16
TORSDOF 4
ENDMDL
MODEL 8
REMARK VINA RESULT:      -7.1      2.148      2.846
REMARK  4 active torsions:
REMARK  status: ('A' for Active; 'I' for Inactive)
REMARK    1  A    between atoms: C_6  and  N_7 
REMARK       I    between atoms: N_7  and  C_8 
REMARK    2  A    between atoms: C_8  and  C_9 
REMARK    3  A    between atoms: C_9  and  O_10 
REMARK    4  A    between atoms: O_10  and  C_11 
ROOT
HETATM    1  N   UNL     1      40.904 -13.460   2.743  1.00  0.00    -0.323 N 
HETATM    2  C   UNL     1      42.129 -13.612   3.374  1.00  0.00     0.256 C 
HETATM    3  O   UNL     1      43.223 -13.521   2.823  1.00  0.00    -0.270 OA
HETATM    4  H   UNL     1      40.077 -13.496   3.333  1.00  0.00     0.169 HD
ENDROOT
BRANCH   2   5
HETATM    5  C   UNL     1      42.003 -13.879   4.902  1.00  0.00     0.141 C 
HETATM    6  C   UNL     1      43.309 -13.572   5.654  1.00  0.00     0.057 C 
HETATM    7  C   UNL     1      40.939 -12.901   5.449  1.00  0.00     0.057 C 
BRANCH   5   8
HETATM    8  O   UNL     1      41.494 -15.180   5.220  1.00  0.00    -0.331 OA
BRANCH   8   9
HETATM    9  C   UNL     1      42.282 -16.294   5.190  1.00  0.00     0.072 A 
HETATM   10  C   UNL     1      42.806 -16.921   4.062  1.00  0.00     0.060 A 
HETATM   11  C   UNL     1      43.605 -18.059   4.204  1.00  0.00     0.036 A 
HETATM   12 CL   UNL     1      44.263 -18.818   2.806  1.00  0.00    -0.084 Cl
HETATM   13  C   UNL     1      43.881 -18.587   5.464  1.00  0.00     0.024 A 
HETATM   14  C   UNL     1      43.345 -17.976   6.594  1.00  0.00     0.004 A 
HETATM   15  C   UNL     1      42.547 -16.838   6.453  1.00  0.00     0.037 A 
ENDBRANCH   8   9
ENDBRANCH   5   8
ENDBRANCH   2   5
BRANCH   1  16
HETATM   16  C   UNL     1      40.660 -13.175   1.377  1.00  0.00     0.060 A 
HETATM   17  C   UNL     1      40.909 -11.927   0.812  1.00  0.00     0.050 A 
HETATM   18  C   UNL     1      40.634 -11.741  -0.531  1.00  0.00     0.119 A 
HETATM   19  N   UNL     1      40.122 -12.697  -1.334  1.00  0.00    -0.264 NA
HETATM   20  C   UNL     1      39.877 -13.914  -0.787  1.00  0.00     0.054 A 
HETATM   21  C   UNL     1      39.268 -14.930  -1.709  1.00  0.00     0.072 C 
HETATM   22  C   UNL     1      40.146 -14.196   0.556  1.00  0.00     0.085 A 
HETATM   23 CL   UNL     1      39.816 -15.763   1.225  1.00  0.00    -0.080 Cl
ENDBRANCH   1  16
TORSDOF 4
ENDMDL
MODEL 9
REMARK VINA RESULT:      -6.9      2.608      7.533
REMARK  4 active torsions:
REMARK  status: ('A' for Active; 'I' for Inactive)
REMARK    1  A    between atoms: C_6  and  N_7 
REMARK       I    between atoms: N_7  and  C_8 
REMARK    2  A    between atoms: C_8  and  C_9 
REMARK    3  A    between atoms: C_9  and  O_10 
REMARK    4  A    between atoms: O_10  and  C_11 
ROOT
HETATM    1  N   UNL     1      42.167 -15.178   2.903  1.00  0.00    -0.323 N 
HETATM    2  C   UNL     1      40.840 -14.953   2.571  1.00  0.00     0.256 C 
HETATM    3  O   UNL     1      39.962 -15.812   2.545  1.00  0.00    -0.270 OA
HETATM    4  H   UNL     1      42.773 -14.363   2.948  1.00  0.00     0.169 HD
ENDROOT
BRANCH   2   5
HETATM    5  C   UNL     1      40.531 -13.460   2.258  1.00  0.00     0.141 C 
HETATM    6  C   UNL     1      39.095 -13.071   2.646  1.00  0.00     0.057 C 
HETATM    7  C   UNL     1      41.472 -12.606   3.137  1.00  0.00     0.057 C 
BRANCH   5   8
HETATM    8  O   UNL     1      40.846 -13.074   0.914  1.00  0.00    -0.331 OA
BRANCH   8   9
HETATM    9  C   UNL     1      39.935 -13.165  -0.098  1.00  0.00     0.072 A 
HETATM   10  C   UNL     1      39.046 -12.178  -0.517  1.00  0.00     0.060 A 
HETATM   11  C   UNL     1      38.175 -12.431  -1.581  1.00  0.00     0.036 A 
HETATM   12 CL   UNL     1      37.090 -11.200  -2.104  1.00  0.00    -0.084 Cl
HETATM   13  C   UNL     1      38.174 -13.664  -2.229  1.00  0.00     0.024 A 
HETATM   14  C   UNL     1      39.047 -14.661  -1.802  1.00  0.00     0.004 A 
HETATM   15  C   UNL     1      39.919 -14.410  -0.739  1.00  0.00     0.037 A 
ENDBRANCH   8   9
ENDBRANCH   5   8
ENDBRANCH   2   5
BRANCH   1  16
HETATM   16  C   UNL     1      42.774 -16.404   3.273  1.00  0.00     0.060 A 
HETATM   17  C   UNL     1      43.277 -17.306   2.340  1.00  0.00     0.050 A 
HETATM   18  C   UNL     1      43.849 -18.481   2.796  1.00  0.00     0.119 A 
HETATM   19  N   UNL     1      43.938 -18.818   4.100  1.00  0.00    -0.264 NA
HETATM   20  C   UNL     1      43.448 -17.941   5.012  1.00  0.00     0.054 A 
HETATM   21  C   UNL     1      43.532 -18.380   6.445  1.00  0.00     0.072 C 
HETATM   22  C   UNL     1      42.874 -16.721   4.640  1.00  0.00     0.085 A 
HETATM   23 CL   UNL     1      42.252 -15.625   5.833  1.00  0.00    -0.080 Cl
ENDBRANCH   1  16
TORSDOF 4
ENDMDL
MODEL 10
REMARK VINA RESULT:      -6.9     14.692     16.863
REMARK  4 active torsions:
REMARK  status: ('A' for Active; 'I' for Inactive)
REMARK    1  A    between atoms: C_6  and  N_7 
REMARK       I    between atoms: N_7  and  C_8 
REMARK    2  A    between atoms: C_8  and  C_9 
REMARK    3  A    between atoms: C_9  and  O_10 
REMARK    4  A    between atoms: O_10  and  C_11 
ROOT
HETATM    1  N   UNL     1      46.910 -30.398   0.695  1.00  0.00    -0.323 N 
HETATM    2  C   UNL     1      46.100 -29.367   1.143  1.00  0.00     0.256 C 
HETATM    3  O   UNL     1      46.497 -28.263   1.506  1.00  0.00    -0.270 OA
HETATM    4  H   UNL     1      46.442 -31.238   0.363  1.00  0.00     0.169 HD
ENDROOT
BRANCH   2   5
HETATM    5  C   UNL     1      44.584 -29.719   1.111  1.00  0.00     0.141 C 
HETATM    6  C   UNL     1      44.342 -31.237   1.076  1.00  0.00     0.057 C 
HETATM    7  C   UNL     1      43.970 -29.205   2.433  1.00  0.00     0.057 C 
BRANCH   5   8
HETATM    8  O   UNL     1      43.854 -29.036   0.085  1.00  0.00    -0.331 OA
BRANCH   8   9
HETATM    9  C   UNL     1      44.225 -29.089  -1.227  1.00  0.00     0.072 A 
HETATM   10  C   UNL     1      44.012 -30.139  -2.117  1.00  0.00     0.060 A 
HETATM   11  C   UNL     1      44.454 -30.033  -3.439  1.00  0.00     0.036 A 
HETATM   12 CL   UNL     1      44.172 -31.328  -4.538  1.00  0.00    -0.084 Cl
HETATM   13  C   UNL     1      45.115 -28.890  -3.884  1.00  0.00     0.024 A 
HETATM   14  C   UNL     1      45.347 -27.845  -2.994  1.00  0.00     0.004 A 
HETATM   15  C   UNL     1      44.906 -27.950  -1.672  1.00  0.00     0.037 A 
ENDBRANCH   8   9
ENDBRANCH   5   8
ENDBRANCH   2   5
BRANCH   1  16
HETATM   16  C   UNL     1      48.320 -30.401   0.562  1.00  0.00     0.060 A 
HETATM   17  C   UNL     1      49.179 -30.374   1.658  1.00  0.00     0.050 A 
HETATM   18  C   UNL     1      50.544 -30.374   1.430  1.00  0.00     0.119 A 
HETATM   19  N   UNL     1      51.102 -30.383   0.201  1.00  0.00    -0.264 NA
HETATM   20  C   UNL     1      50.268 -30.408  -0.869  1.00  0.00     0.054 A 
HETATM   21  C   UNL     1      50.935 -30.375  -2.213  1.00  0.00     0.072 C 
HETATM   22  C   UNL     1      48.876 -30.433  -0.730  1.00  0.00     0.085 A 
HETATM   23 CL   UNL     1      47.838 -30.460  -2.120  1.00  0.00    -0.080 Cl
ENDBRANCH   1  16
TORSDOF 4
ENDMDL
