MODEL 1
REMARK VINA RESULT:      -9.5      0.000      0.000
REMARK  8 active torsions:
REMARK  status: ('A' for Active; 'I' for Inactive)
REMARK    1  A    between atoms: C_7  and  C_8 
REMARK    2  A    between atoms: C_10  and  O_11 
REMARK    3  A    between atoms: C_13  and  O_14 
REMARK    4  A    between atoms: O_14  and  C_15 
REMARK    5  A    between atoms: C_15  and  C_16 
REMARK       I    between atoms: C_16  and  N_17 
REMARK    6  A    between atoms: C_21  and  C_22 
REMARK       I    between atoms: C_22  and  N_23 
REMARK    7  A    between atoms: N_23  and  C_24 
REMARK    8  A    between atoms: C_24  and  C_25 
ROOT
HETATM    1  C   UNL     1      43.543 -12.979   6.466  1.00  0.00     0.069 C 
HETATM    2  C   UNL     1      42.260 -13.371   5.792  1.00  0.00     0.024 C 
HETATM    3  N   UNL     1      41.163 -12.612   6.137  1.00  0.00    -0.312 N 
HETATM    4  C   UNL     1      39.871 -12.904   5.812  1.00  0.00     0.321 C 
HETATM    5  O   UNL     1      38.937 -12.207   6.192  1.00  0.00    -0.247 OA
HETATM    6  N   UNL     1      39.674 -14.021   5.071  1.00  0.00    -0.330 N 
HETATM    7  C   UNL     1      40.727 -14.758   4.394  1.00  0.00     0.160 C 
HETATM    8  C   UNL     1      42.080 -14.403   4.947  1.00  0.00     0.059 C 
HETATM    9  H   UNL     1      41.265 -11.822   6.762  1.00  0.00     0.170 HD
HETATM   10  H   UNL     1      38.714 -14.205   4.819  1.00  0.00     0.165 HD
ENDROOT
BRANCH   7  11
HETATM   11  C   UNL     1      40.617 -14.522   2.892  1.00  0.00    -0.028 A 
HETATM   12  C   UNL     1      40.950 -13.280   2.320  1.00  0.00     0.049 A 
HETATM   13  C   UNL     1      40.812 -13.036   0.944  1.00  0.00     0.102 A 
HETATM   14  C   UNL     1      40.365 -14.077   0.114  1.00  0.00     0.102 A 
HETATM   15  C   UNL     1      40.035 -15.316   0.681  1.00  0.00     0.040 A 
HETATM   16  C   UNL     1      40.161 -15.542   2.052  1.00  0.00     0.012 A 
BRANCH  13  17
HETATM   17  O   UNL     1      41.102 -11.825   0.378  1.00  0.00    -0.353 OA
HETATM   18  C   UNL     1      40.060 -10.857   0.312  1.00  0.00     0.210 C 
ENDBRANCH  13  17
BRANCH  14  19
HETATM   19  O   UNL     1      40.154 -14.050  -1.241  1.00  0.00    -0.339 OA
BRANCH  19  20
HETATM   20  C   UNL     1      38.819 -13.891  -1.714  1.00  0.00     0.278 C 
BRANCH  20  21
HETATM   21  C   UNL     1      38.548 -14.878  -2.849  1.00  0.00     0.239 C 
HETATM   22  N   UNL     1      38.338 -16.173  -2.470  1.00  0.00    -0.368 N 
HETATM   23  H   UNL     1      38.576 -16.464  -1.529  1.00  0.00     0.159 HD
HETATM   24  H   UNL     1      38.220 -16.869  -3.192  1.00  0.00     0.159 HD
HETATM   25  O   UNL     1      38.465 -14.546  -4.028  1.00  0.00    -0.271 OA
ENDBRANCH  20  21
ENDBRANCH  19  20
ENDBRANCH  14  19
ENDBRANCH   7  11
BRANCH   8  26
HETATM   26  C   UNL     1      43.165 -15.341   4.561  1.00  0.00     0.252 C 
HETATM   27  N   UNL     1      43.486 -16.279   5.509  1.00  0.00    -0.353 N 
HETATM   28  H   UNL     1      43.147 -16.162   6.455  1.00  0.00     0.163 HD
HETATM   29  O   UNL     1      43.749 -15.212   3.492  1.00  0.00    -0.268 OA
BRANCH  27  30
HETATM   30  C   UNL     1      44.578 -17.201   5.285  1.00  0.00     0.161 C 
BRANCH  30  31
HETATM   31  C   UNL     1      44.179 -18.451   4.538  1.00  0.00    -0.041 A 
HETATM   32  C   UNL     1      43.969 -18.470   3.151  1.00  0.00     0.009 A 
HETATM   33  C   UNL     1      43.656 -19.662   2.491  1.00  0.00     0.001 A 
HETATM   34  C   UNL     1      43.575 -20.855   3.204  1.00  0.00     0.000 A 
HETATM   35  C   UNL     1      43.805 -20.859   4.577  1.00  0.00     0.001 A 
HETATM   36  C   UNL     1      44.107 -19.666   5.238  1.00  0.00     0.009 A 
ENDBRANCH  30  31
ENDBRANCH  27  30
ENDBRANCH   8  26
TORSDOF 8
ENDMDL
MODEL 2
REMARK VINA RESULT:      -8.8      3.372      7.486
REMARK  8 active torsions:
REMARK  status: ('A' for Active; 'I' for Inactive)
REMARK    1  A    between atoms: C_7  and  C_8 
REMARK    2  A    between atoms: C_10  and  O_11 
REMARK    3  A    between atoms: C_13  and  O_14 
REMARK    4  A    between atoms: O_14  and  C_15 
REMARK    5  A    between atoms: C_15  and  C_16 
REMARK       I    between atoms: C_16  and  N_17 
REMARK    6  A    between atoms: C_21  and  C_22 
REMARK       I    between atoms: C_22  and  N_23 
REMARK    7  A    between atoms: N_23  and  C_24 
REMARK    8  A    between atoms: C_24  and  C_25 
ROOT
HETATM    1  C   UNL     1      40.625 -14.621   3.741  1.00  0.00     0.069 C 
HETATM    2  C   UNL     1      41.714 -13.593   3.839  1.00  0.00     0.024 C 
HETATM    3  N   UNL     1      41.574 -12.509   2.999  1.00  0.00    -0.312 N 
HETATM    4  C   UNL     1      42.527 -11.563   2.770  1.00  0.00     0.321 C 
HETATM    5  O   UNL     1      42.351 -10.649   1.972  1.00  0.00    -0.247 OA
HETATM    6  N   UNL     1      43.691 -11.702   3.450  1.00  0.00    -0.330 N 
HETATM    7  C   UNL     1      43.888 -12.607   4.569  1.00  0.00     0.160 C 
HETATM    8  C   UNL     1      42.814 -13.659   4.613  1.00  0.00     0.059 C 
HETATM    9  H   UNL     1      40.754 -12.423   2.411  1.00  0.00     0.170 HD
HETATM   10  H   UNL     1      44.374 -10.977   3.286  1.00  0.00     0.165 HD
ENDROOT
BRANCH   7  11
HETATM   11  C   UNL     1      43.982 -11.797   5.857  1.00  0.00    -0.028 A 
HETATM   12  C   UNL     1      42.876 -11.080   6.352  1.00  0.00     0.049 A 
HETATM   13  C   UNL     1      42.962 -10.295   7.513  1.00  0.00     0.102 A 
HETATM   14  C   UNL     1      44.176 -10.259   8.219  1.00  0.00     0.102 A 
HETATM   15  C   UNL     1      45.278 -10.975   7.729  1.00  0.00     0.040 A 
HETATM   16  C   UNL     1      45.186 -11.739   6.564  1.00  0.00     0.012 A 
BRANCH  13  17
HETATM   17  O   UNL     1      41.906  -9.568   7.991  1.00  0.00    -0.353 OA
HETATM   18  C   UNL     1      40.733  -9.496   7.187  1.00  0.00     0.210 C 
ENDBRANCH  13  17
BRANCH  14  19
HETATM   19  O   UNL     1      44.474  -9.558   9.359  1.00  0.00    -0.339 OA
BRANCH  19  20
HETATM   20  C   UNL     1      44.781 -10.291  10.542  1.00  0.00     0.278 C 
BRANCH  20  21
HETATM   21  C   UNL     1      43.501 -10.567  11.330  1.00  0.00     0.239 C 
HETATM   22  N   UNL     1      43.547 -11.635  12.180  1.00  0.00    -0.368 N 
HETATM   23  H   UNL     1      44.304 -12.305  12.101  1.00  0.00     0.159 HD
HETATM   24  H   UNL     1      42.703 -11.891  12.671  1.00  0.00     0.159 HD
HETATM   25  O   UNL     1      42.501  -9.859  11.264  1.00  0.00    -0.271 OA
ENDBRANCH  20  21
ENDBRANCH  19  20
ENDBRANCH  14  19
ENDBRANCH   7  11
BRANCH   8  26
HETATM   26  C   UNL     1      43.119 -14.810   5.500  1.00  0.00     0.252 C 
HETATM   27  N   UNL     1      43.726 -15.874   4.883  1.00  0.00    -0.353 N 
HETATM   28  H   UNL     1      43.739 -15.918   3.873  1.00  0.00     0.163 HD
HETATM   29  O   UNL     1      42.779 -14.797   6.677  1.00  0.00    -0.268 OA
BRANCH  27  30
HETATM   30  C   UNL     1      44.005 -17.086   5.622  1.00  0.00     0.161 C 
BRANCH  30  31
HETATM   31  C   UNL     1      43.878 -18.346   4.800  1.00  0.00    -0.041 A 
HETATM   32  C   UNL     1      43.756 -18.329   3.402  1.00  0.00     0.009 A 
HETATM   33  C   UNL     1      43.697 -19.521   2.675  1.00  0.00     0.001 A 
HETATM   34  C   UNL     1      43.785 -20.746   3.331  1.00  0.00     0.000 A 
HETATM   35  C   UNL     1      43.930 -20.781   4.716  1.00  0.00     0.001 A 
HETATM   36  C   UNL     1      43.979 -19.590   5.444  1.00  0.00     0.009 A 
ENDBRANCH  30  31
ENDBRANCH  27  30
ENDBRANCH   8  26
TORSDOF 8
ENDMDL
MODEL 3
REMARK VINA RESULT:      -8.5      1.825      2.778
REMARK  8 active torsions:
REMARK  status: ('A' for Active; 'I' for Inactive)
REMARK    1  A    between atoms: C_7  and  C_8 
REMARK    2  A    between atoms: C_10  and  O_11 
REMARK    3  A    between atoms: C_13  and  O_14 
REMARK    4  A    between atoms: O_14  and  C_15 
REMARK    5  A    between atoms: C_15  and  C_16 
REMARK       I    between atoms: C_16  and  N_17 
REMARK    6  A    between atoms: C_21  and  C_22 
REMARK       I    between atoms: C_22  and  N_23 
REMARK    7  A    between atoms: N_23  and  C_24 
REMARK    8  A    between atoms: C_24  and  C_25 
ROOT
HETATM    1  C   UNL     1      43.481 -13.778   5.903  1.00  0.00     0.069 C 
HETATM    2  C   UNL     1      42.133 -13.590   5.270  1.00  0.00     0.024 C 
HETATM    3  N   UNL     1      41.206 -12.934   6.050  1.00  0.00    -0.312 N 
HETATM    4  C   UNL     1      39.876 -12.828   5.771  1.00  0.00     0.321 C 
HETATM    5  O   UNL     1      39.099 -12.267   6.535  1.00  0.00    -0.247 OA
HETATM    6  N   UNL     1      39.456 -13.400   4.617  1.00  0.00    -0.330 N 
HETATM    7  C   UNL     1      40.335 -13.870   3.561  1.00  0.00     0.160 C 
HETATM    8  C   UNL     1      41.742 -14.042   4.063  1.00  0.00     0.059 C 
HETATM    9  H   UNL     1      41.470 -12.572   6.959  1.00  0.00     0.170 HD
HETATM   10  H   UNL     1      38.472 -13.289   4.416  1.00  0.00     0.165 HD
ENDROOT
BRANCH   7  11
HETATM   11  C   UNL     1      40.239 -12.924   2.371  1.00  0.00    -0.028 A 
HETATM   12  C   UNL     1      39.706 -13.350   1.139  1.00  0.00     0.049 A 
HETATM   13  C   UNL     1      39.653 -12.502   0.022  1.00  0.00     0.102 A 
HETATM   14  C   UNL     1      40.108 -11.179   0.153  1.00  0.00     0.102 A 
HETATM   15  C   UNL     1      40.636 -10.752   1.379  1.00  0.00     0.040 A 
HETATM   16  C   UNL     1      40.699 -11.609   2.479  1.00  0.00     0.012 A 
BRANCH  13  17
HETATM   17  O   UNL     1      39.167 -12.910  -1.191  1.00  0.00    -0.353 OA
HETATM   18  C   UNL     1      39.203 -14.302  -1.485  1.00  0.00     0.210 C 
ENDBRANCH  13  17
BRANCH  14  19
HETATM   19  O   UNL     1      40.152 -10.198  -0.805  1.00  0.00    -0.339 OA
BRANCH  19  20
HETATM   20  C   UNL     1      41.286 -10.144  -1.665  1.00  0.00     0.278 C 
BRANCH  20  21
HETATM   21  C   UNL     1      40.896 -10.598  -3.071  1.00  0.00     0.239 C 
HETATM   22  N   UNL     1      41.159 -11.906  -3.365  1.00  0.00    -0.368 N 
HETATM   23  H   UNL     1      41.770 -12.441  -2.760  1.00  0.00     0.159 HD
HETATM   24  H   UNL     1      40.976 -12.229  -4.304  1.00  0.00     0.159 HD
HETATM   25  O   UNL     1      40.333  -9.871  -3.884  1.00  0.00    -0.271 OA
ENDBRANCH  20  21
ENDBRANCH  19  20
ENDBRANCH  14  19
ENDBRANCH   7  11
BRANCH   8  26
HETATM   26  C   UNL     1      42.622 -14.831   3.164  1.00  0.00     0.252 C 
HETATM   27  N   UNL     1      42.374 -16.180   3.145  1.00  0.00    -0.353 N 
HETATM   28  H   UNL     1      41.789 -16.585   3.863  1.00  0.00     0.163 HD
HETATM   29  O   UNL     1      43.533 -14.288   2.550  1.00  0.00    -0.268 OA
BRANCH  27  30
HETATM   30  C   UNL     1      43.212 -17.067   2.368  1.00  0.00     0.161 C 
BRANCH  30  31
HETATM   31  C   UNL     1      43.562 -18.354   3.076  1.00  0.00    -0.041 A 
HETATM   32  C   UNL     1      43.873 -18.405   4.443  1.00  0.00     0.009 A 
HETATM   33  C   UNL     1      44.136 -19.625   5.072  1.00  0.00     0.001 A 
HETATM   34  C   UNL     1      44.068 -20.813   4.349  1.00  0.00     0.000 A 
HETATM   35  C   UNL     1      43.737 -20.783   2.997  1.00  0.00     0.001 A 
HETATM   36  C   UNL     1      43.484 -19.562   2.366  1.00  0.00     0.009 A 
ENDBRANCH  30  31
ENDBRANCH  27  30
ENDBRANCH   8  26
TORSDOF 8
ENDMDL
MODEL 4
REMARK VINA RESULT:      -8.4      2.544      6.404
REMARK  8 active torsions:
REMARK  status: ('A' for Active; 'I' for Inactive)
REMARK    1  A    between atoms: C_7  and  C_8 
REMARK    2  A    between atoms: C_10  and  O_11 
REMARK    3  A    between atoms: C_13  and  O_14 
REMARK    4  A    between atoms: O_14  and  C_15 
REMARK    5  A    between atoms: C_15  and  C_16 
REMARK       I    between atoms: C_16  and  N_17 
REMARK    6  A    between atoms: C_21  and  C_22 
REMARK       I    between atoms: C_22  and  N_23 
REMARK    7  A    between atoms: N_23  and  C_24 
REMARK    8  A    between atoms: C_24  and  C_25 
ROOT
HETATM    1  C   UNL     1      40.154 -16.136   1.241  1.00  0.00     0.069 C 
HETATM    2  C   UNL     1      40.414 -14.665   1.393  1.00  0.00     0.024 C 
HETATM    3  N   UNL     1      39.410 -13.842   0.932  1.00  0.00    -0.312 N 
HETATM    4  C   UNL     1      39.507 -12.491   0.782  1.00  0.00     0.321 C 
HETATM    5  O   UNL     1      38.587 -11.824   0.321  1.00  0.00    -0.247 OA
HETATM    6  N   UNL     1      40.685 -11.928   1.146  1.00  0.00    -0.330 N 
HETATM    7  C   UNL     1      41.721 -12.602   1.907  1.00  0.00     0.160 C 
HETATM    8  C   UNL     1      41.533 -14.094   1.878  1.00  0.00     0.059 C 
HETATM    9  H   UNL     1      38.551 -14.239   0.571  1.00  0.00     0.170 HD
HETATM   10  H   UNL     1      40.727 -10.923   1.052  1.00  0.00     0.165 HD
ENDROOT
BRANCH   7  11
HETATM   11  C   UNL     1      41.755 -12.033   3.320  1.00  0.00    -0.028 A 
HETATM   12  C   UNL     1      40.693 -12.247   4.220  1.00  0.00     0.049 A 
HETATM   13  C   UNL     1      40.691 -11.692   5.510  1.00  0.00     0.102 A 
HETATM   14  C   UNL     1      41.800 -10.936   5.924  1.00  0.00     0.102 A 
HETATM   15  C   UNL     1      42.860 -10.725   5.031  1.00  0.00     0.040 A 
HETATM   16  C   UNL     1      42.844 -11.268   3.745  1.00  0.00     0.012 A 
BRANCH  13  17
HETATM   17  O   UNL     1      39.653 -11.864   6.384  1.00  0.00    -0.353 OA
HETATM   18  C   UNL     1      38.630 -10.873   6.403  1.00  0.00     0.210 C 
ENDBRANCH  13  17
BRANCH  14  19
HETATM   19  O   UNL     1      41.996 -10.306   7.126  1.00  0.00    -0.339 OA
BRANCH  19  20
HETATM   20  C   UNL     1      43.301  -9.820   7.429  1.00  0.00     0.278 C 
BRANCH  20  21
HETATM   21  C   UNL     1      43.976 -10.742   8.443  1.00  0.00     0.239 C 
HETATM   22  N   UNL     1      43.479 -10.690   9.715  1.00  0.00    -0.368 N 
HETATM   23  H   UNL     1      42.867  -9.928   9.981  1.00  0.00     0.159 HD
HETATM   24  H   UNL     1      43.938 -11.235  10.430  1.00  0.00     0.159 HD
HETATM   25  O   UNL     1      44.872 -11.528   8.151  1.00  0.00    -0.271 OA
ENDBRANCH  20  21
ENDBRANCH  19  20
ENDBRANCH  14  19
ENDBRANCH   7  11
BRANCH   8  26
HETATM   26  C   UNL     1      42.715 -14.870   2.331  1.00  0.00     0.252 C 
HETATM   27  N   UNL     1      42.524 -15.604   3.474  1.00  0.00    -0.353 N 
HETATM   28  H   UNL     1      41.711 -15.423   4.048  1.00  0.00     0.163 HD
HETATM   29  O   UNL     1      43.782 -14.785   1.736  1.00  0.00    -0.268 OA
BRANCH  27  30
HETATM   30  C   UNL     1      43.621 -16.342   4.061  1.00  0.00     0.161 C 
BRANCH  30  31
HETATM   31  C   UNL     1      43.659 -17.799   3.664  1.00  0.00    -0.041 A 
HETATM   32  C   UNL     1      44.131 -18.805   4.521  1.00  0.00     0.009 A 
HETATM   33  C   UNL     1      44.096 -20.148   4.136  1.00  0.00     0.001 A 
HETATM   34  C   UNL     1      43.565 -20.506   2.900  1.00  0.00     0.000 A 
HETATM   35  C   UNL     1      43.070 -19.524   2.047  1.00  0.00     0.001 A 
HETATM   36  C   UNL     1      43.114 -18.181   2.428  1.00  0.00     0.009 A 
ENDBRANCH  30  31
ENDBRANCH  27  30
ENDBRANCH   8  26
TORSDOF 8
ENDMDL
MODEL 5
REMARK VINA RESULT:      -8.4      2.891      6.782
REMARK  8 active torsions:
REMARK  status: ('A' for Active; 'I' for Inactive)
REMARK    1  A    between atoms: C_7  and  C_8 
REMARK    2  A    between atoms: C_10  and  O_11 
REMARK    3  A    between atoms: C_13  and  O_14 
REMARK    4  A    between atoms: O_14  and  C_15 
REMARK    5  A    between atoms: C_15  and  C_16 
REMARK       I    between atoms: C_16  and  N_17 
REMARK    6  A    between atoms: C_21  and  C_22 
REMARK       I    between atoms: C_22  and  N_23 
REMARK    7  A    between atoms: N_23  and  C_24 
REMARK    8  A    between atoms: C_24  and  C_25 
ROOT
HETATM    1  C   UNL     1      39.744 -16.102   1.991  1.00  0.00     0.069 C 
HETATM    2  C   UNL     1      40.258 -14.745   2.374  1.00  0.00     0.024 C 
HETATM    3  N   UNL     1      39.287 -13.806   2.644  1.00  0.00    -0.312 N 
HETATM    4  C   UNL     1      39.508 -12.472   2.814  1.00  0.00     0.321 C 
HETATM    5  O   UNL     1      38.589 -11.684   3.006  1.00  0.00    -0.247 OA
HETATM    6  N   UNL     1      40.797 -12.059   2.730  1.00  0.00    -0.330 N 
HETATM    7  C   UNL     1      41.948 -12.944   2.739  1.00  0.00     0.160 C 
HETATM    8  C   UNL     1      41.548 -14.359   2.423  1.00  0.00     0.059 C 
HETATM    9  H   UNL     1      38.308 -14.065   2.626  1.00  0.00     0.170 HD
HETATM   10  H   UNL     1      40.942 -11.072   2.885  1.00  0.00     0.165 HD
ENDROOT
BRANCH   7  11
HETATM   11  C   UNL     1      42.670 -12.814   4.075  1.00  0.00    -0.028 A 
HETATM   12  C   UNL     1      42.548 -13.801   5.071  1.00  0.00     0.049 A 
HETATM   13  C   UNL     1      43.172 -13.672   6.323  1.00  0.00     0.102 A 
HETATM   14  C   UNL     1      43.972 -12.543   6.568  1.00  0.00     0.102 A 
HETATM   15  C   UNL     1      44.097 -11.561   5.575  1.00  0.00     0.040 A 
HETATM   16  C   UNL     1      43.458 -11.691   4.341  1.00  0.00     0.012 A 
BRANCH  13  17
HETATM   17  O   UNL     1      43.039 -14.607   7.313  1.00  0.00    -0.353 OA
HETATM   18  C   UNL     1      42.128 -15.679   7.094  1.00  0.00     0.210 C 
ENDBRANCH  13  17
BRANCH  14  19
HETATM   19  O   UNL     1      44.657 -12.221   7.711  1.00  0.00    -0.339 OA
BRANCH  19  20
HETATM   20  C   UNL     1      45.104 -10.878   7.874  1.00  0.00     0.278 C 
BRANCH  20  21
HETATM   21  C   UNL     1      44.644 -10.337   9.227  1.00  0.00     0.239 C 
HETATM   22  N   UNL     1      43.338 -10.580   9.550  1.00  0.00    -0.368 N 
HETATM   23  H   UNL     1      42.696 -10.894   8.831  1.00  0.00     0.159 HD
HETATM   24  H   UNL     1      42.976 -10.183  10.405  1.00  0.00     0.159 HD
HETATM   25  O   UNL     1      45.390  -9.766  10.016  1.00  0.00    -0.271 OA
ENDBRANCH  20  21
ENDBRANCH  19  20
ENDBRANCH  14  19
ENDBRANCH   7  11
BRANCH   8  26
HETATM   26  C   UNL     1      42.681 -15.255   2.077  1.00  0.00     0.252 C 
HETATM   27  N   UNL     1      42.525 -16.562   2.458  1.00  0.00    -0.353 N 
HETATM   28  H   UNL     1      41.792 -16.803   3.113  1.00  0.00     0.163 HD
HETATM   29  O   UNL     1      43.690 -14.806   1.547  1.00  0.00    -0.268 OA
BRANCH  27  30
HETATM   30  C   UNL     1      43.590 -17.518   2.247  1.00  0.00     0.161 C 
BRANCH  30  31
HETATM   31  C   UNL     1      43.738 -18.525   3.362  1.00  0.00    -0.041 A 
HETATM   32  C   UNL     1      43.724 -18.162   4.717  1.00  0.00     0.009 A 
HETATM   33  C   UNL     1      43.808 -19.133   5.719  1.00  0.00     0.001 A 
HETATM   34  C   UNL     1      43.881 -20.481   5.381  1.00  0.00     0.000 A 
HETATM   35  C   UNL     1      43.873 -20.861   4.042  1.00  0.00     0.001 A 
HETATM   36  C   UNL     1      43.799 -19.891   3.040  1.00  0.00     0.009 A 
ENDBRANCH  30  31
ENDBRANCH  27  30
ENDBRANCH   8  26
TORSDOF 8
ENDMDL
MODEL 6
REMARK VINA RESULT:      -8.3      2.894      6.910
REMARK  8 active torsions:
REMARK  status: ('A' for Active; 'I' for Inactive)
REMARK    1  A    between atoms: C_7  and  C_8 
REMARK    2  A    between atoms: C_10  and  O_11 
REMARK    3  A    between atoms: C_13  and  O_14 
REMARK    4  A    between atoms: O_14  and  C_15 
REMARK    5  A    between atoms: C_15  and  C_16 
REMARK       I    between atoms: C_16  and  N_17 
REMARK    6  A    between atoms: C_21  and  C_22 
REMARK       I    between atoms: C_22  and  N_23 
REMARK    7  A    between atoms: N_23  and  C_24 
REMARK    8  A    between atoms: C_24  and  C_25 
ROOT
HETATM    1  C   UNL     1      40.748 -10.489   5.738  1.00  0.00     0.069 C 
HETATM    2  C   UNL     1      41.825 -11.180   4.953  1.00  0.00     0.024 C 
HETATM    3  N   UNL     1      43.095 -11.061   5.472  1.00  0.00    -0.312 N 
HETATM    4  C   UNL     1      44.243 -11.428   4.835  1.00  0.00     0.321 C 
HETATM    5  O   UNL     1      45.346 -11.250   5.339  1.00  0.00    -0.247 OA
HETATM    6  N   UNL     1      44.100 -11.973   3.603  1.00  0.00    -0.330 N 
HETATM    7  C   UNL     1      42.840 -12.426   3.043  1.00  0.00     0.160 C 
HETATM    8  C   UNL     1      41.672 -11.841   3.790  1.00  0.00     0.059 C 
HETATM    9  H   UNL     1      43.244 -10.579   6.350  1.00  0.00     0.170 HD
HETATM   10  H   UNL     1      44.961 -12.262   3.159  1.00  0.00     0.165 HD
ENDROOT
BRANCH   7  11
HETATM   11  C   UNL     1      42.823 -13.949   3.011  1.00  0.00    -0.028 A 
HETATM   12  C   UNL     1      42.512 -14.701   4.160  1.00  0.00     0.049 A 
HETATM   13  C   UNL     1      42.537 -16.105   4.156  1.00  0.00     0.102 A 
HETATM   14  C   UNL     1      42.843 -16.774   2.959  1.00  0.00     0.102 A 
HETATM   15  C   UNL     1      43.150 -16.027   1.813  1.00  0.00     0.040 A 
HETATM   16  C   UNL     1      43.138 -14.632   1.833  1.00  0.00     0.012 A 
BRANCH  13  17
HETATM   17  O   UNL     1      42.268 -16.851   5.272  1.00  0.00    -0.353 OA
HETATM   18  C   UNL     1      42.038 -16.156   6.493  1.00  0.00     0.210 C 
ENDBRANCH  13  17
BRANCH  14  19
HETATM   19  O   UNL     1      42.929 -18.125   2.740  1.00  0.00    -0.339 OA
BRANCH  19  20
HETATM   20  C   UNL     1      44.180 -18.768   2.967  1.00  0.00     0.278 C 
BRANCH  20  21
HETATM   21  C   UNL     1      44.034 -19.814   4.073  1.00  0.00     0.239 C 
HETATM   22  N   UNL     1      43.971 -19.325   5.347  1.00  0.00    -0.368 N 
HETATM   23  H   UNL     1      44.233 -18.362   5.526  1.00  0.00     0.159 HD
HETATM   24  H   UNL     1      43.940 -19.985   6.110  1.00  0.00     0.159 HD
HETATM   25  O   UNL     1      43.923 -21.017   3.855  1.00  0.00    -0.271 OA
ENDBRANCH  20  21
ENDBRANCH  19  20
ENDBRANCH  14  19
ENDBRANCH   7  11
BRANCH   8  26
HETATM   26  C   UNL     1      40.369 -11.970   3.090  1.00  0.00     0.252 C 
HETATM   27  N   UNL     1      40.327 -11.419   1.835  1.00  0.00    -0.353 N 
HETATM   28  H   UNL     1      41.066 -10.793   1.544  1.00  0.00     0.163 HD
HETATM   29  O   UNL     1      39.408 -12.481   3.651  1.00  0.00    -0.268 OA
BRANCH  27  30
HETATM   30  C   UNL     1      39.093 -11.410   1.080  1.00  0.00     0.161 C 
BRANCH  30  31
HETATM   31  C   UNL     1      39.010 -12.493   0.031  1.00  0.00    -0.041 A 
HETATM   32  C   UNL     1      38.187 -12.389  -1.101  1.00  0.00     0.009 A 
HETATM   33  C   UNL     1      38.183 -13.390  -2.077  1.00  0.00     0.001 A 
HETATM   34  C   UNL     1      39.020 -14.495  -1.948  1.00  0.00     0.000 A 
HETATM   35  C   UNL     1      39.860 -14.603  -0.844  1.00  0.00     0.001 A 
HETATM   36  C   UNL     1      39.857 -13.608   0.137  1.00  0.00     0.009 A 
ENDBRANCH  30  31
ENDBRANCH  27  30
ENDBRANCH   8  26
TORSDOF 8
ENDMDL
MODEL 7
REMARK VINA RESULT:      -8.3      3.192      7.306
REMARK  8 active torsions:
REMARK  status: ('A' for Active; 'I' for Inactive)
REMARK    1  A    between atoms: C_7  and  C_8 
REMARK    2  A    between atoms: C_10  and  O_11 
REMARK    3  A    between atoms: C_13  and  O_14 
REMARK    4  A    between atoms: O_14  and  C_15 
REMARK    5  A    between atoms: C_15  and  C_16 
REMARK       I    between atoms: C_16  and  N_17 
REMARK    6  A    between atoms: C_21  and  C_22 
REMARK       I    between atoms: C_22  and  N_23 
REMARK    7  A    between atoms: N_23  and  C_24 
REMARK    8  A    between atoms: C_24  and  C_25 
ROOT
HETATM    1  C   UNL     1      40.232 -15.440   2.878  1.00  0.00     0.069 C 
HETATM    2  C   UNL     1      41.142 -14.251   2.986  1.00  0.00     0.024 C 
HETATM    3  N   UNL     1      40.886 -13.235   2.091  1.00  0.00    -0.312 N 
HETATM    4  C   UNL     1      41.695 -12.160   1.869  1.00  0.00     0.321 C 
HETATM    5  O   UNL     1      41.427 -11.314   1.023  1.00  0.00    -0.247 OA
HETATM    6  N   UNL     1      42.824 -12.091   2.616  1.00  0.00    -0.330 N 
HETATM    7  C   UNL     1      43.092 -12.911   3.784  1.00  0.00     0.160 C 
HETATM    8  C   UNL     1      42.192 -14.116   3.819  1.00  0.00     0.059 C 
HETATM    9  H   UNL     1      40.099 -13.299   1.458  1.00  0.00     0.170 HD
HETATM   10  H   UNL     1      43.395 -11.274   2.455  1.00  0.00     0.165 HD
ENDROOT
BRANCH   7  11
HETATM   11  C   UNL     1      42.984 -12.051   5.036  1.00  0.00    -0.028 A 
HETATM   12  C   UNL     1      44.026 -12.001   5.982  1.00  0.00     0.049 A 
HETATM   13  C   UNL     1      43.921 -11.247   7.161  1.00  0.00     0.102 A 
HETATM   14  C   UNL     1      42.758 -10.491   7.381  1.00  0.00     0.102 A 
HETATM   15  C   UNL     1      41.720 -10.536   6.440  1.00  0.00     0.040 A 
HETATM   16  C   UNL     1      41.828 -11.303   5.278  1.00  0.00     0.012 A 
BRANCH  13  17
HETATM   17  O   UNL     1      44.912 -11.213   8.105  1.00  0.00    -0.353 OA
HETATM   18  C   UNL     1      46.175 -10.678   7.721  1.00  0.00     0.210 C 
ENDBRANCH  13  17
BRANCH  14  19
HETATM   19  O   UNL     1      42.452  -9.700   8.459  1.00  0.00    -0.339 OA
BRANCH  19  20
HETATM   20  C   UNL     1      43.208  -8.509   8.660  1.00  0.00     0.278 C 
BRANCH  20  21
HETATM   21  C   UNL     1      43.591  -8.379  10.134  1.00  0.00     0.239 C 
HETATM   22  N   UNL     1      44.501  -9.289  10.592  1.00  0.00    -0.368 N 
HETATM   23  H   UNL     1      44.711 -10.109  10.036  1.00  0.00     0.159 HD
HETATM   24  H   UNL     1      44.733  -9.278  11.575  1.00  0.00     0.159 HD
HETATM   25  O   UNL     1      43.166  -7.491  10.866  1.00  0.00    -0.271 OA
ENDBRANCH  20  21
ENDBRANCH  19  20
ENDBRANCH  14  19
ENDBRANCH   7  11
BRANCH   8  26
HETATM   26  C   UNL     1      42.618 -15.172   4.772  1.00  0.00     0.252 C 
HETATM   27  N   UNL     1      43.618 -15.993   4.320  1.00  0.00    -0.353 N 
HETATM   28  H   UNL     1      43.856 -15.988   3.337  1.00  0.00     0.163 HD
HETATM   29  O   UNL     1      42.048 -15.307   5.848  1.00  0.00    -0.268 OA
BRANCH  27  30
HETATM   30  C   UNL     1      44.069 -17.108   5.124  1.00  0.00     0.161 C 
BRANCH  30  31
HETATM   31  C   UNL     1      44.004 -18.440   4.414  1.00  0.00    -0.041 A 
HETATM   32  C   UNL     1      44.124 -19.664   5.089  1.00  0.00     0.009 A 
HETATM   33  C   UNL     1      44.001 -20.875   4.403  1.00  0.00     0.001 A 
HETATM   34  C   UNL     1      43.731 -20.879   3.037  1.00  0.00     0.000 A 
HETATM   35  C   UNL     1      43.585 -19.674   2.356  1.00  0.00     0.001 A 
HETATM   36  C   UNL     1      43.717 -18.464   3.040  1.00  0.00     0.009 A 
ENDBRANCH  30  31
ENDBRANCH  27  30
ENDBRANCH   8  26
TORSDOF 8
ENDMDL
MODEL 8
REMARK VINA RESULT:      -8.1      2.719      6.328
REMARK  8 active torsions:
REMARK  status: ('A' for Active; 'I' for Inactive)
REMARK    1  A    between atoms: C_7  and  C_8 
REMARK    2  A    between atoms: C_10  and  O_11 
REMARK    3  A    between atoms: C_13  and  O_14 
REMARK    4  A    between atoms: O_14  and  C_15 
REMARK    5  A    between atoms: C_15  and  C_16 
REMARK       I    between atoms: C_16  and  N_17 
REMARK    6  A    between atoms: C_21  and  C_22 
REMARK       I    between atoms: C_22  and  N_23 
REMARK    7  A    between atoms: N_23  and  C_24 
REMARK    8  A    between atoms: C_24  and  C_25 
ROOT
HETATM    1  C   UNL     1      40.044 -16.092   1.468  1.00  0.00     0.069 C 
HETATM    2  C   UNL     1      40.419 -14.641   1.542  1.00  0.00     0.024 C 
HETATM    3  N   UNL     1      39.452 -13.763   1.104  1.00  0.00    -0.312 N 
HETATM    4  C   UNL     1      39.638 -12.429   0.891  1.00  0.00     0.321 C 
HETATM    5  O   UNL     1      38.743 -11.714   0.456  1.00  0.00    -0.247 OA
HETATM    6  N   UNL     1      40.874 -11.943   1.160  1.00  0.00    -0.330 N 
HETATM    7  C   UNL     1      41.903 -12.664   1.889  1.00  0.00     0.160 C 
HETATM    8  C   UNL     1      41.605 -14.137   1.935  1.00  0.00     0.059 C 
HETATM    9  H   UNL     1      38.546 -14.107   0.811  1.00  0.00     0.170 HD
HETATM   10  H   UNL     1      40.984 -10.949   1.021  1.00  0.00     0.165 HD
ENDROOT
BRANCH   7  11
HETATM   11  C   UNL     1      42.064 -12.045   3.272  1.00  0.00    -0.028 A 
HETATM   12  C   UNL     1      43.333 -11.705   3.777  1.00  0.00     0.049 A 
HETATM   13  C   UNL     1      43.500 -11.175   5.067  1.00  0.00     0.102 A 
HETATM   14  C   UNL     1      42.362 -10.943   5.856  1.00  0.00     0.102 A 
HETATM   15  C   UNL     1      41.096 -11.279   5.354  1.00  0.00     0.040 A 
HETATM   16  C   UNL     1      40.944 -11.820   4.077  1.00  0.00     0.012 A 
BRANCH  13  17
HETATM   17  O   UNL     1      44.729 -10.868   5.585  1.00  0.00    -0.353 OA
HETATM   18  C   UNL     1      45.276 -11.748   6.562  1.00  0.00     0.210 C 
ENDBRANCH  13  17
BRANCH  14  19
HETATM   19  O   UNL     1      42.301 -10.445   7.133  1.00  0.00    -0.339 OA
BRANCH  19  20
HETATM   20  C   UNL     1      41.616  -9.214   7.346  1.00  0.00     0.278 C 
BRANCH  20  21
HETATM   21  C   UNL     1      40.838  -9.273   8.660  1.00  0.00     0.239 C 
HETATM   22  N   UNL     1      39.697 -10.025   8.640  1.00  0.00    -0.368 N 
HETATM   23  H   UNL     1      39.307 -10.318   7.752  1.00  0.00     0.159 HD
HETATM   24  H   UNL     1      39.119 -10.037   9.468  1.00  0.00     0.159 HD
HETATM   25  O   UNL     1      41.217  -8.734   9.695  1.00  0.00    -0.271 OA
ENDBRANCH  20  21
ENDBRANCH  19  20
ENDBRANCH  14  19
ENDBRANCH   7  11
BRANCH   8  26
HETATM   26  C   UNL     1      42.752 -14.983   2.352  1.00  0.00     0.252 C 
HETATM   27  N   UNL     1      42.569 -15.673   3.523  1.00  0.00    -0.353 N 
HETATM   28  H   UNL     1      41.800 -15.422   4.130  1.00  0.00     0.163 HD
HETATM   29  O   UNL     1      43.791 -14.986   1.704  1.00  0.00    -0.268 OA
BRANCH  27  30
HETATM   30  C   UNL     1      43.641 -16.471   4.076  1.00  0.00     0.161 C 
BRANCH  30  31
HETATM   31  C   UNL     1      43.586 -17.927   3.681  1.00  0.00    -0.041 A 
HETATM   32  C   UNL     1      43.143 -18.353   2.420  1.00  0.00     0.009 A 
HETATM   33  C   UNL     1      43.161 -19.707   2.074  1.00  0.00     0.001 A 
HETATM   34  C   UNL     1      43.646 -20.652   2.975  1.00  0.00     0.000 A 
HETATM   35  C   UNL     1      44.111 -20.245   4.222  1.00  0.00     0.001 A 
HETATM   36  C   UNL     1      44.084 -18.892   4.572  1.00  0.00     0.009 A 
ENDBRANCH  30  31
ENDBRANCH  27  30
ENDBRANCH   8  26
TORSDOF 8
ENDMDL
MODEL 9
REMARK VINA RESULT:      -8.0      3.087      8.093
REMARK  8 active torsions:
REMARK  status: ('A' for Active; 'I' for Inactive)
REMARK    1  A    between atoms: C_7  and  C_8 
REMARK    2  A    between atoms: C_10  and  O_11 
REMARK    3  A    between atoms: C_13  and  O_14 
REMARK    4  A    between atoms: O_14  and  C_15 
REMARK    5  A    between atoms: C_15  and  C_16 
REMARK       I    between atoms: C_16  and  N_17 
REMARK    6  A    between atoms: C_21  and  C_22 
REMARK       I    between atoms: C_22  and  N_23 
REMARK    7  A    between atoms: N_23  and  C_24 
REMARK    8  A    between atoms: C_24  and  C_25 
ROOT
HETATM    1  C   UNL     1      43.478 -15.691   1.528  1.00  0.00     0.069 C 
HETATM    2  C   UNL     1      43.008 -15.535   2.945  1.00  0.00     0.024 C 
HETATM    3  N   UNL     1      43.445 -16.508   3.817  1.00  0.00    -0.312 N 
HETATM    4  C   UNL     1      42.990 -16.685   5.090  1.00  0.00     0.321 C 
HETATM    5  O   UNL     1      43.392 -17.603   5.797  1.00  0.00    -0.247 OA
HETATM    6  N   UNL     1      42.050 -15.809   5.521  1.00  0.00    -0.330 N 
HETATM    7  C   UNL     1      41.700 -14.575   4.842  1.00  0.00     0.160 C 
HETATM    8  C   UNL     1      42.175 -14.587   3.415  1.00  0.00     0.059 C 
HETATM    9  H   UNL     1      44.080 -17.230   3.499  1.00  0.00     0.170 HD
HETATM   10  H   UNL     1      41.746 -15.942   6.475  1.00  0.00     0.165 HD
ENDROOT
BRANCH   7  11
HETATM   11  C   UNL     1      42.238 -13.393   5.639  1.00  0.00    -0.028 A 
HETATM   12  C   UNL     1      41.506 -12.197   5.758  1.00  0.00     0.049 A 
HETATM   13  C   UNL     1      42.010 -11.086   6.453  1.00  0.00     0.102 A 
HETATM   14  C   UNL     1      43.264 -11.189   7.078  1.00  0.00     0.102 A 
HETATM   15  C   UNL     1      43.994 -12.380   6.963  1.00  0.00     0.040 A 
HETATM   16  C   UNL     1      43.490 -13.473   6.256  1.00  0.00     0.012 A 
BRANCH  13  17
HETATM   17  O   UNL     1      41.325  -9.905   6.551  1.00  0.00    -0.353 OA
HETATM   18  C   UNL     1      41.495  -8.950   5.510  1.00  0.00     0.210 C 
ENDBRANCH  13  17
BRANCH  14  19
HETATM   19  O   UNL     1      43.937 -10.231   7.792  1.00  0.00    -0.339 OA
BRANCH  19  20
HETATM   20  C   UNL     1      45.209 -10.566   8.339  1.00  0.00     0.278 C 
BRANCH  20  21
HETATM   21  C   UNL     1      46.209  -9.446   8.054  1.00  0.00     0.239 C 
HETATM   22  N   UNL     1      47.448  -9.849   7.642  1.00  0.00    -0.368 N 
HETATM   23  H   UNL     1      47.719 -10.820   7.747  1.00  0.00     0.159 HD
HETATM   24  H   UNL     1      48.158  -9.144   7.505  1.00  0.00     0.159 HD
HETATM   25  O   UNL     1      45.929  -8.254   8.130  1.00  0.00    -0.271 OA
ENDBRANCH  20  21
ENDBRANCH  19  20
ENDBRANCH  14  19
ENDBRANCH   7  11
BRANCH   8  26
HETATM   26  C   UNL     1      41.574 -13.533   2.559  1.00  0.00     0.252 C 
HETATM   27  N   UNL     1      40.310 -13.806   2.103  1.00  0.00    -0.353 N 
HETATM   28  H   UNL     1      39.950 -14.748   2.178  1.00  0.00     0.163 HD
HETATM   29  O   UNL     1      42.217 -12.536   2.254  1.00  0.00    -0.268 OA
BRANCH  27  30
HETATM   30  C   UNL     1      39.646 -12.894   1.198  1.00  0.00     0.161 C 
BRANCH  30  31
HETATM   31  C   UNL     1      39.995 -13.110  -0.255  1.00  0.00    -0.041 A 
HETATM   32  C   UNL     1      39.529 -14.211  -0.990  1.00  0.00     0.009 A 
HETATM   33  C   UNL     1      39.830 -14.343  -2.349  1.00  0.00     0.001 A 
HETATM   34  C   UNL     1      40.578 -13.365  -2.997  1.00  0.00     0.000 A 
HETATM   35  C   UNL     1      41.028 -12.254  -2.289  1.00  0.00     0.001 A 
HETATM   36  C   UNL     1      40.736 -12.126  -0.929  1.00  0.00     0.009 A 
ENDBRANCH  30  31
ENDBRANCH  27  30
ENDBRANCH   8  26
TORSDOF 8
ENDMDL
MODEL 10
REMARK VINA RESULT:      -7.9      2.573      5.806
REMARK  8 active torsions:
REMARK  status: ('A' for Active; 'I' for Inactive)
REMARK    1  A    between atoms: C_7  and  C_8 
REMARK    2  A    between atoms: C_10  and  O_11 
REMARK    3  A    between atoms: C_13  and  O_14 
REMARK    4  A    between atoms: O_14  and  C_15 
REMARK    5  A    between atoms: C_15  and  C_16 
REMARK       I    between atoms: C_16  and  N_17 
REMARK    6  A    between atoms: C_21  and  C_22 
REMARK       I    between atoms: C_22  and  N_23 
REMARK    7  A    between atoms: N_23  and  C_24 
REMARK    8  A    between atoms: C_24  and  C_25 
ROOT
HETATM    1  C   UNL     1      39.678 -16.420   1.672  1.00  0.00     0.069 C 
HETATM    2  C   UNL     1      40.300 -15.089   1.364  1.00  0.00     0.024 C 
HETATM    3  N   UNL     1      39.836 -14.477   0.220  1.00  0.00    -0.312 N 
HETATM    4  C   UNL     1      40.388 -13.375  -0.362  1.00  0.00     0.321 C 
HETATM    5  O   UNL     1      39.950 -12.909  -1.407  1.00  0.00    -0.247 OA
HETATM    6  N   UNL     1      41.464 -12.839   0.263  1.00  0.00    -0.330 N 
HETATM    7  C   UNL     1      41.893 -13.183   1.607  1.00  0.00     0.160 C 
HETATM    8  C   UNL     1      41.283 -14.483   2.056  1.00  0.00     0.059 C 
HETATM    9  H   UNL     1      39.090 -14.901  -0.318  1.00  0.00     0.170 HD
HETATM   10  H   UNL     1      41.842 -12.008  -0.169  1.00  0.00     0.165 HD
ENDROOT
BRANCH   7  11
HETATM   11  C   UNL     1      41.582 -12.024   2.545  1.00  0.00    -0.028 A 
HETATM   12  C   UNL     1      40.273 -11.522   2.679  1.00  0.00     0.049 A 
HETATM   13  C   UNL     1      39.980 -10.426   3.506  1.00  0.00     0.102 A 
HETATM   14  C   UNL     1      41.019  -9.841   4.249  1.00  0.00     0.102 A 
HETATM   15  C   UNL     1      42.322 -10.341   4.120  1.00  0.00     0.040 A 
HETATM   16  C   UNL     1      42.605 -11.421   3.283  1.00  0.00     0.012 A 
BRANCH  13  17
HETATM   17  O   UNL     1      38.719  -9.907   3.622  1.00  0.00    -0.353 OA
HETATM   18  C   UNL     1      38.026  -9.573   2.424  1.00  0.00     0.210 C 
ENDBRANCH  13  17
BRANCH  14  19
HETATM   19  O   UNL     1      40.952  -8.769   5.102  1.00  0.00    -0.339 OA
BRANCH  19  20
HETATM   20  C   UNL     1      41.020  -9.016   6.504  1.00  0.00     0.278 C 
BRANCH  20  21
HETATM   21  C   UNL     1      39.648  -9.443   7.024  1.00  0.00     0.239 C 
HETATM   22  N   UNL     1      39.646 -10.494   7.897  1.00  0.00    -0.368 N 
HETATM   23  H   UNL     1      40.477 -11.066   7.993  1.00  0.00     0.159 HD
HETATM   24  H   UNL     1      38.755 -10.849   8.214  1.00  0.00     0.159 HD
HETATM   25  O   UNL     1      38.605  -8.864   6.735  1.00  0.00    -0.271 OA
ENDBRANCH  20  21
ENDBRANCH  19  20
ENDBRANCH  14  19
ENDBRANCH   7  11
BRANCH   8  26
HETATM   26  C   UNL     1      41.921 -15.077   3.258  1.00  0.00     0.252 C 
HETATM   27  N   UNL     1      42.986 -15.902   3.002  1.00  0.00    -0.353 N 
HETATM   28  H   UNL     1      43.145 -16.227   2.057  1.00  0.00     0.163 HD
HETATM   29  O   UNL     1      41.459 -14.872   4.374  1.00  0.00    -0.268 OA
BRANCH  27  30
HETATM   30  C   UNL     1      43.645 -16.603   4.083  1.00  0.00     0.161 C 
BRANCH  30  31
HETATM   31  C   UNL     1      43.760 -18.092   3.866  1.00  0.00    -0.041 A 
HETATM   32  C   UNL     1      44.048 -18.989   4.906  1.00  0.00     0.009 A 
HETATM   33  C   UNL     1      44.089 -20.366   4.672  1.00  0.00     0.001 A 
HETATM   34  C   UNL     1      43.819 -20.868   3.403  1.00  0.00     0.000 A 
HETATM   35  C   UNL     1      43.508 -19.995   2.364  1.00  0.00     0.001 A 
HETATM   36  C   UNL     1      43.476 -18.617   2.595  1.00  0.00     0.009 A 
ENDBRANCH  30  31
ENDBRANCH  27  30
ENDBRANCH   8  26
TORSDOF 8
ENDMDL
