MODEL 1
REMARK VINA RESULT:      -8.3      0.000      0.000
REMARK  8 active torsions:
REMARK  status: ('A' for Active; 'I' for Inactive)
REMARK    1  A    between atoms: C_2  and  C_3 
REMARK    2  A    between atoms: C_3  and  N_4 
REMARK    3  A    between atoms: C_3  and  C_19 
REMARK       I    between atoms: C_19  and  N_20 
REMARK    4  A    between atoms: N_20  and  C_21 
REMARK    5  A    between atoms: C_21  and  C_22 
REMARK    6  A    between atoms: C_22  and  C_23 
REMARK    7  A    between atoms: C_23  and  O_24 
REMARK    8  A    between atoms: O_24  and  C_25 
ROOT
HETATM    1  N   UNL     1      42.971 -14.550   4.082  1.00  0.00    -0.220 N 
HETATM    2  N   UNL     1      42.910 -14.478   5.483  1.00  0.00    -0.172 NA
HETATM    3  C   UNL     1      43.074 -15.562   6.190  1.00  0.00     0.069 A 
HETATM    4  C   UNL     1      43.026 -15.450   7.691  1.00  0.00     0.074 C 
HETATM    5  C   UNL     1      43.297 -16.825   5.542  1.00  0.00     0.048 A 
HETATM    6  C   UNL     1      43.322 -16.945   4.176  1.00  0.00     0.064 A 
HETATM    7  C   UNL     1      43.125 -15.756   3.358  1.00  0.00     0.277 A 
HETATM    8  O   UNL     1      43.094 -15.814   2.132  1.00  0.00    -0.266 OA
HETATM    9  S   UNL     1      43.548 -18.289   6.343  1.00  0.00    -0.086 SA
HETATM   10  C   UNL     1      43.689 -19.155   4.860  1.00  0.00     0.017 A 
HETATM   11  C   UNL     1      43.543 -18.306   3.756  1.00  0.00    -0.002 A 
HETATM   12  C   UNL     1      43.920 -20.537   4.709  1.00  0.00     0.020 A 
HETATM   13  C   UNL     1      44.002 -21.073   3.424  1.00  0.00     0.001 A 
HETATM   14  C   UNL     1      43.858 -20.258   2.311  1.00  0.00     0.001 A 
HETATM   15  C   UNL     1      43.632 -18.888   2.465  1.00  0.00     0.014 A 
ENDROOT
BRANCH   1  16
HETATM   16  C   UNL     1      42.721 -13.311   3.309  1.00  0.00     0.205 C 
BRANCH  16  17
HETATM   17  C   UNL     1      41.269 -13.228   2.801  1.00  0.00     0.032 C 
HETATM   18  C   UNL     1      41.107 -12.628   1.412  1.00  0.00     0.007 C 
ENDBRANCH  16  17
BRANCH  16  19
HETATM   19  C   UNL     1      43.159 -11.973   3.946  1.00  0.00     0.242 C 
HETATM   20  N   UNL     1      42.506 -11.619   5.099  1.00  0.00    -0.359 N 
HETATM   21  H   UNL     1      41.821 -12.288   5.446  1.00  0.00     0.162 HD
HETATM   22  O   UNL     1      43.955 -11.223   3.382  1.00  0.00    -0.271 OA
BRANCH  20  23
HETATM   23  C   UNL     1      42.741 -10.381   5.813  1.00  0.00     0.125 C 
BRANCH  23  24
HETATM   24  C   UNL     1      43.165 -10.626   7.259  1.00  0.00     0.046 C 
BRANCH  24  25
HETATM   25  C   UNL     1      44.301 -11.640   7.354  1.00  0.00     0.169 C 
BRANCH  25  26
HETATM   26  O   UNL     1      45.169 -11.278   8.423  1.00  0.00    -0.387 OA
BRANCH  26  27
HETATM   27  C   UNL     1      45.158  -9.884   8.741  1.00  0.00     0.113 C 
HETATM   28  C   UNL     1      45.254  -9.662  10.247  1.00  0.00     0.039 C 
HETATM   29  C   UNL     1      46.365  -9.267   8.040  1.00  0.00     0.039 C 
ENDBRANCH  26  27
ENDBRANCH  25  26
ENDBRANCH  24  25
ENDBRANCH  23  24
ENDBRANCH  20  23
ENDBRANCH  16  19
ENDBRANCH   1  16
TORSDOF 8
ENDMDL
MODEL 2
REMARK VINA RESULT:      -7.8      3.179      6.679
REMARK  8 active torsions:
REMARK  status: ('A' for Active; 'I' for Inactive)
REMARK    1  A    between atoms: C_2  and  C_3 
REMARK    2  A    between atoms: C_3  and  N_4 
REMARK    3  A    between atoms: C_3  and  C_19 
REMARK       I    between atoms: C_19  and  N_20 
REMARK    4  A    between atoms: N_20  and  C_21 
REMARK    5  A    between atoms: C_21  and  C_22 
REMARK    6  A    between atoms: C_22  and  C_23 
REMARK    7  A    between atoms: C_23  and  O_24 
REMARK    8  A    between atoms: O_24  and  C_25 
ROOT
HETATM    1  N   UNL     1      41.155 -13.948   2.803  1.00  0.00    -0.220 N 
HETATM    2  N   UNL     1      41.573 -13.386   4.020  1.00  0.00    -0.172 NA
HETATM    3  C   UNL     1      42.344 -14.075   4.815  1.00  0.00     0.069 A 
HETATM    4  C   UNL     1      42.795 -13.437   6.102  1.00  0.00     0.074 C 
HETATM    5  C   UNL     1      42.748 -15.407   4.460  1.00  0.00     0.048 A 
HETATM    6  C   UNL     1      42.327 -16.009   3.302  1.00  0.00     0.064 A 
HETATM    7  C   UNL     1      41.452 -15.272   2.400  1.00  0.00     0.277 A 
HETATM    8  O   UNL     1      41.011 -15.778   1.372  1.00  0.00    -0.266 OA
HETATM    9  S   UNL     1      43.760 -16.388   5.389  1.00  0.00    -0.086 SA
HETATM   10  C   UNL     1      43.659 -17.683   4.257  1.00  0.00     0.017 A 
HETATM   11  C   UNL     1      42.845 -17.348   3.167  1.00  0.00    -0.002 A 
HETATM   12  C   UNL     1      44.288 -18.940   4.354  1.00  0.00     0.020 A 
HETATM   13  C   UNL     1      44.091 -19.877   3.339  1.00  0.00     0.001 A 
HETATM   14  C   UNL     1      43.287 -19.575   2.250  1.00  0.00     0.001 A 
HETATM   15  C   UNL     1      42.668 -18.326   2.156  1.00  0.00     0.014 A 
ENDROOT
BRANCH   1  16
HETATM   16  C   UNL     1      40.232 -13.162   1.951  1.00  0.00     0.205 C 
BRANCH  16  17
HETATM   17  C   UNL     1      39.199 -12.381   2.785  1.00  0.00     0.032 C 
HETATM   18  C   UNL     1      38.164 -11.615   1.973  1.00  0.00     0.007 C 
ENDBRANCH  16  17
BRANCH  16  19
HETATM   19  C   UNL     1      40.861 -12.258   0.866  1.00  0.00     0.242 C 
HETATM   20  N   UNL     1      40.658 -12.654  -0.432  1.00  0.00    -0.359 N 
HETATM   21  H   UNL     1      40.082 -13.484  -0.559  1.00  0.00     0.162 HD
HETATM   22  O   UNL     1      41.595 -11.316   1.162  1.00  0.00    -0.271 OA
BRANCH  20  23
HETATM   23  C   UNL     1      41.208 -11.966  -1.580  1.00  0.00     0.125 C 
BRANCH  23  24
HETATM   24  C   UNL     1      40.222 -10.965  -2.176  1.00  0.00     0.046 C 
BRANCH  24  25
HETATM   25  C   UNL     1      39.235 -11.638  -3.126  1.00  0.00     0.169 C 
BRANCH  25  26
HETATM   26  O   UNL     1      39.587 -13.009  -3.278  1.00  0.00    -0.387 OA
BRANCH  26  27
HETATM   27  C   UNL     1      38.472 -13.905  -3.267  1.00  0.00     0.113 C 
HETATM   28  C   UNL     1      38.824 -15.211  -2.563  1.00  0.00     0.039 C 
HETATM   29  C   UNL     1      37.346 -13.193  -2.525  1.00  0.00     0.039 C 
ENDBRANCH  26  27
ENDBRANCH  25  26
ENDBRANCH  24  25
ENDBRANCH  23  24
ENDBRANCH  20  23
ENDBRANCH  16  19
ENDBRANCH   1  16
TORSDOF 8
ENDMDL
MODEL 3
REMARK VINA RESULT:      -7.4      2.254      3.512
REMARK  8 active torsions:
REMARK  status: ('A' for Active; 'I' for Inactive)
REMARK    1  A    between atoms: C_2  and  C_3 
REMARK    2  A    between atoms: C_3  and  N_4 
REMARK    3  A    between atoms: C_3  and  C_19 
REMARK       I    between atoms: C_19  and  N_20 
REMARK    4  A    between atoms: N_20  and  C_21 
REMARK    5  A    between atoms: C_21  and  C_22 
REMARK    6  A    between atoms: C_22  and  C_23 
REMARK    7  A    between atoms: C_23  and  O_24 
REMARK    8  A    between atoms: O_24  and  C_25 
ROOT
HETATM    1  N   UNL     1      42.712 -13.441   4.999  1.00  0.00    -0.220 N 
HETATM    2  N   UNL     1      42.340 -13.001   3.718  1.00  0.00    -0.172 NA
HETATM    3  C   UNL     1      42.321 -13.849   2.728  1.00  0.00     0.069 A 
HETATM    4  C   UNL     1      41.896 -13.353   1.371  1.00  0.00     0.074 C 
HETATM    5  C   UNL     1      42.695 -15.221   2.938  1.00  0.00     0.048 A 
HETATM    6  C   UNL     1      43.105 -15.681   4.163  1.00  0.00     0.064 A 
HETATM    7  C   UNL     1      43.153 -14.755   5.287  1.00  0.00     0.277 A 
HETATM    8  O   UNL     1      43.554 -15.104   6.394  1.00  0.00    -0.266 OA
HETATM    9  S   UNL     1      42.687 -16.417   1.747  1.00  0.00    -0.086 SA
HETATM   10  C   UNL     1      43.255 -17.614   2.848  1.00  0.00     0.017 A 
HETATM   11  C   UNL     1      43.445 -17.082   4.130  1.00  0.00    -0.002 A 
HETATM   12  C   UNL     1      43.514 -18.969   2.561  1.00  0.00     0.020 A 
HETATM   13  C   UNL     1      43.977 -19.801   3.581  1.00  0.00     0.001 A 
HETATM   14  C   UNL     1      44.178 -19.302   4.860  1.00  0.00     0.001 A 
HETATM   15  C   UNL     1      43.917 -17.958   5.141  1.00  0.00     0.014 A 
ENDROOT
BRANCH   1  16
HETATM   16  C   UNL     1      42.781 -12.439   6.088  1.00  0.00     0.205 C 
BRANCH  16  17
HETATM   17  C   UNL     1      43.988 -11.496   5.932  1.00  0.00     0.032 C 
HETATM   18  C   UNL     1      45.165 -11.801   6.847  1.00  0.00     0.007 C 
ENDBRANCH  16  17
BRANCH  16  19
HETATM   19  C   UNL     1      41.495 -11.641   6.404  1.00  0.00     0.242 C 
HETATM   20  N   UNL     1      41.671 -10.487   7.125  1.00  0.00    -0.359 N 
HETATM   21  H   UNL     1      42.635 -10.246   7.351  1.00  0.00     0.162 HD
HETATM   22  O   UNL     1      40.381 -12.084   6.129  1.00  0.00    -0.271 OA
BRANCH  20  23
HETATM   23  C   UNL     1      40.586  -9.633   7.558  1.00  0.00     0.125 C 
BRANCH  23  24
HETATM   24  C   UNL     1      41.077  -8.480   8.430  1.00  0.00     0.046 C 
BRANCH  24  25
HETATM   25  C   UNL     1      42.512  -8.696   8.902  1.00  0.00     0.169 C 
BRANCH  25  26
HETATM   26  O   UNL     1      42.513  -9.584  10.015  1.00  0.00    -0.387 OA
BRANCH  26  27
HETATM   27  C   UNL     1      43.718 -10.340  10.160  1.00  0.00     0.113 C 
HETATM   28  C   UNL     1      44.945  -9.474   9.898  1.00  0.00     0.039 C 
HETATM   29  C   UNL     1      43.738 -10.861  11.594  1.00  0.00     0.039 C 
ENDBRANCH  26  27
ENDBRANCH  25  26
ENDBRANCH  24  25
ENDBRANCH  23  24
ENDBRANCH  20  23
ENDBRANCH  16  19
ENDBRANCH   1  16
TORSDOF 8
ENDMDL
MODEL 4
REMARK VINA RESULT:      -7.2      1.491      1.717
REMARK  8 active torsions:
REMARK  status: ('A' for Active; 'I' for Inactive)
REMARK    1  A    between atoms: C_2  and  C_3 
REMARK    2  A    between atoms: C_3  and  N_4 
REMARK    3  A    between atoms: C_3  and  C_19 
REMARK       I    between atoms: C_19  and  N_20 
REMARK    4  A    between atoms: N_20  and  C_21 
REMARK    5  A    between atoms: C_21  and  C_22 
REMARK    6  A    between atoms: C_22  and  C_23 
REMARK    7  A    between atoms: C_23  and  O_24 
REMARK    8  A    between atoms: O_24  and  C_25 
ROOT
HETATM    1  N   UNL     1      42.969 -14.463   3.893  1.00  0.00    -0.220 N 
HETATM    2  N   UNL     1      42.905 -14.315   5.287  1.00  0.00    -0.172 NA
HETATM    3  C   UNL     1      43.068 -15.358   6.053  1.00  0.00     0.069 A 
HETATM    4  C   UNL     1      43.016 -15.164   7.545  1.00  0.00     0.074 C 
HETATM    5  C   UNL     1      43.294 -16.655   5.476  1.00  0.00     0.048 A 
HETATM    6  C   UNL     1      43.321 -16.849   4.119  1.00  0.00     0.064 A 
HETATM    7  C   UNL     1      43.126 -15.707   3.236  1.00  0.00     0.277 A 
HETATM    8  O   UNL     1      43.098 -15.833   2.015  1.00  0.00    -0.266 OA
HETATM    9  S   UNL     1      43.543 -18.073   6.357  1.00  0.00    -0.086 SA
HETATM   10  C   UNL     1      43.688 -19.019   4.924  1.00  0.00     0.017 A 
HETATM   11  C   UNL     1      43.544 -18.232   3.774  1.00  0.00    -0.002 A 
HETATM   12  C   UNL     1      43.921 -20.407   4.849  1.00  0.00     0.020 A 
HETATM   13  C   UNL     1      44.007 -21.013   3.596  1.00  0.00     0.001 A 
HETATM   14  C   UNL     1      43.865 -20.260   2.439  1.00  0.00     0.001 A 
HETATM   15  C   UNL     1      43.637 -18.883   2.518  1.00  0.00     0.014 A 
ENDROOT
BRANCH   1  16
HETATM   16  C   UNL     1      42.721 -13.269   3.051  1.00  0.00     0.205 C 
BRANCH  16  17
HETATM   17  C   UNL     1      41.309 -13.279   2.435  1.00  0.00     0.032 C 
HETATM   18  C   UNL     1      41.255 -12.964   0.947  1.00  0.00     0.007 C 
ENDBRANCH  16  17
BRANCH  16  19
HETATM   19  C   UNL     1      43.045 -11.887   3.663  1.00  0.00     0.242 C 
HETATM   20  N   UNL     1      42.062 -11.335   4.445  1.00  0.00    -0.359 N 
HETATM   21  H   UNL     1      41.229 -11.904   4.580  1.00  0.00     0.162 HD
HETATM   22  O   UNL     1      44.070 -11.276   3.362  1.00  0.00    -0.271 OA
BRANCH  20  23
HETATM   23  C   UNL     1      42.160 -10.029   5.062  1.00  0.00     0.125 C 
BRANCH  23  24
HETATM   24  C   UNL     1      42.594 -10.117   6.523  1.00  0.00     0.046 C 
BRANCH  24  25
HETATM   25  C   UNL     1      41.504  -9.623   7.470  1.00  0.00     0.169 C 
BRANCH  25  26
HETATM   26  O   UNL     1      42.081  -9.316   8.735  1.00  0.00    -0.387 OA
BRANCH  26  27
HETATM   27  C   UNL     1      42.058  -7.926   9.068  1.00  0.00     0.113 C 
HETATM   28  C   UNL     1      40.811  -7.575   9.874  1.00  0.00     0.039 C 
HETATM   29  C   UNL     1      43.312  -7.652   9.891  1.00  0.00     0.039 C 
ENDBRANCH  26  27
ENDBRANCH  25  26
ENDBRANCH  24  25
ENDBRANCH  23  24
ENDBRANCH  20  23
ENDBRANCH  16  19
ENDBRANCH   1  16
TORSDOF 8
ENDMDL
MODEL 5
REMARK VINA RESULT:      -7.1      2.368      3.862
REMARK  8 active torsions:
REMARK  status: ('A' for Active; 'I' for Inactive)
REMARK    1  A    between atoms: C_2  and  C_3 
REMARK    2  A    between atoms: C_3  and  N_4 
REMARK    3  A    between atoms: C_3  and  C_19 
REMARK       I    between atoms: C_19  and  N_20 
REMARK    4  A    between atoms: N_20  and  C_21 
REMARK    5  A    between atoms: C_21  and  C_22 
REMARK    6  A    between atoms: C_22  and  C_23 
REMARK    7  A    between atoms: C_23  and  O_24 
REMARK    8  A    between atoms: O_24  and  C_25 
ROOT
HETATM    1  N   UNL     1      42.424 -14.480   3.793  1.00  0.00    -0.220 N 
HETATM    2  N   UNL     1      42.583 -14.339   5.181  1.00  0.00    -0.172 NA
HETATM    3  C   UNL     1      42.967 -15.364   5.891  1.00  0.00     0.069 A 
HETATM    4  C   UNL     1      43.151 -15.176   7.374  1.00  0.00     0.074 C 
HETATM    5  C   UNL     1      43.208 -16.634   5.264  1.00  0.00     0.048 A 
HETATM    6  C   UNL     1      43.023 -16.824   3.918  1.00  0.00     0.064 A 
HETATM    7  C   UNL     1      42.579 -15.704   3.099  1.00  0.00     0.277 A 
HETATM    8  O   UNL     1      42.357 -15.831   1.899  1.00  0.00    -0.266 OA
HETATM    9  S   UNL     1      43.730 -18.023   6.067  1.00  0.00    -0.086 SA
HETATM   10  C   UNL     1      43.716 -18.951   4.615  1.00  0.00     0.017 A 
HETATM   11  C   UNL     1      43.309 -18.180   3.519  1.00  0.00    -0.002 A 
HETATM   12  C   UNL     1      44.057 -20.312   4.480  1.00  0.00     0.020 A 
HETATM   13  C   UNL     1      43.984 -20.907   3.220  1.00  0.00     0.001 A 
HETATM   14  C   UNL     1      43.581 -20.169   2.116  1.00  0.00     0.001 A 
HETATM   15  C   UNL     1      43.246 -18.820   2.254  1.00  0.00     0.014 A 
ENDROOT
BRANCH   1  16
HETATM   16  C   UNL     1      41.930 -13.314   3.025  1.00  0.00     0.205 C 
BRANCH  16  17
HETATM   17  C   UNL     1      40.395 -13.312   2.898  1.00  0.00     0.032 C 
HETATM   18  C   UNL     1      39.869 -13.373   1.471  1.00  0.00     0.007 C 
ENDBRANCH  16  17
BRANCH  16  19
HETATM   19  C   UNL     1      42.450 -11.917   3.438  1.00  0.00     0.242 C 
HETATM   20  N   UNL     1      41.758 -11.298   4.448  1.00  0.00    -0.359 N 
HETATM   21  H   UNL     1      40.992 -11.832   4.855  1.00  0.00     0.162 HD
HETATM   22  O   UNL     1      43.348 -11.356   2.812  1.00  0.00    -0.271 OA
BRANCH  20  23
HETATM   23  C   UNL     1      42.061  -9.970   4.938  1.00  0.00     0.125 C 
BRANCH  23  24
HETATM   24  C   UNL     1      41.206  -8.901   4.263  1.00  0.00     0.046 C 
BRANCH  24  25
HETATM   25  C   UNL     1      39.715  -9.154   4.469  1.00  0.00     0.169 C 
BRANCH  25  26
HETATM   26  O   UNL     1      39.277 -10.157   3.559  1.00  0.00    -0.387 OA
BRANCH  26  27
HETATM   27  C   UNL     1      38.298  -9.707   2.618  1.00  0.00     0.113 C 
HETATM   28  C   UNL     1      37.820  -8.298   2.954  1.00  0.00     0.039 C 
HETATM   29  C   UNL     1      38.969  -9.722   1.248  1.00  0.00     0.039 C 
ENDBRANCH  26  27
ENDBRANCH  25  26
ENDBRANCH  24  25
ENDBRANCH  23  24
ENDBRANCH  20  23
ENDBRANCH  16  19
ENDBRANCH   1  16
TORSDOF 8
ENDMDL
MODEL 6
REMARK VINA RESULT:      -7.1      2.731      4.723
REMARK  8 active torsions:
REMARK  status: ('A' for Active; 'I' for Inactive)
REMARK    1  A    between atoms: C_2  and  C_3 
REMARK    2  A    between atoms: C_3  and  N_4 
REMARK    3  A    between atoms: C_3  and  C_19 
REMARK       I    between atoms: C_19  and  N_20 
REMARK    4  A    between atoms: N_20  and  C_21 
REMARK    5  A    between atoms: C_21  and  C_22 
REMARK    6  A    between atoms: C_22  and  C_23 
REMARK    7  A    between atoms: C_23  and  O_24 
REMARK    8  A    between atoms: O_24  and  C_25 
ROOT
HETATM    1  N   UNL     1      43.023 -11.798   5.760  1.00  0.00    -0.220 N 
HETATM    2  N   UNL     1      42.672 -11.040   4.632  1.00  0.00    -0.172 NA
HETATM    3  C   UNL     1      42.474 -11.641   3.491  1.00  0.00     0.069 A 
HETATM    4  C   UNL     1      42.077 -10.804   2.304  1.00  0.00     0.074 C 
HETATM    5  C   UNL     1      42.631 -13.064   3.382  1.00  0.00     0.048 A 
HETATM    6  C   UNL     1      43.014 -13.835   4.450  1.00  0.00     0.064 A 
HETATM    7  C   UNL     1      43.258 -13.193   5.734  1.00  0.00     0.277 A 
HETATM    8  O   UNL     1      43.645 -13.830   6.710  1.00  0.00    -0.266 OA
HETATM    9  S   UNL     1      42.380 -13.958   1.972  1.00  0.00    -0.086 SA
HETATM   10  C   UNL     1      42.794 -15.437   2.754  1.00  0.00     0.017 A 
HETATM   11  C   UNL     1      43.122 -15.230   4.100  1.00  0.00    -0.002 A 
HETATM   12  C   UNL     1      42.820 -16.720   2.172  1.00  0.00     0.020 A 
HETATM   13  C   UNL     1      43.186 -17.813   2.958  1.00  0.00     0.001 A 
HETATM   14  C   UNL     1      43.520 -17.639   4.294  1.00  0.00     0.001 A 
HETATM   15  C   UNL     1      43.490 -16.365   4.867  1.00  0.00     0.014 A 
ENDROOT
BRANCH   1  16
HETATM   16  C   UNL     1      43.297 -11.079   7.026  1.00  0.00     0.205 C 
BRANCH  16  17
HETATM   17  C   UNL     1      44.780 -10.683   7.157  1.00  0.00     0.032 C 
HETATM   18  C   UNL     1      45.273 -10.497   8.585  1.00  0.00     0.007 C 
ENDBRANCH  16  17
BRANCH  16  19
HETATM   19  C   UNL     1      42.376  -9.890   7.385  1.00  0.00     0.242 C 
HETATM   20  N   UNL     1      41.178 -10.218   7.967  1.00  0.00    -0.359 N 
HETATM   21  H   UNL     1      41.025 -11.210   8.143  1.00  0.00     0.162 HD
HETATM   22  O   UNL     1      42.656  -8.739   7.053  1.00  0.00    -0.271 OA
BRANCH  20  23
HETATM   23  C   UNL     1      40.164  -9.250   8.328  1.00  0.00     0.125 C 
BRANCH  23  24
HETATM   24  C   UNL     1      40.485  -8.549   9.646  1.00  0.00     0.046 C 
BRANCH  24  25
HETATM   25  C   UNL     1      40.721  -9.546  10.776  1.00  0.00     0.169 C 
BRANCH  25  26
HETATM   26  O   UNL     1      42.113  -9.829  10.872  1.00  0.00    -0.387 OA
BRANCH  26  27
HETATM   27  C   UNL     1      42.652  -9.680  12.189  1.00  0.00     0.113 C 
HETATM   28  C   UNL     1      43.462  -8.393  12.308  1.00  0.00     0.039 C 
HETATM   29  C   UNL     1      41.465  -9.646  13.146  1.00  0.00     0.039 C 
ENDBRANCH  26  27
ENDBRANCH  25  26
ENDBRANCH  24  25
ENDBRANCH  23  24
ENDBRANCH  20  23
ENDBRANCH  16  19
ENDBRANCH   1  16
TORSDOF 8
ENDMDL
MODEL 7
REMARK VINA RESULT:      -7.1      2.547      5.881
REMARK  8 active torsions:
REMARK  status: ('A' for Active; 'I' for Inactive)
REMARK    1  A    between atoms: C_2  and  C_3 
REMARK    2  A    between atoms: C_3  and  N_4 
REMARK    3  A    between atoms: C_3  and  C_19 
REMARK       I    between atoms: C_19  and  N_20 
REMARK    4  A    between atoms: N_20  and  C_21 
REMARK    5  A    between atoms: C_21  and  C_22 
REMARK    6  A    between atoms: C_22  and  C_23 
REMARK    7  A    between atoms: C_23  and  O_24 
REMARK    8  A    between atoms: O_24  and  C_25 
ROOT
HETATM    1  N   UNL     1      42.866 -14.375   4.475  1.00  0.00    -0.220 N 
HETATM    2  N   UNL     1      42.844 -14.418   5.878  1.00  0.00    -0.172 NA
HETATM    3  C   UNL     1      43.048 -15.552   6.489  1.00  0.00     0.069 A 
HETATM    4  C   UNL     1      43.041 -15.563   7.995  1.00  0.00     0.074 C 
HETATM    5  C   UNL     1      43.275 -16.754   5.735  1.00  0.00     0.048 A 
HETATM    6  C   UNL     1      43.262 -16.762   4.363  1.00  0.00     0.064 A 
HETATM    7  C   UNL     1      43.021 -15.515   3.650  1.00  0.00     0.277 A 
HETATM    8  O   UNL     1      42.956 -15.475   2.425  1.00  0.00    -0.266 OA
HETATM    9  S   UNL     1      43.575 -18.273   6.406  1.00  0.00    -0.086 SA
HETATM   10  C   UNL     1      43.689 -19.013   4.855  1.00  0.00     0.017 A 
HETATM   11  C   UNL     1      43.496 -18.080   3.827  1.00  0.00    -0.002 A 
HETATM   12  C   UNL     1      43.940 -20.373   4.585  1.00  0.00     0.020 A 
HETATM   13  C   UNL     1      43.995 -20.802   3.258  1.00  0.00     0.001 A 
HETATM   14  C   UNL     1      43.804 -19.902   2.220  1.00  0.00     0.001 A 
HETATM   15  C   UNL     1      43.558 -18.554   2.492  1.00  0.00     0.014 A 
ENDROOT
BRANCH   1  16
HETATM   16  C   UNL     1      42.572 -13.083   3.811  1.00  0.00     0.205 C 
BRANCH  16  17
HETATM   17  C   UNL     1      43.857 -12.320   3.436  1.00  0.00     0.032 C 
HETATM   18  C   UNL     1      44.447 -11.468   4.551  1.00  0.00     0.007 C 
ENDBRANCH  16  17
BRANCH  16  19
HETATM   19  C   UNL     1      41.576 -13.099   2.630  1.00  0.00     0.242 C 
HETATM   20  N   UNL     1      40.537 -13.989   2.737  1.00  0.00    -0.359 N 
HETATM   21  H   UNL     1      40.500 -14.527   3.600  1.00  0.00     0.162 HD
HETATM   22  O   UNL     1      41.779 -12.441   1.610  1.00  0.00    -0.271 OA
BRANCH  20  23
HETATM   23  C   UNL     1      39.533 -14.185   1.712  1.00  0.00     0.125 C 
BRANCH  23  24
HETATM   24  C   UNL     1      40.006 -15.144   0.623  1.00  0.00     0.046 C 
BRANCH  24  25
HETATM   25  C   UNL     1      39.783 -14.571  -0.773  1.00  0.00     0.169 C 
BRANCH  25  26
HETATM   26  O   UNL     1      39.021 -13.372  -0.675  1.00  0.00    -0.387 OA
BRANCH  26  27
HETATM   27  C   UNL     1      38.189 -13.112  -1.809  1.00  0.00     0.113 C 
HETATM   28  C   UNL     1      37.714 -11.662  -1.820  1.00  0.00     0.039 C 
HETATM   29  C   UNL     1      39.034 -13.398  -3.047  1.00  0.00     0.039 C 
ENDBRANCH  26  27
ENDBRANCH  25  26
ENDBRANCH  24  25
ENDBRANCH  23  24
ENDBRANCH  20  23
ENDBRANCH  16  19
ENDBRANCH   1  16
TORSDOF 8
ENDMDL
MODEL 8
REMARK VINA RESULT:      -7.0      3.933     10.103
REMARK  8 active torsions:
REMARK  status: ('A' for Active; 'I' for Inactive)
REMARK    1  A    between atoms: C_2  and  C_3 
REMARK    2  A    between atoms: C_3  and  N_4 
REMARK    3  A    between atoms: C_3  and  C_19 
REMARK       I    between atoms: C_19  and  N_20 
REMARK    4  A    between atoms: N_20  and  C_21 
REMARK    5  A    between atoms: C_21  and  C_22 
REMARK    6  A    between atoms: C_22  and  C_23 
REMARK    7  A    between atoms: C_23  and  O_24 
REMARK    8  A    between atoms: O_24  and  C_25 
ROOT
HETATM    1  N   UNL     1      43.865  -9.916   8.835  1.00  0.00    -0.220 N 
HETATM    2  N   UNL     1      43.889 -10.811   9.917  1.00  0.00    -0.172 NA
HETATM    3  C   UNL     1      43.568 -10.388  11.108  1.00  0.00     0.069 A 
HETATM    4  C   UNL     1      43.581 -11.376  12.244  1.00  0.00     0.074 C 
HETATM    5  C   UNL     1      43.208  -9.013  11.318  1.00  0.00     0.048 A 
HETATM    6  C   UNL     1      43.212  -8.098  10.297  1.00  0.00     0.064 A 
HETATM    7  C   UNL     1      43.583  -8.535   8.957  1.00  0.00     0.277 A 
HETATM    8  O   UNL     1      43.646  -7.748   8.017  1.00  0.00    -0.266 OA
HETATM    9  S   UNL     1      42.750  -8.351  12.802  1.00  0.00    -0.086 SA
HETATM   10  C   UNL     1      42.548  -6.783  12.118  1.00  0.00     0.017 A 
HETATM   11  C   UNL     1      42.835  -6.781  10.747  1.00  0.00    -0.002 A 
HETATM   12  C   UNL     1      42.149  -5.612  12.794  1.00  0.00     0.020 A 
HETATM   13  C   UNL     1      42.042  -4.420  12.079  1.00  0.00     0.001 A 
HETATM   14  C   UNL     1      42.323  -4.386  10.721  1.00  0.00     0.001 A 
HETATM   15  C   UNL     1      42.715  -5.550  10.053  1.00  0.00     0.014 A 
ENDROOT
BRANCH   1  16
HETATM   16  C   UNL     1      44.293 -10.415   7.507  1.00  0.00     0.205 C 
BRANCH  16  17
HETATM   17  C   UNL     1      45.786 -10.791   7.484  1.00  0.00     0.032 C 
HETATM   18  C   UNL     1      46.740  -9.654   7.822  1.00  0.00     0.007 C 
ENDBRANCH  16  17
BRANCH  16  19
HETATM   19  C   UNL     1      43.436 -11.522   6.852  1.00  0.00     0.242 C 
HETATM   20  N   UNL     1      43.582 -12.781   7.379  1.00  0.00    -0.359 N 
HETATM   21  H   UNL     1      44.212 -12.859   8.175  1.00  0.00     0.162 HD
HETATM   22  O   UNL     1      42.763 -11.302   5.846  1.00  0.00    -0.271 OA
BRANCH  20  23
HETATM   23  C   UNL     1      42.904 -13.953   6.869  1.00  0.00     0.125 C 
BRANCH  23  24
HETATM   24  C   UNL     1      43.885 -15.038   6.431  1.00  0.00     0.046 C 
BRANCH  24  25
HETATM   25  C   UNL     1      43.223 -16.412   6.375  1.00  0.00     0.169 C 
BRANCH  25  26
HETATM   26  O   UNL     1      42.629 -16.598   5.095  1.00  0.00    -0.387 OA
BRANCH  26  27
HETATM   27  C   UNL     1      43.568 -16.697   4.021  1.00  0.00     0.113 C 
HETATM   28  C   UNL     1      43.615 -18.115   3.462  1.00  0.00     0.039 C 
HETATM   29  C   UNL     1      43.105 -15.721   2.944  1.00  0.00     0.039 C 
ENDBRANCH  26  27
ENDBRANCH  25  26
ENDBRANCH  24  25
ENDBRANCH  23  24
ENDBRANCH  20  23
ENDBRANCH  16  19
ENDBRANCH   1  16
TORSDOF 8
ENDMDL
MODEL 9
REMARK VINA RESULT:      -6.9      2.683      5.197
REMARK  8 active torsions:
REMARK  status: ('A' for Active; 'I' for Inactive)
REMARK    1  A    between atoms: C_2  and  C_3 
REMARK    2  A    between atoms: C_3  and  N_4 
REMARK    3  A    between atoms: C_3  and  C_19 
REMARK       I    between atoms: C_19  and  N_20 
REMARK    4  A    between atoms: N_20  and  C_21 
REMARK    5  A    between atoms: C_21  and  C_22 
REMARK    6  A    between atoms: C_22  and  C_23 
REMARK    7  A    between atoms: C_23  and  O_24 
REMARK    8  A    between atoms: O_24  and  C_25 
ROOT
HETATM    1  N   UNL     1      42.874 -13.085   5.056  1.00  0.00    -0.220 N 
HETATM    2  N   UNL     1      42.345 -12.586   3.855  1.00  0.00    -0.172 NA
HETATM    3  C   UNL     1      42.170 -13.393   2.846  1.00  0.00     0.069 A 
HETATM    4  C   UNL     1      41.580 -12.834   1.578  1.00  0.00     0.074 C 
HETATM    5  C   UNL     1      42.531 -14.779   2.952  1.00  0.00     0.048 A 
HETATM    6  C   UNL     1      43.089 -15.297   4.093  1.00  0.00     0.064 A 
HETATM    7  C   UNL     1      43.314 -14.419   5.233  1.00  0.00     0.277 A 
HETATM    8  O   UNL     1      43.851 -14.821   6.261  1.00  0.00    -0.266 OA
HETATM    9  S   UNL     1      42.330 -15.926   1.730  1.00  0.00    -0.086 SA
HETATM   10  C   UNL     1      43.008 -17.179   2.699  1.00  0.00     0.017 A 
HETATM   11  C   UNL     1      43.384 -16.703   3.962  1.00  0.00    -0.002 A 
HETATM   12  C   UNL     1      43.190 -18.527   2.330  1.00  0.00     0.020 A 
HETATM   13  C   UNL     1      43.763 -19.409   3.246  1.00  0.00     0.001 A 
HETATM   14  C   UNL     1      44.148 -18.966   4.503  1.00  0.00     0.001 A 
HETATM   15  C   UNL     1      43.963 -17.629   4.866  1.00  0.00     0.014 A 
ENDROOT
BRANCH   1  16
HETATM   16  C   UNL     1      43.116 -12.130   6.163  1.00  0.00     0.205 C 
BRANCH  16  17
HETATM   17  C   UNL     1      44.545 -11.557   6.131  1.00  0.00     0.032 C 
HETATM   18  C   UNL     1      45.183 -11.345   7.496  1.00  0.00     0.007 C 
ENDBRANCH  16  17
BRANCH  16  19
HETATM   19  C   UNL     1      42.076 -11.005   6.372  1.00  0.00     0.242 C 
HETATM   20  N   UNL     1      40.776 -11.415   6.526  1.00  0.00    -0.359 N 
HETATM   21  H   UNL     1      40.624 -12.422   6.525  1.00  0.00     0.162 HD
HETATM   22  O   UNL     1      42.388  -9.818   6.283  1.00  0.00    -0.271 OA
BRANCH  20  23
HETATM   23  C   UNL     1      39.658 -10.510   6.684  1.00  0.00     0.125 C 
BRANCH  23  24
HETATM   24  C   UNL     1      38.611 -10.696   5.588  1.00  0.00     0.046 C 
BRANCH  24  25
HETATM   25  C   UNL     1      39.186 -10.419   4.202  1.00  0.00     0.169 C 
BRANCH  25  26
HETATM   26  O   UNL     1      38.233  -9.694   3.432  1.00  0.00    -0.387 OA
BRANCH  26  27
HETATM   27  C   UNL     1      38.216 -10.038   2.044  1.00  0.00     0.113 C 
HETATM   28  C   UNL     1      39.491  -9.572   1.348  1.00  0.00     0.039 C 
HETATM   29  C   UNL     1      38.102 -11.557   1.971  1.00  0.00     0.039 C 
ENDBRANCH  26  27
ENDBRANCH  25  26
ENDBRANCH  24  25
ENDBRANCH  23  24
ENDBRANCH  20  23
ENDBRANCH  16  19
ENDBRANCH   1  16
TORSDOF 8
ENDMDL
MODEL 10
REMARK VINA RESULT:      -6.8      1.832      2.355
REMARK  8 active torsions:
REMARK  status: ('A' for Active; 'I' for Inactive)
REMARK    1  A    between atoms: C_2  and  C_3 
REMARK    2  A    between atoms: C_3  and  N_4 
REMARK    3  A    between atoms: C_3  and  C_19 
REMARK       I    between atoms: C_19  and  N_20 
REMARK    4  A    between atoms: N_20  and  C_21 
REMARK    5  A    between atoms: C_21  and  C_22 
REMARK    6  A    between atoms: C_22  and  C_23 
REMARK    7  A    between atoms: C_23  and  O_24 
REMARK    8  A    between atoms: O_24  and  C_25 
ROOT
HETATM    1  N   UNL     1      41.758 -13.766   3.009  1.00  0.00    -0.220 N 
HETATM    2  N   UNL     1      40.959 -13.479   4.128  1.00  0.00    -0.172 NA
HETATM    3  C   UNL     1      40.950 -14.303   5.139  1.00  0.00     0.069 A 
HETATM    4  C   UNL     1      40.101 -13.957   6.333  1.00  0.00     0.074 C 
HETATM    5  C   UNL     1      41.736 -15.505   5.104  1.00  0.00     0.048 A 
HETATM    6  C   UNL     1      42.496 -15.843   4.014  1.00  0.00     0.064 A 
HETATM    7  C   UNL     1      42.515 -14.952   2.861  1.00  0.00     0.277 A 
HETATM    8  O   UNL     1      43.144 -15.228   1.843  1.00  0.00    -0.266 OA
HETATM    9  S   UNL     1      41.827 -16.634   6.355  1.00  0.00    -0.086 SA
HETATM   10  C   UNL     1      42.900 -17.642   5.459  1.00  0.00     0.017 A 
HETATM   11  C   UNL     1      43.182 -17.098   4.200  1.00  0.00    -0.002 A 
HETATM   12  C   UNL     1      43.458 -18.866   5.881  1.00  0.00     0.020 A 
HETATM   13  C   UNL     1      44.310 -19.555   5.017  1.00  0.00     0.001 A 
HETATM   14  C   UNL     1      44.605 -19.043   3.762  1.00  0.00     0.001 A 
HETATM   15  C   UNL     1      44.052 -17.827   3.350  1.00  0.00     0.014 A 
ENDROOT
BRANCH   1  16
HETATM   16  C   UNL     1      41.700 -12.840   1.854  1.00  0.00     0.205 C 
BRANCH  16  17
HETATM   17  C   UNL     1      40.441 -13.064   0.995  1.00  0.00     0.032 C 
HETATM   18  C   UNL     1      40.075 -14.523   0.760  1.00  0.00     0.007 C 
ENDBRANCH  16  17
BRANCH  16  19
HETATM   19  C   UNL     1      41.913 -11.335   2.136  1.00  0.00     0.242 C 
HETATM   20  N   UNL     1      41.678 -10.930   3.426  1.00  0.00    -0.359 N 
HETATM   21  H   UNL     1      41.421 -11.665   4.083  1.00  0.00     0.162 HD
HETATM   22  O   UNL     1      42.159 -10.541   1.229  1.00  0.00    -0.271 OA
BRANCH  20  23
HETATM   23  C   UNL     1      41.775  -9.556   3.871  1.00  0.00     0.125 C 
BRANCH  23  24
HETATM   24  C   UNL     1      41.656  -9.435   5.388  1.00  0.00     0.046 C 
BRANCH  24  25
HETATM   25  C   UNL     1      42.211 -10.665   6.100  1.00  0.00     0.169 C 
BRANCH  25  26
HETATM   26  O   UNL     1      43.606 -10.490   6.327  1.00  0.00    -0.387 OA
BRANCH  26  27
HETATM   27  C   UNL     1      44.177 -11.439   7.232  1.00  0.00     0.113 C 
HETATM   28  C   UNL     1      43.933 -12.867   6.755  1.00  0.00     0.039 C 
HETATM   29  C   UNL     1      45.674 -11.149   7.283  1.00  0.00     0.039 C 
ENDBRANCH  26  27
ENDBRANCH  25  26
ENDBRANCH  24  25
ENDBRANCH  23  24
ENDBRANCH  20  23
ENDBRANCH  16  19
ENDBRANCH   1  16
TORSDOF 8
ENDMDL
