MODEL 1
REMARK VINA RESULT:      -8.5      0.000      0.000
REMARK  7 active torsions:
REMARK  status: ('A' for Active; 'I' for Inactive)
REMARK    1  A    between atoms: C_2  and  O_3 
REMARK    2  A    between atoms: O_3  and  C_4 
REMARK    3  A    between atoms: C_4  and  C_5 
REMARK    4  A    between atoms: C_6  and  C_7 
REMARK    5  A    between atoms: C_18  and  S_19 
REMARK    6  A    between atoms: S_19  and  C_20 
REMARK    7  A    between atoms: C_20  and  C_21 
ROOT
HETATM    1  C   UNL     1      40.945 -11.874   4.944  1.00  0.00     0.070 C 
HETATM    2  C   UNL     1      41.784 -12.992   4.319  1.00  0.00     0.203 C 
HETATM    3  N   UNL     1      41.880 -14.142   5.223  1.00  0.00    -0.082 N 
HETATM    4  C   UNL     1      41.057 -14.336   6.296  1.00  0.00     0.726 A 
HETATM    5  N   UNL     1      40.119 -13.409   6.575  1.00  0.00    -0.192 N 
HETATM    6  N   UNL     1      42.835 -15.084   5.156  1.00  0.00    -0.128 NA
HETATM    7  C   UNL     1      42.496 -15.860   6.193  1.00  0.00     0.226 A 
HETATM    8  N   UNL     1      41.398 -15.441   6.909  1.00  0.00    -0.035 NA
HETATM    9  C   UNL     1      40.114 -12.140   5.988  1.00  0.00     0.037 C 
HETATM   10  C   UNL     1      39.140 -11.161   6.593  1.00  0.00     0.070 C 
HETATM   11  H   UNL     1      39.582 -13.520   7.432  1.00  0.00     0.184 HD
ENDROOT
BRANCH   7  12
HETATM   12  S   UNL     1      43.443 -17.263   6.588  1.00  0.00    -0.083 SA
BRANCH  12  13
HETATM   13  C   UNL     1      44.553 -17.332   5.157  1.00  0.00     0.123 C 
BRANCH  13  14
HETATM   14  C   UNL     1      44.165 -18.454   4.222  1.00  0.00    -0.027 A 
HETATM   15  C   UNL     1      43.623 -18.231   2.945  1.00  0.00     0.041 A 
HETATM   16 CL   UNL     1      43.386 -16.641   2.312  1.00  0.00    -0.084 Cl
HETATM   17  C   UNL     1      43.247 -19.308   2.134  1.00  0.00     0.024 A 
HETATM   18  C   UNL     1      43.399 -20.618   2.587  1.00  0.00     0.002 A 
HETATM   19  C   UNL     1      43.927 -20.856   3.852  1.00  0.00     0.001 A 
HETATM   20  C   UNL     1      44.305 -19.784   4.663  1.00  0.00     0.009 A 
ENDBRANCH  13  14
ENDBRANCH  12  13
ENDBRANCH   7  12
BRANCH   2  21
HETATM   21  C   UNL     1      41.229 -13.451   2.968  1.00  0.00    -0.028 A 
HETATM   22  C   UNL     1      41.754 -12.915   1.780  1.00  0.00     0.011 A 
HETATM   23  C   UNL     1      41.244 -13.296   0.536  1.00  0.00     0.024 A 
HETATM   24  C   UNL     1      40.202 -14.217   0.467  1.00  0.00     0.034 A 
HETATM   25 CL   UNL     1      39.564 -14.677  -1.063  1.00  0.00    -0.084 Cl
HETATM   26  C   UNL     1      39.669 -14.765   1.631  1.00  0.00     0.024 A 
HETATM   27  C   UNL     1      40.180 -14.385   2.875  1.00  0.00     0.011 A 
ENDBRANCH   2  21
BRANCH   1  28
HETATM   28  C   UNL     1      41.216 -10.552   4.319  1.00  0.00     0.293 C 
HETATM   29  O   UNL     1      42.334 -10.059   4.273  1.00  0.00    -0.259 OA
BRANCH  28  30
HETATM   30  O   UNL     1      40.081  -9.929   3.926  1.00  0.00    -0.318 OA
BRANCH  30  31
HETATM   31  C   UNL     1      39.754 -10.041   2.532  1.00  0.00     0.174 C 
HETATM   32  C   UNL     1      38.532 -10.921   2.334  1.00  0.00     0.034 C 
ENDBRANCH  30  31
ENDBRANCH  28  30
ENDBRANCH   1  28
TORSDOF 7
ENDMDL
MODEL 2
REMARK VINA RESULT:      -7.8      2.935      3.892
REMARK  7 active torsions:
REMARK  status: ('A' for Active; 'I' for Inactive)
REMARK    1  A    between atoms: C_2  and  O_3 
REMARK    2  A    between atoms: O_3  and  C_4 
REMARK    3  A    between atoms: C_4  and  C_5 
REMARK    4  A    between atoms: C_6  and  C_7 
REMARK    5  A    between atoms: C_18  and  S_19 
REMARK    6  A    between atoms: S_19  and  C_20 
REMARK    7  A    between atoms: C_20  and  C_21 
ROOT
HETATM    1  C   UNL     1      40.418 -10.685   0.734  1.00  0.00     0.070 C 
HETATM    2  C   UNL     1      40.841 -12.141   0.527  1.00  0.00     0.203 C 
HETATM    3  N   UNL     1      40.643 -12.923   1.749  1.00  0.00    -0.082 N 
HETATM    4  C   UNL     1      39.868 -12.514   2.797  1.00  0.00     0.726 A 
HETATM    5  N   UNL     1      39.271 -11.307   2.734  1.00  0.00    -0.192 N 
HETATM    6  N   UNL     1      41.266 -14.083   2.020  1.00  0.00    -0.128 NA
HETATM    7  C   UNL     1      40.774 -14.354   3.235  1.00  0.00     0.226 A 
HETATM    8  N   UNL     1      39.899 -13.421   3.740  1.00  0.00    -0.035 NA
HETATM    9  C   UNL     1      39.611 -10.346   1.777  1.00  0.00     0.037 C 
HETATM   10  C   UNL     1      39.015  -8.979   2.004  1.00  0.00     0.070 C 
HETATM   11  H   UNL     1      38.780 -10.975   3.561  1.00  0.00     0.184 HD
ENDROOT
BRANCH   7  12
HETATM   12  S   UNL     1      41.279 -15.783   4.089  1.00  0.00    -0.083 SA
BRANCH  12  13
HETATM   13  C   UNL     1      42.887 -16.087   3.310  1.00  0.00     0.123 C 
BRANCH  13  14
HETATM   14  C   UNL     1      43.233 -17.558   3.337  1.00  0.00    -0.027 A 
HETATM   15  C   UNL     1      43.886 -18.169   4.420  1.00  0.00     0.041 A 
HETATM   16 CL   UNL     1      44.323 -17.292   5.844  1.00  0.00    -0.084 Cl
HETATM   17  C   UNL     1      44.214 -19.529   4.378  1.00  0.00     0.024 A 
HETATM   18  C   UNL     1      43.904 -20.294   3.255  1.00  0.00     0.002 A 
HETATM   19  C   UNL     1      43.263 -19.703   2.170  1.00  0.00     0.001 A 
HETATM   20  C   UNL     1      42.932 -18.347   2.210  1.00  0.00     0.009 A 
ENDBRANCH  13  14
ENDBRANCH  12  13
ENDBRANCH   7  12
BRANCH   2  21
HETATM   21  C   UNL     1      40.091 -12.807  -0.631  1.00  0.00    -0.028 A 
HETATM   22  C   UNL     1      40.805 -13.544  -1.592  1.00  0.00     0.011 A 
HETATM   23  C   UNL     1      40.146 -14.135  -2.673  1.00  0.00     0.024 A 
HETATM   24  C   UNL     1      38.767 -13.995  -2.806  1.00  0.00     0.034 A 
HETATM   25 CL   UNL     1      37.958 -14.711  -4.143  1.00  0.00    -0.084 Cl
HETATM   26  C   UNL     1      38.040 -13.274  -1.863  1.00  0.00     0.024 A 
HETATM   27  C   UNL     1      38.697 -12.683  -0.780  1.00  0.00     0.011 A 
ENDBRANCH   2  21
BRANCH   1  28
HETATM   28  C   UNL     1      41.033  -9.772  -0.265  1.00  0.00     0.293 C 
HETATM   29  O   UNL     1      42.162  -9.319  -0.140  1.00  0.00    -0.259 OA
BRANCH  28  30
HETATM   30  O   UNL     1      40.166  -9.422  -1.243  1.00  0.00    -0.318 OA
BRANCH  30  31
HETATM   31  C   UNL     1      40.623  -9.623  -2.590  1.00  0.00     0.174 C 
HETATM   32  C   UNL     1      39.520 -10.213  -3.450  1.00  0.00     0.034 C 
ENDBRANCH  30  31
ENDBRANCH  28  30
ENDBRANCH   1  28
TORSDOF 7
ENDMDL
MODEL 3
REMARK VINA RESULT:      -7.8      3.548      6.747
REMARK  7 active torsions:
REMARK  status: ('A' for Active; 'I' for Inactive)
REMARK    1  A    between atoms: C_2  and  O_3 
REMARK    2  A    between atoms: O_3  and  C_4 
REMARK    3  A    between atoms: C_4  and  C_5 
REMARK    4  A    between atoms: C_6  and  C_7 
REMARK    5  A    between atoms: C_18  and  S_19 
REMARK    6  A    between atoms: S_19  and  C_20 
REMARK    7  A    between atoms: C_20  and  C_21 
ROOT
HETATM    1  C   UNL     1      41.266 -12.571   4.827  1.00  0.00     0.070 C 
HETATM    2  C   UNL     1      40.841 -13.101   3.456  1.00  0.00     0.203 C 
HETATM    3  N   UNL     1      41.187 -12.150   2.397  1.00  0.00    -0.082 N 
HETATM    4  C   UNL     1      42.070 -11.121   2.558  1.00  0.00     0.726 A 
HETATM    5  N   UNL     1      42.641 -10.934   3.765  1.00  0.00    -0.192 N 
HETATM    6  N   UNL     1      40.615 -12.123   1.182  1.00  0.00    -0.128 NA
HETATM    7  C   UNL     1      41.245 -11.078   0.630  1.00  0.00     0.226 A 
HETATM    8  N   UNL     1      42.159 -10.445   1.440  1.00  0.00    -0.035 NA
HETATM    9  C   UNL     1      42.182 -11.569   4.923  1.00  0.00     0.037 C 
HETATM   10  C   UNL     1      42.781 -11.061   6.210  1.00  0.00     0.070 C 
HETATM   11  H   UNL     1      43.218 -10.106   3.895  1.00  0.00     0.184 HD
ENDROOT
BRANCH   7  12
HETATM   12  S   UNL     1      40.859 -10.573  -0.988  1.00  0.00    -0.083 SA
BRANCH  12  13
HETATM   13  C   UNL     1      39.091 -10.971  -1.050  1.00  0.00     0.123 C 
BRANCH  13  14
HETATM   14  C   UNL     1      38.844 -12.220  -1.865  1.00  0.00    -0.027 A 
HETATM   15  C   UNL     1      37.645 -12.455  -2.558  1.00  0.00     0.041 A 
HETATM   16 CL   UNL     1      36.351 -11.310  -2.571  1.00  0.00    -0.084 Cl
HETATM   17  C   UNL     1      37.456 -13.646  -3.269  1.00  0.00     0.024 A 
HETATM   18  C   UNL     1      38.454 -14.619  -3.290  1.00  0.00     0.002 A 
HETATM   19  C   UNL     1      39.645 -14.406  -2.603  1.00  0.00     0.001 A 
HETATM   20  C   UNL     1      39.838 -13.218  -1.895  1.00  0.00     0.009 A 
ENDBRANCH  13  14
ENDBRANCH  12  13
ENDBRANCH   7  12
BRANCH   2  21
HETATM   21  C   UNL     1      41.463 -14.464   3.139  1.00  0.00    -0.028 A 
HETATM   22  C   UNL     1      40.641 -15.528   2.729  1.00  0.00     0.011 A 
HETATM   23  C   UNL     1      41.182 -16.788   2.463  1.00  0.00     0.024 A 
HETATM   24  C   UNL     1      42.551 -16.999   2.606  1.00  0.00     0.034 A 
HETATM   25 CL   UNL     1      43.216 -18.554   2.291  1.00  0.00    -0.084 Cl
HETATM   26  C   UNL     1      43.385 -15.958   3.006  1.00  0.00     0.024 A 
HETATM   27  C   UNL     1      42.845 -14.697   3.271  1.00  0.00     0.011 A 
ENDBRANCH   2  21
BRANCH   1  28
HETATM   28  C   UNL     1      40.529 -13.230   5.938  1.00  0.00     0.293 C 
HETATM   29  O   UNL     1      39.413 -12.878   6.292  1.00  0.00    -0.259 OA
BRANCH  28  30
HETATM   30  O   UNL     1      41.278 -14.164   6.568  1.00  0.00    -0.318 OA
BRANCH  30  31
HETATM   31  C   UNL     1      40.757 -15.503   6.554  1.00  0.00     0.174 C 
HETATM   32  C   UNL     1      41.874 -16.515   6.379  1.00  0.00     0.034 C 
ENDBRANCH  30  31
ENDBRANCH  28  30
ENDBRANCH   1  28
TORSDOF 7
ENDMDL
MODEL 4
REMARK VINA RESULT:      -7.8      2.748      4.485
REMARK  7 active torsions:
REMARK  status: ('A' for Active; 'I' for Inactive)
REMARK    1  A    between atoms: C_2  and  O_3 
REMARK    2  A    between atoms: O_3  and  C_4 
REMARK    3  A    between atoms: C_4  and  C_5 
REMARK    4  A    between atoms: C_6  and  C_7 
REMARK    5  A    between atoms: C_18  and  S_19 
REMARK    6  A    between atoms: S_19  and  C_20 
REMARK    7  A    between atoms: C_20  and  C_21 
ROOT
HETATM    1  C   UNL     1      39.622 -11.296   5.164  1.00  0.00     0.070 C 
HETATM    2  C   UNL     1      40.487 -12.549   5.321  1.00  0.00     0.203 C 
HETATM    3  N   UNL     1      40.500 -13.334   4.085  1.00  0.00    -0.082 N 
HETATM    4  C   UNL     1      40.104 -12.849   2.871  1.00  0.00     0.726 A 
HETATM    5  N   UNL     1      39.638 -11.586   2.795  1.00  0.00    -0.192 N 
HETATM    6  N   UNL     1      40.815 -14.639   4.015  1.00  0.00    -0.128 NA
HETATM    7  C   UNL     1      40.644 -14.869   2.708  1.00  0.00     0.226 A 
HETATM    8  N   UNL     1      40.222 -13.789   1.968  1.00  0.00    -0.035 NA
HETATM    9  C   UNL     1      39.293 -10.839   3.925  1.00  0.00     0.037 C 
HETATM   10  C   UNL     1      38.570  -9.547   3.640  1.00  0.00     0.070 C 
HETATM   11  H   UNL     1      39.256 -11.274   1.905  1.00  0.00     0.184 HD
ENDROOT
BRANCH   7  12
HETATM   12  S   UNL     1      40.908 -16.459   2.053  1.00  0.00    -0.083 SA
BRANCH  12  13
HETATM   13  C   UNL     1      42.718 -16.543   2.096  1.00  0.00     0.123 C 
BRANCH  13  14
HETATM   14  C   UNL     1      43.186 -17.768   2.848  1.00  0.00    -0.027 A 
HETATM   15  C   UNL     1      43.665 -17.717   4.167  1.00  0.00     0.041 A 
HETATM   16 CL   UNL     1      43.727 -16.243   5.067  1.00  0.00    -0.084 Cl
HETATM   17  C   UNL     1      44.120 -18.878   4.804  1.00  0.00     0.024 A 
HETATM   18  C   UNL     1      44.110 -20.100   4.132  1.00  0.00     0.002 A 
HETATM   19  C   UNL     1      43.645 -20.166   2.823  1.00  0.00     0.001 A 
HETATM   20  C   UNL     1      43.189 -19.010   2.185  1.00  0.00     0.009 A 
ENDBRANCH  13  14
ENDBRANCH  12  13
ENDBRANCH   7  12
BRANCH   2  21
HETATM   21  C   UNL     1      41.925 -12.217   5.730  1.00  0.00    -0.028 A 
HETATM   22  C   UNL     1      42.602 -11.159   5.100  1.00  0.00     0.011 A 
HETATM   23  C   UNL     1      43.924 -10.856   5.435  1.00  0.00     0.024 A 
HETATM   24  C   UNL     1      44.584 -11.608   6.403  1.00  0.00     0.034 A 
HETATM   25 CL   UNL     1      46.216 -11.244   6.807  1.00  0.00    -0.084 Cl
HETATM   26  C   UNL     1      43.931 -12.658   7.044  1.00  0.00     0.024 A 
HETATM   27  C   UNL     1      42.608 -12.961   6.710  1.00  0.00     0.011 A 
ENDBRANCH   2  21
BRANCH   1  28
HETATM   28  C   UNL     1      39.183 -10.747   6.475  1.00  0.00     0.293 C 
HETATM   29  O   UNL     1      38.275 -11.240   7.128  1.00  0.00    -0.259 OA
BRANCH  28  30
HETATM   30  O   UNL     1      39.820  -9.595   6.786  1.00  0.00    -0.318 OA
BRANCH  30  31
HETATM   31  C   UNL     1      40.241  -9.458   8.153  1.00  0.00     0.174 C 
HETATM   32  C   UNL     1      41.755  -9.394   8.247  1.00  0.00     0.034 C 
ENDBRANCH  30  31
ENDBRANCH  28  30
ENDBRANCH   1  28
TORSDOF 7
ENDMDL
MODEL 5
REMARK VINA RESULT:      -7.7      4.358      6.922
REMARK  7 active torsions:
REMARK  status: ('A' for Active; 'I' for Inactive)
REMARK    1  A    between atoms: C_2  and  O_3 
REMARK    2  A    between atoms: O_3  and  C_4 
REMARK    3  A    between atoms: C_4  and  C_5 
REMARK    4  A    between atoms: C_6  and  C_7 
REMARK    5  A    between atoms: C_18  and  S_19 
REMARK    6  A    between atoms: S_19  and  C_20 
REMARK    7  A    between atoms: C_20  and  C_21 
ROOT
HETATM    1  C   UNL     1      41.188 -11.652   2.828  1.00  0.00     0.070 C 
HETATM    2  C   UNL     1      42.564 -12.184   3.239  1.00  0.00     0.203 C 
HETATM    3  N   UNL     1      42.873 -11.819   4.624  1.00  0.00    -0.082 N 
HETATM    4  C   UNL     1      41.941 -11.388   5.524  1.00  0.00     0.726 A 
HETATM    5  N   UNL     1      40.661 -11.252   5.122  1.00  0.00    -0.192 N 
HETATM    6  N   UNL     1      44.113 -11.779   5.141  1.00  0.00    -0.128 NA
HETATM    7  C   UNL     1      43.852 -11.368   6.387  1.00  0.00     0.226 A 
HETATM    8  N   UNL     1      42.526 -11.132   6.666  1.00  0.00    -0.035 NA
HETATM    9  C   UNL     1      40.287 -11.275   3.775  1.00  0.00     0.037 C 
HETATM   10  C   UNL     1      38.859 -10.871   3.502  1.00  0.00     0.070 C 
HETATM   11  H   UNL     1      40.000 -10.837   5.775  1.00  0.00     0.184 HD
ENDROOT
BRANCH   7  12
HETATM   12  S   UNL     1      45.148 -11.122   7.521  1.00  0.00    -0.083 SA
BRANCH  12  13
HETATM   13  C   UNL     1      44.806  -9.424   8.056  1.00  0.00     0.123 C 
BRANCH  13  14
HETATM   14  C   UNL     1      44.201  -9.402   9.441  1.00  0.00    -0.027 A 
HETATM   15  C   UNL     1      43.648  -8.245  10.014  1.00  0.00     0.041 A 
HETATM   16 CL   UNL     1      43.578  -6.742   9.165  1.00  0.00    -0.084 Cl
HETATM   17  C   UNL     1      43.133  -8.273  11.315  1.00  0.00     0.024 A 
HETATM   18  C   UNL     1      43.169  -9.449  12.062  1.00  0.00     0.002 A 
HETATM   19  C   UNL     1      43.720 -10.602  11.512  1.00  0.00     0.001 A 
HETATM   20  C   UNL     1      44.233 -10.579  10.213  1.00  0.00     0.009 A 
ENDBRANCH  13  14
ENDBRANCH  12  13
ENDBRANCH   7  12
BRANCH   2  21
HETATM   21  C   UNL     1      42.674 -13.703   3.076  1.00  0.00    -0.028 A 
HETATM   22  C   UNL     1      43.408 -14.237   2.003  1.00  0.00     0.011 A 
HETATM   23  C   UNL     1      43.498 -15.619   1.816  1.00  0.00     0.024 A 
HETATM   24  C   UNL     1      42.854 -16.481   2.700  1.00  0.00     0.034 A 
HETATM   25 CL   UNL     1      42.954 -18.182   2.463  1.00  0.00    -0.084 Cl
HETATM   26  C   UNL     1      42.126 -15.974   3.773  1.00  0.00     0.024 A 
HETATM   27  C   UNL     1      42.036 -14.592   3.961  1.00  0.00     0.011 A 
ENDBRANCH   2  21
BRANCH   1  28
HETATM   28  C   UNL     1      41.038 -11.562   1.352  1.00  0.00     0.293 C 
HETATM   29  O   UNL     1      41.630 -10.731   0.676  1.00  0.00    -0.259 OA
BRANCH  28  30
HETATM   30  O   UNL     1      40.100 -12.414   0.878  1.00  0.00    -0.318 OA
BRANCH  30  31
HETATM   31  C   UNL     1      40.555 -13.380  -0.083  1.00  0.00     0.174 C 
HETATM   32  C   UNL     1      40.150 -14.783   0.331  1.00  0.00     0.034 C 
ENDBRANCH  30  31
ENDBRANCH  28  30
ENDBRANCH   1  28
TORSDOF 7
ENDMDL
MODEL 6
REMARK VINA RESULT:      -7.6      3.696      7.014
REMARK  7 active torsions:
REMARK  status: ('A' for Active; 'I' for Inactive)
REMARK    1  A    between atoms: C_2  and  O_3 
REMARK    2  A    between atoms: O_3  and  C_4 
REMARK    3  A    between atoms: C_4  and  C_5 
REMARK    4  A    between atoms: C_6  and  C_7 
REMARK    5  A    between atoms: C_18  and  S_19 
REMARK    6  A    between atoms: S_19  and  C_20 
REMARK    7  A    between atoms: C_20  and  C_21 
ROOT
HETATM    1  C   UNL     1      40.991 -12.245   4.565  1.00  0.00     0.070 C 
HETATM    2  C   UNL     1      40.650 -12.833   3.193  1.00  0.00     0.203 C 
HETATM    3  N   UNL     1      41.070 -11.931   2.118  1.00  0.00    -0.082 N 
HETATM    4  C   UNL     1      41.948 -10.900   2.290  1.00  0.00     0.726 A 
HETATM    5  N   UNL     1      42.442 -10.662   3.522  1.00  0.00    -0.192 N 
HETATM    6  N   UNL     1      40.576 -11.955   0.869  1.00  0.00    -0.128 NA
HETATM    7  C   UNL     1      41.247 -10.939   0.314  1.00  0.00     0.226 A 
HETATM    8  N   UNL     1      42.113 -10.275   1.152  1.00  0.00    -0.035 NA
HETATM    9  C   UNL     1      41.905 -11.243   4.675  1.00  0.00     0.037 C 
HETATM   10  C   UNL     1      42.426 -10.682   5.975  1.00  0.00     0.070 C 
HETATM   11  H   UNL     1      43.016  -9.832   3.652  1.00  0.00     0.184 HD
ENDROOT
BRANCH   7  12
HETATM   12  S   UNL     1      40.969 -10.504  -1.347  1.00  0.00    -0.083 SA
BRANCH  12  13
HETATM   13  C   UNL     1      40.484 -12.109  -2.037  1.00  0.00     0.123 C 
BRANCH  13  14
HETATM   14  C   UNL     1      39.009 -12.134  -2.365  1.00  0.00    -0.027 A 
HETATM   15  C   UNL     1      38.307 -13.322  -2.630  1.00  0.00     0.041 A 
HETATM   16 CL   UNL     1      39.066 -14.873  -2.568  1.00  0.00    -0.084 Cl
HETATM   17  C   UNL     1      36.947 -13.285  -2.963  1.00  0.00     0.024 A 
HETATM   18  C   UNL     1      36.275 -12.067  -3.044  1.00  0.00     0.002 A 
HETATM   19  C   UNL     1      36.957 -10.881  -2.792  1.00  0.00     0.001 A 
HETATM   20  C   UNL     1      38.312 -10.914  -2.457  1.00  0.00     0.009 A 
ENDBRANCH  13  14
ENDBRANCH  12  13
ENDBRANCH   7  12
BRANCH   2  21
HETATM   21  C   UNL     1      41.281 -14.212   2.977  1.00  0.00    -0.028 A 
HETATM   22  C   UNL     1      42.662 -14.384   3.173  1.00  0.00     0.011 A 
HETATM   23  C   UNL     1      43.265 -15.626   2.953  1.00  0.00     0.024 A 
HETATM   24  C   UNL     1      42.494 -16.707   2.535  1.00  0.00     0.034 A 
HETATM   25 CL   UNL     1      43.238 -18.232   2.252  1.00  0.00    -0.084 Cl
HETATM   26  C   UNL     1      41.123 -16.560   2.340  1.00  0.00     0.024 A 
HETATM   27  C   UNL     1      40.519 -15.319   2.561  1.00  0.00     0.011 A 
ENDBRANCH   2  21
BRANCH   1  28
HETATM   28  C   UNL     1      40.180 -12.851   5.654  1.00  0.00     0.293 C 
HETATM   29  O   UNL     1      39.053 -12.466   5.932  1.00  0.00    -0.259 OA
BRANCH  28  30
HETATM   30  O   UNL     1      40.873 -13.776   6.356  1.00  0.00    -0.318 OA
BRANCH  30  31
HETATM   31  C   UNL     1      40.295 -15.090   6.409  1.00  0.00     0.174 C 
HETATM   32  C   UNL     1      41.360 -16.156   6.225  1.00  0.00     0.034 C 
ENDBRANCH  30  31
ENDBRANCH  28  30
ENDBRANCH   1  28
TORSDOF 7
ENDMDL
MODEL 7
REMARK VINA RESULT:      -7.5      4.084      6.951
REMARK  7 active torsions:
REMARK  status: ('A' for Active; 'I' for Inactive)
REMARK    1  A    between atoms: C_2  and  O_3 
REMARK    2  A    between atoms: O_3  and  C_4 
REMARK    3  A    between atoms: C_4  and  C_5 
REMARK    4  A    between atoms: C_6  and  C_7 
REMARK    5  A    between atoms: C_18  and  S_19 
REMARK    6  A    between atoms: S_19  and  C_20 
REMARK    7  A    between atoms: C_20  and  C_21 
ROOT
HETATM    1  C   UNL     1      40.767 -12.586   1.810  1.00  0.00     0.070 C 
HETATM    2  C   UNL     1      42.069 -13.008   2.494  1.00  0.00     0.203 C 
HETATM    3  N   UNL     1      42.105 -12.545   3.884  1.00  0.00    -0.082 N 
HETATM    4  C   UNL     1      41.004 -12.120   4.572  1.00  0.00     0.726 A 
HETATM    5  N   UNL     1      39.813 -12.085   3.941  1.00  0.00    -0.192 N 
HETATM    6  N   UNL     1      43.226 -12.400   4.609  1.00  0.00    -0.128 NA
HETATM    7  C   UNL     1      42.724 -11.933   5.758  1.00  0.00     0.226 A 
HETATM    8  N   UNL     1      41.359 -11.762   5.780  1.00  0.00    -0.035 NA
HETATM    9  C   UNL     1      39.691 -12.209   2.553  1.00  0.00     0.037 C 
HETATM   10  C   UNL     1      38.319 -11.910   2.004  1.00  0.00     0.070 C 
HETATM   11  H   UNL     1      39.025 -11.674   4.435  1.00  0.00     0.184 HD
ENDROOT
BRANCH   7  12
HETATM   12  S   UNL     1      43.778 -11.543   7.085  1.00  0.00    -0.083 SA
BRANCH  12  13
HETATM   13  C   UNL     1      43.219  -9.863   7.474  1.00  0.00     0.123 C 
BRANCH  13  14
HETATM   14  C   UNL     1      43.311  -9.591   8.958  1.00  0.00    -0.027 A 
HETATM   15  C   UNL     1      42.203  -9.216   9.736  1.00  0.00     0.041 A 
HETATM   16 CL   UNL     1      40.617  -9.068   9.065  1.00  0.00    -0.084 Cl
HETATM   17  C   UNL     1      42.352  -8.942  11.100  1.00  0.00     0.024 A 
HETATM   18  C   UNL     1      43.606  -9.029  11.704  1.00  0.00     0.002 A 
HETATM   19  C   UNL     1      44.715  -9.392  10.946  1.00  0.00     0.001 A 
HETATM   20  C   UNL     1      44.570  -9.669   9.585  1.00  0.00     0.009 A 
ENDBRANCH  13  14
ENDBRANCH  12  13
ENDBRANCH   7  12
BRANCH   2  21
HETATM   21  C   UNL     1      42.282 -14.524   2.457  1.00  0.00    -0.028 A 
HETATM   22  C   UNL     1      43.347 -15.061   1.713  1.00  0.00     0.011 A 
HETATM   23  C   UNL     1      43.543 -16.442   1.640  1.00  0.00     0.024 A 
HETATM   24  C   UNL     1      42.677 -17.302   2.310  1.00  0.00     0.034 A 
HETATM   25 CL   UNL     1      42.910 -19.003   2.209  1.00  0.00    -0.084 Cl
HETATM   26  C   UNL     1      41.618 -16.792   3.057  1.00  0.00     0.024 A 
HETATM   27  C   UNL     1      41.422 -15.411   3.131  1.00  0.00     0.011 A 
ENDBRANCH   2  21
BRANCH   1  28
HETATM   28  C   UNL     1      40.883 -12.591   0.327  1.00  0.00     0.293 C 
HETATM   29  O   UNL     1      41.209 -11.602  -0.314  1.00  0.00    -0.259 OA
BRANCH  28  30
HETATM   30  O   UNL     1      40.478 -13.763  -0.214  1.00  0.00    -0.318 OA
BRANCH  30  31
HETATM   31  C   UNL     1      39.404 -13.679  -1.165  1.00  0.00     0.174 C 
HETATM   32  C   UNL     1      39.890 -14.034  -2.559  1.00  0.00     0.034 C 
ENDBRANCH  30  31
ENDBRANCH  28  30
ENDBRANCH   1  28
TORSDOF 7
ENDMDL
MODEL 8
REMARK VINA RESULT:      -7.5      3.717      6.920
REMARK  7 active torsions:
REMARK  status: ('A' for Active; 'I' for Inactive)
REMARK    1  A    between atoms: C_2  and  O_3 
REMARK    2  A    between atoms: O_3  and  C_4 
REMARK    3  A    between atoms: C_4  and  C_5 
REMARK    4  A    between atoms: C_6  and  C_7 
REMARK    5  A    between atoms: C_18  and  S_19 
REMARK    6  A    between atoms: S_19  and  C_20 
REMARK    7  A    between atoms: C_20  and  C_21 
ROOT
HETATM    1  C   UNL     1      42.074 -14.584   5.654  1.00  0.00     0.070 C 
HETATM    2  C   UNL     1      42.581 -13.378   4.860  1.00  0.00     0.203 C 
HETATM    3  N   UNL     1      41.528 -12.841   3.995  1.00  0.00    -0.082 N 
HETATM    4  C   UNL     1      40.202 -13.136   4.138  1.00  0.00     0.726 A 
HETATM    5  N   UNL     1      39.826 -13.997   5.104  1.00  0.00    -0.192 N 
HETATM    6  N   UNL     1      41.749 -12.074   2.914  1.00  0.00    -0.128 NA
HETATM    7  C   UNL     1      40.498 -11.889   2.477  1.00  0.00     0.226 A 
HETATM    8  N   UNL     1      39.517 -12.514   3.212  1.00  0.00    -0.035 NA
HETATM    9  C   UNL     1      40.738 -14.802   5.794  1.00  0.00     0.037 C 
HETATM   10  C   UNL     1      40.118 -15.867   6.664  1.00  0.00     0.070 C 
HETATM   11  H   UNL     1      38.850 -14.282   5.134  1.00  0.00     0.184 HD
ENDROOT
BRANCH   7  12
HETATM   12  S   UNL     1      40.196 -10.952   1.043  1.00  0.00    -0.083 SA
BRANCH  12  13
HETATM   13  C   UNL     1      41.169 -11.879  -0.173  1.00  0.00     0.123 C 
BRANCH  13  14
HETATM   14  C   UNL     1      40.277 -12.731  -1.046  1.00  0.00    -0.027 A 
HETATM   15  C   UNL     1      40.015 -14.085  -0.777  1.00  0.00     0.041 A 
HETATM   16 CL   UNL     1      40.666 -14.891   0.606  1.00  0.00    -0.084 Cl
HETATM   17  C   UNL     1      39.208 -14.837  -1.638  1.00  0.00     0.024 A 
HETATM   18  C   UNL     1      38.660 -14.254  -2.780  1.00  0.00     0.002 A 
HETATM   19  C   UNL     1      38.916 -12.917  -3.064  1.00  0.00     0.001 A 
HETATM   20  C   UNL     1      39.718 -12.162  -2.206  1.00  0.00     0.009 A 
ENDBRANCH  13  14
ENDBRANCH  12  13
ENDBRANCH   7  12
BRANCH   2  21
HETATM   21  C   UNL     1      43.113 -12.265   5.767  1.00  0.00    -0.028 A 
HETATM   22  C   UNL     1      44.489 -12.189   6.043  1.00  0.00     0.011 A 
HETATM   23  C   UNL     1      44.994 -11.200   6.892  1.00  0.00     0.024 A 
HETATM   24  C   UNL     1      44.129 -10.277   7.473  1.00  0.00     0.034 A 
HETATM   25 CL   UNL     1      44.748  -9.068   8.527  1.00  0.00    -0.084 Cl
HETATM   26  C   UNL     1      42.763 -10.330   7.208  1.00  0.00     0.024 A 
HETATM   27  C   UNL     1      42.257 -11.318   6.359  1.00  0.00     0.011 A 
ENDBRANCH   2  21
BRANCH   1  28
HETATM   28  C   UNL     1      43.185 -15.440   6.149  1.00  0.00     0.293 C 
HETATM   29  O   UNL     1      43.488 -15.511   7.332  1.00  0.00    -0.259 OA
BRANCH  28  30
HETATM   30  O   UNL     1      43.872 -16.022   5.140  1.00  0.00    -0.318 OA
BRANCH  30  31
HETATM   31  C   UNL     1      43.308 -17.231   4.609  1.00  0.00     0.174 C 
HETATM   32  C   UNL     1      43.126 -17.126   3.106  1.00  0.00     0.034 C 
ENDBRANCH  30  31
ENDBRANCH  28  30
ENDBRANCH   1  28
TORSDOF 7
ENDMDL
MODEL 9
REMARK VINA RESULT:      -7.3      4.279      7.946
REMARK  7 active torsions:
REMARK  status: ('A' for Active; 'I' for Inactive)
REMARK    1  A    between atoms: C_2  and  O_3 
REMARK    2  A    between atoms: O_3  and  C_4 
REMARK    3  A    between atoms: C_4  and  C_5 
REMARK    4  A    between atoms: C_6  and  C_7 
REMARK    5  A    between atoms: C_18  and  S_19 
REMARK    6  A    between atoms: S_19  and  C_20 
REMARK    7  A    between atoms: C_20  and  C_21 
ROOT
HETATM    1  C   UNL     1      41.020 -12.469   4.571  1.00  0.00     0.070 C 
HETATM    2  C   UNL     1      40.683 -13.097   3.216  1.00  0.00     0.203 C 
HETATM    3  N   UNL     1      41.036 -12.193   2.118  1.00  0.00    -0.082 N 
HETATM    4  C   UNL     1      41.863 -11.116   2.256  1.00  0.00     0.726 A 
HETATM    5  N   UNL     1      42.367 -10.832   3.474  1.00  0.00    -0.192 N 
HETATM    6  N   UNL     1      40.520 -12.264   0.879  1.00  0.00    -0.128 NA
HETATM    7  C   UNL     1      41.128 -11.224   0.295  1.00  0.00     0.226 A 
HETATM    8  N   UNL     1      41.974 -10.502   1.105  1.00  0.00    -0.035 NA
HETATM    9  C   UNL     1      41.883 -11.421   4.647  1.00  0.00     0.037 C 
HETATM   10  C   UNL     1      42.399 -10.812   5.927  1.00  0.00     0.070 C 
HETATM   11  H   UNL     1      42.901  -9.972   3.580  1.00  0.00     0.184 HD
ENDROOT
BRANCH   7  12
HETATM   12  S   UNL     1      40.796 -10.832  -1.367  1.00  0.00    -0.083 SA
BRANCH  12  13
HETATM   13  C   UNL     1      40.315  -9.091  -1.210  1.00  0.00     0.123 C 
BRANCH  13  14
HETATM   14  C   UNL     1      41.390  -8.180  -1.755  1.00  0.00    -0.027 A 
HETATM   15  C   UNL     1      41.618  -8.007  -3.131  1.00  0.00     0.041 A 
HETATM   16 CL   UNL     1      40.658  -8.800  -4.329  1.00  0.00    -0.084 Cl
HETATM   17  C   UNL     1      42.652  -7.177  -3.581  1.00  0.00     0.024 A 
HETATM   18  C   UNL     1      43.474  -6.517  -2.669  1.00  0.00     0.002 A 
HETATM   19  C   UNL     1      43.265  -6.683  -1.304  1.00  0.00     0.001 A 
HETATM   20  C   UNL     1      42.234  -7.508  -0.850  1.00  0.00     0.009 A 
ENDBRANCH  13  14
ENDBRANCH  12  13
ENDBRANCH   7  12
BRANCH   2  21
HETATM   21  C   UNL     1      41.380 -14.445   3.009  1.00  0.00    -0.028 A 
HETATM   22  C   UNL     1      40.628 -15.565   2.614  1.00  0.00     0.011 A 
HETATM   23  C   UNL     1      41.237 -16.812   2.448  1.00  0.00     0.024 A 
HETATM   24  C   UNL     1      42.604 -16.953   2.676  1.00  0.00     0.034 A 
HETATM   25 CL   UNL     1      43.351 -18.490   2.485  1.00  0.00    -0.084 Cl
HETATM   26  C   UNL     1      43.368 -15.855   3.063  1.00  0.00     0.024 A 
HETATM   27  C   UNL     1      42.761 -14.608   3.228  1.00  0.00     0.011 A 
ENDBRANCH   2  21
BRANCH   1  28
HETATM   28  C   UNL     1      40.261 -13.097   5.685  1.00  0.00     0.293 C 
HETATM   29  O   UNL     1      39.125 -12.759   5.985  1.00  0.00    -0.259 OA
BRANCH  28  30
HETATM   30  O   UNL     1      41.011 -13.982   6.381  1.00  0.00    -0.318 OA
BRANCH  30  31
HETATM   31  C   UNL     1      40.502 -15.324   6.445  1.00  0.00     0.174 C 
HETATM   32  C   UNL     1      41.633 -16.334   6.369  1.00  0.00     0.034 C 
ENDBRANCH  30  31
ENDBRANCH  28  30
ENDBRANCH   1  28
TORSDOF 7
ENDMDL
MODEL 10
REMARK VINA RESULT:      -7.2      4.541      7.522
REMARK  7 active torsions:
REMARK  status: ('A' for Active; 'I' for Inactive)
REMARK    1  A    between atoms: C_2  and  O_3 
REMARK    2  A    between atoms: O_3  and  C_4 
REMARK    3  A    between atoms: C_4  and  C_5 
REMARK    4  A    between atoms: C_6  and  C_7 
REMARK    5  A    between atoms: C_18  and  S_19 
REMARK    6  A    between atoms: S_19  and  C_20 
REMARK    7  A    between atoms: C_20  and  C_21 
ROOT
HETATM    1  C   UNL     1      41.530 -13.437   3.844  1.00  0.00     0.070 C 
HETATM    2  C   UNL     1      42.883 -13.706   4.506  1.00  0.00     0.203 C 
HETATM    3  N   UNL     1      43.161 -12.716   5.550  1.00  0.00    -0.082 N 
HETATM    4  C   UNL     1      42.212 -11.900   6.097  1.00  0.00     0.726 A 
HETATM    5  N   UNL     1      40.947 -11.973   5.637  1.00  0.00    -0.192 N 
HETATM    6  N   UNL     1      44.387 -12.433   6.023  1.00  0.00    -0.128 NA
HETATM    7  C   UNL     1      44.099 -11.468   6.905  1.00  0.00     0.226 A 
HETATM    8  N   UNL     1      42.770 -11.123   6.990  1.00  0.00    -0.035 NA
HETATM    9  C   UNL     1      40.609 -12.645   4.459  1.00  0.00     0.037 C 
HETATM   10  C   UNL     1      39.198 -12.421   3.978  1.00  0.00     0.070 C 
HETATM   11  H   UNL     1      40.275 -11.292   5.985  1.00  0.00     0.184 HD
ENDROOT
BRANCH   7  12
HETATM   12  S   UNL     1      45.367 -10.706   7.819  1.00  0.00    -0.083 SA
BRANCH  12  13
HETATM   13  C   UNL     1      44.565  -9.142   8.263  1.00  0.00     0.123 C 
BRANCH  13  14
HETATM   14  C   UNL     1      44.002  -9.200   9.665  1.00  0.00    -0.027 A 
HETATM   15  C   UNL     1      43.467  -8.078  10.319  1.00  0.00     0.041 A 
HETATM   16 CL   UNL     1      43.370  -6.529   9.559  1.00  0.00    -0.084 Cl
HETATM   17  C   UNL     1      42.991  -8.180  11.632  1.00  0.00     0.024 A 
HETATM   18  C   UNL     1      43.050  -9.397  12.310  1.00  0.00     0.002 A 
HETATM   19  C   UNL     1      43.584 -10.516  11.679  1.00  0.00     0.001 A 
HETATM   20  C   UNL     1      44.057 -10.418  10.369  1.00  0.00     0.009 A 
ENDBRANCH  13  14
ENDBRANCH  12  13
ENDBRANCH   7  12
BRANCH   2  21
HETATM   21  C   UNL     1      42.971 -15.114   5.103  1.00  0.00    -0.028 A 
HETATM   22  C   UNL     1      42.404 -15.373   6.363  1.00  0.00     0.011 A 
HETATM   23  C   UNL     1      42.497 -16.642   6.941  1.00  0.00     0.024 A 
HETATM   24  C   UNL     1      43.158 -17.665   6.266  1.00  0.00     0.034 A 
HETATM   25 CL   UNL     1      43.284 -19.223   6.983  1.00  0.00    -0.084 Cl
HETATM   26  C   UNL     1      43.722 -17.431   5.014  1.00  0.00     0.024 A 
HETATM   27  C   UNL     1      43.629 -16.163   4.435  1.00  0.00     0.011 A 
ENDBRANCH   2  21
BRANCH   1  28
HETATM   28  C   UNL     1      41.422 -14.074   2.505  1.00  0.00     0.293 C 
HETATM   29  O   UNL     1      40.927 -15.179   2.336  1.00  0.00    -0.259 OA
BRANCH  28  30
HETATM   30  O   UNL     1      42.032 -13.346   1.541  1.00  0.00    -0.318 OA
BRANCH  30  31
HETATM   31  C   UNL     1      41.192 -12.435   0.815  1.00  0.00     0.174 C 
HETATM   32  C   UNL     1      40.537 -13.130  -0.366  1.00  0.00     0.034 C 
ENDBRANCH  30  31
ENDBRANCH  28  30
ENDBRANCH   1  28
TORSDOF 7
ENDMDL
