MODEL 1
REMARK VINA RESULT:      -8.3      0.000      0.000
REMARK  6 active torsions:
REMARK  status: ('A' for Active; 'I' for Inactive)
REMARK    1  A    between atoms: C_7  and  C_8 
REMARK    2  A    between atoms: C_8  and  N_9 
REMARK       I    between atoms: N_9  and  C_10 
REMARK       I    between atoms: C_10  and  N_11 
REMARK    3  A    between atoms: N_11  and  C_12 
REMARK    4  A    between atoms: C_14  and  C_15 
REMARK    5  A    between atoms: C_15  and  O_16 
REMARK    6  A    between atoms: O_16  and  C_17 
ROOT
HETATM    1  C   UNL     1      43.216 -13.221   6.292  1.00  0.00     0.036 A 
HETATM    2  C   UNL     1      44.144 -12.555   7.100  1.00  0.00     0.038 A 
HETATM    3  C   UNL     1      44.942 -11.521   6.576  1.00  0.00    -0.032 A 
HETATM    4  C   UNL     1      44.790 -11.151   5.233  1.00  0.00     0.009 A 
HETATM    5  C   UNL     1      43.848 -11.787   4.430  1.00  0.00     0.003 A 
HETATM    6  C   UNL     1      43.066 -12.812   4.960  1.00  0.00     0.029 A 
ENDROOT
BRANCH   1   7
HETATM    7  N   UNL     1      42.369 -14.259   6.720  1.00  0.00    -0.309 N 
HETATM    8  C   UNL     1      42.501 -15.607   6.823  1.00  0.00     0.320 C 
HETATM    9  N   UNL     1      43.558 -16.202   6.217  1.00  0.00    -0.339 N 
HETATM   10  O   UNL     1      41.635 -16.241   7.424  1.00  0.00    -0.247 OA
HETATM   11  H   UNL     1      43.859 -15.749   5.367  1.00  0.00     0.164 HD
HETATM   12  H   UNL     1      41.463 -13.973   7.072  1.00  0.00     0.170 HD
BRANCH   9  13
HETATM   13  C   UNL     1      43.658 -17.641   6.232  1.00  0.00     0.166 C 
BRANCH  13  14
HETATM   14  C   UNL     1      43.691 -18.143   4.836  1.00  0.00     0.003 A 
HETATM   15  C   UNL     1      43.951 -19.430   4.385  1.00  0.00     0.035 A 
HETATM   16  C   UNL     1      44.310 -20.661   5.135  1.00  0.00     0.070 C 
HETATM   17  N   UNL     1      43.778 -19.391   3.024  1.00  0.00    -0.278 N 
HETATM   18  C   UNL     1      43.842 -20.481   2.080  1.00  0.00     0.179 C 
HETATM   19  N   UNL     1      43.484 -18.162   2.561  1.00  0.00    -0.185 NA
HETATM   20  C   UNL     1      43.414 -17.413   3.661  1.00  0.00     0.149 A 
ENDBRANCH  13  14
ENDBRANCH   9  13
ENDBRANCH   1   7
BRANCH   3  21
HETATM   21  C   UNL     1      45.977 -10.832   7.430  1.00  0.00     0.206 C 
BRANCH  21  22
HETATM   22  O   UNL     1      45.546 -10.847   8.790  1.00  0.00    -0.381 OA
BRANCH  22  23
HETATM   23  C   UNL     1      45.571  -9.555   9.404  1.00  0.00     0.121 C 
HETATM   24  C   UNL     1      44.748  -8.557   8.578  1.00  0.00     0.032 C 
HETATM   25  C   UNL     1      43.260  -8.907   8.560  1.00  0.00     0.002 C 
HETATM   26  C   UNL     1      42.697  -9.049   9.971  1.00  0.00     0.000 C 
HETATM   27  C   UNL     1      43.501 -10.048  10.799  1.00  0.00     0.002 C 
HETATM   28  C   UNL     1      44.989  -9.696  10.815  1.00  0.00     0.032 C 
ENDBRANCH  22  23
ENDBRANCH  21  22
ENDBRANCH   3  21
TORSDOF 6
ENDMDL
MODEL 2
REMARK VINA RESULT:      -7.9      2.745      5.760
REMARK  6 active torsions:
REMARK  status: ('A' for Active; 'I' for Inactive)
REMARK    1  A    between atoms: C_7  and  C_8 
REMARK    2  A    between atoms: C_8  and  N_9 
REMARK       I    between atoms: N_9  and  C_10 
REMARK       I    between atoms: C_10  and  N_11 
REMARK    3  A    between atoms: N_11  and  C_12 
REMARK    4  A    between atoms: C_14  and  C_15 
REMARK    5  A    between atoms: C_15  and  O_16 
REMARK    6  A    between atoms: O_16  and  C_17 
ROOT
HETATM    1  C   UNL     1      42.878 -13.186   6.273  1.00  0.00     0.036 A 
HETATM    2  C   UNL     1      41.876 -12.971   5.321  1.00  0.00     0.038 A 
HETATM    3  C   UNL     1      42.022 -11.977   4.335  1.00  0.00    -0.032 A 
HETATM    4  C   UNL     1      43.193 -11.207   4.306  1.00  0.00     0.009 A 
HETATM    5  C   UNL     1      44.208 -11.435   5.230  1.00  0.00     0.003 A 
HETATM    6  C   UNL     1      44.050 -12.421   6.202  1.00  0.00     0.029 A 
ENDROOT
BRANCH   1   7
HETATM    7  N   UNL     1      42.832 -14.155   7.291  1.00  0.00    -0.309 N 
HETATM    8  C   UNL     1      43.177 -15.467   7.365  1.00  0.00     0.320 C 
HETATM    9  N   UNL     1      43.435 -16.134   6.213  1.00  0.00    -0.339 N 
HETATM   10  O   UNL     1      43.200 -16.010   8.468  1.00  0.00    -0.247 OA
HETATM   11  H   UNL     1      42.897 -15.819   5.420  1.00  0.00     0.164 HD
HETATM   12  H   UNL     1      42.511 -13.831   8.196  1.00  0.00     0.170 HD
BRANCH   9  13
HETATM   13  C   UNL     1      43.704 -17.551   6.268  1.00  0.00     0.166 C 
BRANCH  13  14
HETATM   14  C   UNL     1      43.738 -18.095   4.888  1.00  0.00     0.003 A 
HETATM   15  C   UNL     1      43.951 -19.405   4.479  1.00  0.00     0.035 A 
HETATM   16  C   UNL     1      44.245 -20.627   5.270  1.00  0.00     0.070 C 
HETATM   17  N   UNL     1      43.800 -19.398   3.115  1.00  0.00    -0.278 N 
HETATM   18  C   UNL     1      43.834 -20.518   2.204  1.00  0.00     0.179 C 
HETATM   19  N   UNL     1      43.566 -18.172   2.611  1.00  0.00    -0.185 NA
HETATM   20  C   UNL     1      43.510 -17.389   3.687  1.00  0.00     0.149 A 
ENDBRANCH  13  14
ENDBRANCH   9  13
ENDBRANCH   1   7
BRANCH   3  21
HETATM   21  C   UNL     1      40.924 -11.709   3.336  1.00  0.00     0.206 C 
BRANCH  21  22
HETATM   22  O   UNL     1      40.554 -12.935   2.708  1.00  0.00    -0.381 OA
BRANCH  22  23
HETATM   23  C   UNL     1      41.507 -13.381   1.737  1.00  0.00     0.121 C 
HETATM   24  C   UNL     1      41.543 -14.915   1.694  1.00  0.00     0.032 C 
HETATM   25  C   UNL     1      40.227 -15.512   1.194  1.00  0.00     0.002 C 
HETATM   26  C   UNL     1      39.823 -14.933  -0.159  1.00  0.00     0.000 C 
HETATM   27  C   UNL     1      39.773 -13.409  -0.125  1.00  0.00     0.002 C 
HETATM   28  C   UNL     1      41.089 -12.813   0.376  1.00  0.00     0.032 C 
ENDBRANCH  22  23
ENDBRANCH  21  22
ENDBRANCH   3  21
TORSDOF 6
ENDMDL
MODEL 3
REMARK VINA RESULT:      -7.7      2.701      9.321
REMARK  6 active torsions:
REMARK  status: ('A' for Active; 'I' for Inactive)
REMARK    1  A    between atoms: C_7  and  C_8 
REMARK    2  A    between atoms: C_8  and  N_9 
REMARK       I    between atoms: N_9  and  C_10 
REMARK       I    between atoms: C_10  and  N_11 
REMARK    3  A    between atoms: N_11  and  C_12 
REMARK    4  A    between atoms: C_14  and  C_15 
REMARK    5  A    between atoms: C_15  and  O_16 
REMARK    6  A    between atoms: O_16  and  C_17 
ROOT
HETATM    1  C   UNL     1      43.624 -13.270   6.548  1.00  0.00     0.036 A 
HETATM    2  C   UNL     1      43.781 -14.655   6.655  1.00  0.00     0.038 A 
HETATM    3  C   UNL     1      42.718 -15.526   6.351  1.00  0.00    -0.032 A 
HETATM    4  C   UNL     1      41.495 -14.991   5.924  1.00  0.00     0.009 A 
HETATM    5  C   UNL     1      41.339 -13.615   5.785  1.00  0.00     0.003 A 
HETATM    6  C   UNL     1      42.399 -12.764   6.092  1.00  0.00     0.029 A 
ENDROOT
BRANCH   1   7
HETATM    7  N   UNL     1      44.623 -12.318   6.821  1.00  0.00    -0.309 N 
HETATM    8  C   UNL     1      44.704 -11.240   7.642  1.00  0.00     0.320 C 
HETATM    9  N   UNL     1      43.564 -10.769   8.207  1.00  0.00    -0.339 N 
HETATM   10  O   UNL     1      45.799 -10.704   7.807  1.00  0.00    -0.247 OA
HETATM   11  H   UNL     1      42.740 -10.884   7.637  1.00  0.00     0.164 HD
HETATM   12  H   UNL     1      45.507 -12.458   6.346  1.00  0.00     0.170 HD
BRANCH   9  13
HETATM   13  C   UNL     1      43.619  -9.565   9.000  1.00  0.00     0.166 C 
BRANCH  13  14
HETATM   14  C   UNL     1      43.069  -9.843  10.350  1.00  0.00     0.003 A 
HETATM   15  C   UNL     1      41.844  -9.464  10.880  1.00  0.00     0.035 A 
HETATM   16  C   UNL     1      40.750  -8.648  10.293  1.00  0.00     0.070 C 
HETATM   17  N   UNL     1      41.782 -10.039  12.125  1.00  0.00    -0.278 N 
HETATM   18  C   UNL     1      40.685 -10.030  13.063  1.00  0.00     0.179 C 
HETATM   19  N   UNL     1      42.902 -10.708  12.457  1.00  0.00    -0.185 NA
HETATM   20  C   UNL     1      43.671 -10.605  11.375  1.00  0.00     0.149 A 
ENDBRANCH  13  14
ENDBRANCH   9  13
ENDBRANCH   1   7
BRANCH   3  21
HETATM   21  C   UNL     1      42.868 -17.018   6.511  1.00  0.00     0.206 C 
BRANCH  21  22
HETATM   22  O   UNL     1      42.713 -17.643   5.238  1.00  0.00    -0.381 OA
BRANCH  22  23
HETATM   23  C   UNL     1      43.847 -17.469   4.382  1.00  0.00     0.121 C 
HETATM   24  C   UNL     1      44.678 -18.758   4.332  1.00  0.00     0.032 C 
HETATM   25  C   UNL     1      43.919 -19.913   3.678  1.00  0.00     0.002 C 
HETATM   26  C   UNL     1      43.405 -19.536   2.292  1.00  0.00     0.000 C 
HETATM   27  C   UNL     1      42.567 -18.262   2.330  1.00  0.00     0.002 C 
HETATM   28  C   UNL     1      43.327 -17.109   2.986  1.00  0.00     0.032 C 
ENDBRANCH  22  23
ENDBRANCH  21  22
ENDBRANCH   3  21
TORSDOF 6
ENDMDL
MODEL 4
REMARK VINA RESULT:      -7.7      2.816      9.417
REMARK  6 active torsions:
REMARK  status: ('A' for Active; 'I' for Inactive)
REMARK    1  A    between atoms: C_7  and  C_8 
REMARK    2  A    between atoms: C_8  and  N_9 
REMARK       I    between atoms: N_9  and  C_10 
REMARK       I    between atoms: C_10  and  N_11 
REMARK    3  A    between atoms: N_11  and  C_12 
REMARK    4  A    between atoms: C_14  and  C_15 
REMARK    5  A    between atoms: C_15  and  O_16 
REMARK    6  A    between atoms: O_16  and  C_17 
ROOT
HETATM    1  C   UNL     1      43.701 -12.665   6.322  1.00  0.00     0.036 A 
HETATM    2  C   UNL     1      43.628 -14.051   6.491  1.00  0.00     0.038 A 
HETATM    3  C   UNL     1      42.423 -14.742   6.267  1.00  0.00    -0.032 A 
HETATM    4  C   UNL     1      41.290 -14.026   5.855  1.00  0.00     0.009 A 
HETATM    5  C   UNL     1      41.361 -12.651   5.654  1.00  0.00     0.003 A 
HETATM    6  C   UNL     1      42.560 -11.979   5.882  1.00  0.00     0.029 A 
ENDROOT
BRANCH   1   7
HETATM    7  N   UNL     1      44.856 -11.886   6.513  1.00  0.00    -0.309 N 
HETATM    8  C   UNL     1      45.356 -11.176   7.557  1.00  0.00     0.320 C 
HETATM    9  N   UNL     1      44.549 -10.929   8.618  1.00  0.00    -0.339 N 
HETATM   10  O   UNL     1      46.507 -10.746   7.482  1.00  0.00    -0.247 OA
HETATM   11  H   UNL     1      43.574 -10.822   8.383  1.00  0.00     0.164 HD
HETATM   12  H   UNL     1      45.501 -11.854   5.732  1.00  0.00     0.170 HD
BRANCH   9  13
HETATM   13  C   UNL     1      45.033 -10.091   9.689  1.00  0.00     0.166 C 
BRANCH  13  14
HETATM   14  C   UNL     1      44.270  -8.818   9.696  1.00  0.00     0.003 A 
HETATM   15  C   UNL     1      43.513  -8.269  10.722  1.00  0.00     0.035 A 
HETATM   16  C   UNL     1      43.205  -8.789  12.079  1.00  0.00     0.070 C 
HETATM   17  N   UNL     1      43.086  -7.050  10.258  1.00  0.00    -0.278 N 
HETATM   18  C   UNL     1      42.337  -6.036  10.961  1.00  0.00     0.179 C 
HETATM   19  N   UNL     1      43.461  -6.802   8.990  1.00  0.00    -0.185 NA
HETATM   20  C   UNL     1      44.193  -7.865   8.659  1.00  0.00     0.149 A 
ENDBRANCH  13  14
ENDBRANCH   9  13
ENDBRANCH   1   7
BRANCH   3  21
HETATM   21  C   UNL     1      42.327 -16.230   6.495  1.00  0.00     0.206 C 
BRANCH  21  22
HETATM   22  O   UNL     1      42.342 -16.897   5.235  1.00  0.00    -0.381 OA
BRANCH  22  23
HETATM   23  C   UNL     1      43.559 -16.704   4.507  1.00  0.00     0.121 C 
HETATM   24  C   UNL     1      44.516 -17.879   4.750  1.00  0.00     0.032 C 
HETATM   25  C   UNL     1      43.976 -19.193   4.185  1.00  0.00     0.002 C 
HETATM   26  C   UNL     1      43.623 -19.068   2.707  1.00  0.00     0.000 C 
HETATM   27  C   UNL     1      42.662 -17.910   2.454  1.00  0.00     0.002 C 
HETATM   28  C   UNL     1      43.203 -16.597   3.020  1.00  0.00     0.032 C 
ENDBRANCH  22  23
ENDBRANCH  21  22
ENDBRANCH   3  21
TORSDOF 6
ENDMDL
MODEL 5
REMARK VINA RESULT:      -7.7      1.787      2.843
REMARK  6 active torsions:
REMARK  status: ('A' for Active; 'I' for Inactive)
REMARK    1  A    between atoms: C_7  and  C_8 
REMARK    2  A    between atoms: C_8  and  N_9 
REMARK       I    between atoms: N_9  and  C_10 
REMARK       I    between atoms: C_10  and  N_11 
REMARK    3  A    between atoms: N_11  and  C_12 
REMARK    4  A    between atoms: C_14  and  C_15 
REMARK    5  A    between atoms: C_15  and  O_16 
REMARK    6  A    between atoms: O_16  and  C_17 
ROOT
HETATM    1  C   UNL     1      43.635 -11.644   7.008  1.00  0.00     0.036 A 
HETATM    2  C   UNL     1      43.763 -10.957   8.220  1.00  0.00     0.038 A 
HETATM    3  C   UNL     1      45.002 -10.416   8.613  1.00  0.00    -0.032 A 
HETATM    4  C   UNL     1      46.111 -10.561   7.769  1.00  0.00     0.009 A 
HETATM    5  C   UNL     1      45.986 -11.216   6.548  1.00  0.00     0.003 A 
HETATM    6  C   UNL     1      44.754 -11.749   6.171  1.00  0.00     0.029 A 
ENDROOT
BRANCH   1   7
HETATM    7  N   UNL     1      42.444 -12.213   6.523  1.00  0.00    -0.309 N 
HETATM    8  C   UNL     1      41.873 -13.441   6.620  1.00  0.00     0.320 C 
HETATM    9  N   UNL     1      42.626 -14.469   7.085  1.00  0.00    -0.339 N 
HETATM   10  O   UNL     1      40.711 -13.585   6.243  1.00  0.00    -0.247 OA
HETATM   11  H   UNL     1      43.605 -14.407   6.851  1.00  0.00     0.164 HD
HETATM   12  H   UNL     1      41.831 -11.586   6.014  1.00  0.00     0.170 HD
BRANCH   9  13
HETATM   13  C   UNL     1      42.065 -15.799   7.099  1.00  0.00     0.166 C 
BRANCH  13  14
HETATM   14  C   UNL     1      42.701 -16.608   6.030  1.00  0.00     0.003 A 
HETATM   15  C   UNL     1      42.306 -16.756   4.707  1.00  0.00     0.035 A 
HETATM   16  C   UNL     1      41.134 -16.201   3.982  1.00  0.00     0.070 C 
HETATM   17  N   UNL     1      43.269 -17.535   4.115  1.00  0.00    -0.278 N 
HETATM   18  C   UNL     1      43.385 -17.918   2.728  1.00  0.00     0.179 C 
HETATM   19  N   UNL     1      44.220 -17.948   4.974  1.00  0.00    -0.185 NA
HETATM   20  C   UNL     1      43.884 -17.370   6.126  1.00  0.00     0.149 A 
ENDBRANCH  13  14
ENDBRANCH   9  13
ENDBRANCH   1   7
BRANCH   3  21
HETATM   21  C   UNL     1      45.156  -9.717   9.940  1.00  0.00     0.206 C 
BRANCH  21  22
HETATM   22  O   UNL     1      43.951  -9.864  10.689  1.00  0.00    -0.381 OA
BRANCH  22  23
HETATM   23  C   UNL     1      43.301  -8.619  10.963  1.00  0.00     0.121 C 
HETATM   24  C   UNL     1      41.852  -8.654  10.461  1.00  0.00     0.032 C 
HETATM   25  C   UNL     1      40.999  -9.668  11.223  1.00  0.00     0.002 C 
HETATM   26  C   UNL     1      41.053  -9.434  12.729  1.00  0.00     0.000 C 
HETATM   27  C   UNL     1      42.491  -9.408  13.242  1.00  0.00     0.002 C 
HETATM   28  C   UNL     1      43.342  -8.394  12.479  1.00  0.00     0.032 C 
ENDBRANCH  22  23
ENDBRANCH  21  22
ENDBRANCH   3  21
TORSDOF 6
ENDMDL
MODEL 6
REMARK VINA RESULT:      -7.6      1.721      2.742
REMARK  6 active torsions:
REMARK  status: ('A' for Active; 'I' for Inactive)
REMARK    1  A    between atoms: C_7  and  C_8 
REMARK    2  A    between atoms: C_8  and  N_9 
REMARK       I    between atoms: N_9  and  C_10 
REMARK       I    between atoms: C_10  and  N_11 
REMARK    3  A    between atoms: N_11  and  C_12 
REMARK    4  A    between atoms: C_14  and  C_15 
REMARK    5  A    between atoms: C_15  and  O_16 
REMARK    6  A    between atoms: O_16  and  C_17 
ROOT
HETATM    1  C   UNL     1      42.261 -14.157   4.917  1.00  0.00     0.036 A 
HETATM    2  C   UNL     1      42.937 -12.932   4.951  1.00  0.00     0.038 A 
HETATM    3  C   UNL     1      43.619 -12.519   6.110  1.00  0.00    -0.032 A 
HETATM    4  C   UNL     1      43.628 -13.355   7.235  1.00  0.00     0.009 A 
HETATM    5  C   UNL     1      42.985 -14.588   7.200  1.00  0.00     0.003 A 
HETATM    6  C   UNL     1      42.311 -14.985   6.047  1.00  0.00     0.029 A 
ENDROOT
BRANCH   1   7
HETATM    7  N   UNL     1      41.558 -14.662   3.810  1.00  0.00    -0.309 N 
HETATM    8  C   UNL     1      41.765 -15.689   2.946  1.00  0.00     0.320 C 
HETATM    9  N   UNL     1      42.983 -16.287   2.931  1.00  0.00    -0.339 N 
HETATM   10  O   UNL     1      40.858 -16.010   2.180  1.00  0.00    -0.247 OA
HETATM   11  H   UNL     1      43.752 -15.669   3.143  1.00  0.00     0.164 HD
HETATM   12  H   UNL     1      40.676 -14.209   3.602  1.00  0.00     0.170 HD
BRANCH   9  13
HETATM   13  C   UNL     1      43.250 -17.311   1.950  1.00  0.00     0.166 C 
BRANCH  13  14
HETATM   14  C   UNL     1      43.529 -18.592   2.645  1.00  0.00     0.003 A 
HETATM   15  C   UNL     1      43.991 -18.792   3.938  1.00  0.00     0.035 A 
HETATM   16  C   UNL     1      44.382 -17.813   4.986  1.00  0.00     0.070 C 
HETATM   17  N   UNL     1      44.001 -20.152   4.125  1.00  0.00    -0.278 N 
HETATM   18  C   UNL     1      44.315 -20.890   5.325  1.00  0.00     0.179 C 
HETATM   19  N   UNL     1      43.636 -20.841   3.028  1.00  0.00    -0.185 NA
HETATM   20  C   UNL     1      43.333 -19.895   2.141  1.00  0.00     0.149 A 
ENDBRANCH  13  14
ENDBRANCH   9  13
ENDBRANCH   1   7
BRANCH   3  21
HETATM   21  C   UNL     1      44.309 -11.179   6.168  1.00  0.00     0.206 C 
BRANCH  21  22
HETATM   22  O   UNL     1      44.684 -10.904   7.516  1.00  0.00    -0.381 OA
BRANCH  22  23
HETATM   23  C   UNL     1      44.760  -9.504   7.807  1.00  0.00     0.121 C 
HETATM   24  C   UNL     1      43.393  -8.981   8.267  1.00  0.00     0.032 C 
HETATM   25  C   UNL     1      42.956  -9.592   9.599  1.00  0.00     0.002 C 
HETATM   26  C   UNL     1      44.012  -9.396  10.682  1.00  0.00     0.000 C 
HETATM   27  C   UNL     1      45.374  -9.924  10.240  1.00  0.00     0.002 C 
HETATM   28  C   UNL     1      45.809  -9.312   8.908  1.00  0.00     0.032 C 
ENDBRANCH  22  23
ENDBRANCH  21  22
ENDBRANCH   3  21
TORSDOF 6
ENDMDL
MODEL 7
REMARK VINA RESULT:      -7.6      3.220      9.169
REMARK  6 active torsions:
REMARK  status: ('A' for Active; 'I' for Inactive)
REMARK    1  A    between atoms: C_7  and  C_8 
REMARK    2  A    between atoms: C_8  and  N_9 
REMARK       I    between atoms: N_9  and  C_10 
REMARK       I    between atoms: C_10  and  N_11 
REMARK    3  A    between atoms: N_11  and  C_12 
REMARK    4  A    between atoms: C_14  and  C_15 
REMARK    5  A    between atoms: C_15  and  O_16 
REMARK    6  A    between atoms: O_16  and  C_17 
ROOT
HETATM    1  C   UNL     1      44.762 -11.636   6.163  1.00  0.00     0.036 A 
HETATM    2  C   UNL     1      44.453 -12.835   6.813  1.00  0.00     0.038 A 
HETATM    3  C   UNL     1      43.532 -13.741   6.254  1.00  0.00    -0.032 A 
HETATM    4  C   UNL     1      42.932 -13.435   5.024  1.00  0.00     0.009 A 
HETATM    5  C   UNL     1      43.256 -12.259   4.356  1.00  0.00     0.003 A 
HETATM    6  C   UNL     1      44.168 -11.370   4.922  1.00  0.00     0.029 A 
ENDROOT
BRANCH   1   7
HETATM    7  N   UNL     1      45.671 -10.672   6.633  1.00  0.00    -0.309 N 
HETATM    8  C   UNL     1      45.654  -9.770   7.649  1.00  0.00     0.320 C 
HETATM    9  N   UNL     1      44.475  -9.521   8.273  1.00  0.00    -0.339 N 
HETATM   10  O   UNL     1      46.696  -9.183   7.936  1.00  0.00    -0.247 OA
HETATM   11  H   UNL     1      43.665  -9.594   7.677  1.00  0.00     0.164 HD
HETATM   12  H   UNL     1      46.565 -10.638   6.157  1.00  0.00     0.170 HD
BRANCH   9  13
HETATM   13  C   UNL     1      44.421  -8.494   9.285  1.00  0.00     0.166 C 
BRANCH  13  14
HETATM   14  C   UNL     1      43.872  -9.070  10.537  1.00  0.00     0.003 A 
HETATM   15  C   UNL     1      43.087  -8.455  11.502  1.00  0.00     0.035 A 
HETATM   16  C   UNL     1      42.601  -7.054  11.601  1.00  0.00     0.070 C 
HETATM   17  N   UNL     1      42.776  -9.435  12.411  1.00  0.00    -0.278 N 
HETATM   18  C   UNL     1      41.913  -9.347  13.565  1.00  0.00     0.179 C 
HETATM   19  N   UNL     1      43.353 -10.619  12.134  1.00  0.00    -0.185 NA
HETATM   20  C   UNL     1      43.999 -10.401  10.990  1.00  0.00     0.149 A 
ENDBRANCH  13  14
ENDBRANCH   9  13
ENDBRANCH   1   7
BRANCH   3  21
HETATM   21  C   UNL     1      43.159 -15.012   6.974  1.00  0.00     0.206 C 
BRANCH  21  22
HETATM   22  O   UNL     1      43.746 -16.122   6.297  1.00  0.00    -0.381 OA
BRANCH  22  23
HETATM   23  C   UNL     1      42.815 -17.175   6.026  1.00  0.00     0.121 C 
HETATM   24  C   UNL     1      41.951 -16.820   4.808  1.00  0.00     0.032 C 
HETATM   25  C   UNL     1      42.770 -16.738   3.520  1.00  0.00     0.002 C 
HETATM   26  C   UNL     1      43.567 -18.015   3.276  1.00  0.00     0.000 C 
HETATM   27  C   UNL     1      44.440 -18.371   4.476  1.00  0.00     0.002 C 
HETATM   28  C   UNL     1      43.619 -18.453   5.763  1.00  0.00     0.032 C 
ENDBRANCH  22  23
ENDBRANCH  21  22
ENDBRANCH   3  21
TORSDOF 6
ENDMDL
MODEL 8
REMARK VINA RESULT:      -7.6      2.899      8.166
REMARK  6 active torsions:
REMARK  status: ('A' for Active; 'I' for Inactive)
REMARK    1  A    between atoms: C_7  and  C_8 
REMARK    2  A    between atoms: C_8  and  N_9 
REMARK       I    between atoms: N_9  and  C_10 
REMARK       I    between atoms: C_10  and  N_11 
REMARK    3  A    between atoms: N_11  and  C_12 
REMARK    4  A    between atoms: C_14  and  C_15 
REMARK    5  A    between atoms: C_15  and  O_16 
REMARK    6  A    between atoms: O_16  and  C_17 
ROOT
HETATM    1  C   UNL     1      40.884 -14.918   3.543  1.00  0.00     0.036 A 
HETATM    2  C   UNL     1      41.764 -16.005   3.551  1.00  0.00     0.038 A 
HETATM    3  C   UNL     1      42.429 -16.402   2.376  1.00  0.00    -0.032 A 
HETATM    4  C   UNL     1      42.211 -15.687   1.190  1.00  0.00     0.009 A 
HETATM    5  C   UNL     1      41.360 -14.586   1.179  1.00  0.00     0.003 A 
HETATM    6  C   UNL     1      40.707 -14.204   2.350  1.00  0.00     0.029 A 
ENDROOT
BRANCH   1   7
HETATM    7  N   UNL     1      40.179 -14.439   4.661  1.00  0.00    -0.309 N 
HETATM    8  C   UNL     1      40.277 -13.329   5.437  1.00  0.00     0.320 C 
HETATM    9  N   UNL     1      41.387 -12.557   5.325  1.00  0.00    -0.339 N 
HETATM   10  O   UNL     1      39.379 -13.089   6.242  1.00  0.00    -0.247 OA
HETATM   11  H   UNL     1      42.227 -13.067   5.101  1.00  0.00     0.164 HD
HETATM   12  H   UNL     1      39.392 -15.002   4.961  1.00  0.00     0.170 HD
BRANCH   9  13
HETATM   13  C   UNL     1      41.552 -11.431   6.213  1.00  0.00     0.166 C 
BRANCH  13  14
HETATM   14  C   UNL     1      42.986 -11.294   6.566  1.00  0.00     0.003 A 
HETATM   15  C   UNL     1      43.604 -10.295   7.305  1.00  0.00     0.035 A 
HETATM   16  C   UNL     1      43.044  -9.063   7.919  1.00  0.00     0.070 C 
HETATM   17  N   UNL     1      44.919 -10.672   7.418  1.00  0.00    -0.278 N 
HETATM   18  C   UNL     1      45.976 -10.029   8.162  1.00  0.00     0.179 C 
HETATM   19  N   UNL     1      45.204 -11.808   6.756  1.00  0.00    -0.185 NA
HETATM   20  C   UNL     1      44.030 -12.193   6.257  1.00  0.00     0.149 A 
ENDBRANCH  13  14
ENDBRANCH   9  13
ENDBRANCH   1   7
BRANCH   3  21
HETATM   21  C   UNL     1      43.342 -17.603   2.369  1.00  0.00     0.206 C 
BRANCH  21  22
HETATM   22  O   UNL     1      43.179 -18.320   3.591  1.00  0.00    -0.381 OA
BRANCH  22  23
HETATM   23  C   UNL     1      44.396 -18.461   4.330  1.00  0.00     0.121 C 
HETATM   24  C   UNL     1      44.411 -17.491   5.519  1.00  0.00     0.032 C 
HETATM   25  C   UNL     1      43.335 -17.824   6.552  1.00  0.00     0.002 C 
HETATM   26  C   UNL     1      43.432 -19.271   7.022  1.00  0.00     0.000 C 
HETATM   27  C   UNL     1      43.407 -20.246   5.848  1.00  0.00     0.002 C 
HETATM   28  C   UNL     1      44.484 -19.912   4.816  1.00  0.00     0.032 C 
ENDBRANCH  22  23
ENDBRANCH  21  22
ENDBRANCH   3  21
TORSDOF 6
ENDMDL
MODEL 9
REMARK VINA RESULT:      -7.6      3.088      7.704
REMARK  6 active torsions:
REMARK  status: ('A' for Active; 'I' for Inactive)
REMARK    1  A    between atoms: C_7  and  C_8 
REMARK    2  A    between atoms: C_8  and  N_9 
REMARK       I    between atoms: N_9  and  C_10 
REMARK       I    between atoms: C_10  and  N_11 
REMARK    3  A    between atoms: N_11  and  C_12 
REMARK    4  A    between atoms: C_14  and  C_15 
REMARK    5  A    between atoms: C_15  and  O_16 
REMARK    6  A    between atoms: O_16  and  C_17 
ROOT
HETATM    1  C   UNL     1      43.534 -17.405   5.197  1.00  0.00     0.036 A 
HETATM    2  C   UNL     1      43.284 -16.663   4.038  1.00  0.00     0.038 A 
HETATM    3  C   UNL     1      43.438 -17.242   2.765  1.00  0.00    -0.032 A 
HETATM    4  C   UNL     1      43.835 -18.583   2.665  1.00  0.00     0.009 A 
HETATM    5  C   UNL     1      44.056 -19.338   3.813  1.00  0.00     0.003 A 
HETATM    6  C   UNL     1      43.902 -18.752   5.068  1.00  0.00     0.029 A 
ENDROOT
BRANCH   1   7
HETATM    7  N   UNL     1      43.402 -16.923   6.511  1.00  0.00    -0.309 N 
HETATM    8  C   UNL     1      43.302 -15.685   7.059  1.00  0.00     0.320 C 
HETATM    9  N   UNL     1      43.588 -14.609   6.285  1.00  0.00    -0.339 N 
HETATM   10  O   UNL     1      42.999 -15.587   8.248  1.00  0.00    -0.247 OA
HETATM   11  H   UNL     1      44.299 -14.774   5.589  1.00  0.00     0.164 HD
HETATM   12  H   UNL     1      43.323 -17.629   7.234  1.00  0.00     0.170 HD
BRANCH   9  13
HETATM   13  C   UNL     1      43.584 -13.294   6.880  1.00  0.00     0.166 C 
BRANCH  13  14
HETATM   14  C   UNL     1      43.107 -12.307   5.880  1.00  0.00     0.003 A 
HETATM   15  C   UNL     1      41.803 -11.925   5.595  1.00  0.00     0.035 A 
HETATM   16  C   UNL     1      40.513 -12.402   6.156  1.00  0.00     0.070 C 
HETATM   17  N   UNL     1      41.904 -10.927   4.658  1.00  0.00    -0.278 N 
HETATM   18  C   UNL     1      40.848 -10.127   4.084  1.00  0.00     0.179 C 
HETATM   19  N   UNL     1      43.171 -10.683   4.275  1.00  0.00    -0.185 NA
HETATM   20  C   UNL     1      43.898 -11.505   5.030  1.00  0.00     0.149 A 
ENDBRANCH  13  14
ENDBRANCH   9  13
ENDBRANCH   1   7
BRANCH   3  21
HETATM   21  C   UNL     1      43.216 -16.432   1.512  1.00  0.00     0.206 C 
BRANCH  21  22
HETATM   22  O   UNL     1      42.400 -15.304   1.824  1.00  0.00    -0.381 OA
BRANCH  22  23
HETATM   23  C   UNL     1      41.145 -15.307   1.135  1.00  0.00     0.121 C 
HETATM   24  C   UNL     1      40.009 -15.660   2.103  1.00  0.00     0.032 C 
HETATM   25  C   UNL     1      39.813 -14.595   3.182  1.00  0.00     0.002 C 
HETATM   26  C   UNL     1      39.609 -13.210   2.576  1.00  0.00     0.000 C 
HETATM   27  C   UNL     1      40.740 -12.842   1.620  1.00  0.00     0.002 C 
HETATM   28  C   UNL     1      40.934 -13.909   0.543  1.00  0.00     0.032 C 
ENDBRANCH  22  23
ENDBRANCH  21  22
ENDBRANCH   3  21
TORSDOF 6
ENDMDL
MODEL 10
REMARK VINA RESULT:      -7.5      3.224      8.903
REMARK  6 active torsions:
REMARK  status: ('A' for Active; 'I' for Inactive)
REMARK    1  A    between atoms: C_7  and  C_8 
REMARK    2  A    between atoms: C_8  and  N_9 
REMARK       I    between atoms: N_9  and  C_10 
REMARK       I    between atoms: C_10  and  N_11 
REMARK    3  A    between atoms: N_11  and  C_12 
REMARK    4  A    between atoms: C_14  and  C_15 
REMARK    5  A    between atoms: C_15  and  O_16 
REMARK    6  A    between atoms: O_16  and  C_17 
ROOT
HETATM    1  C   UNL     1      43.910 -11.990   6.318  1.00  0.00     0.036 A 
HETATM    2  C   UNL     1      42.821 -12.836   6.087  1.00  0.00     0.038 A 
HETATM    3  C   UNL     1      42.339 -13.048   4.781  1.00  0.00    -0.032 A 
HETATM    4  C   UNL     1      42.971 -12.409   3.706  1.00  0.00     0.009 A 
HETATM    5  C   UNL     1      44.075 -11.591   3.924  1.00  0.00     0.003 A 
HETATM    6  C   UNL     1      44.541 -11.388   5.221  1.00  0.00     0.029 A 
ENDROOT
BRANCH   1   7
HETATM    7  N   UNL     1      44.471 -11.720   7.579  1.00  0.00    -0.309 N 
HETATM    8  C   UNL     1      44.165 -10.862   8.587  1.00  0.00     0.320 C 
HETATM    9  N   UNL     1      43.276  -9.868   8.343  1.00  0.00    -0.339 N 
HETATM   10  O   UNL     1      44.736 -10.993   9.668  1.00  0.00    -0.247 OA
HETATM   11  H   UNL     1      43.293  -9.517   7.397  1.00  0.00     0.164 HD
HETATM   12  H   UNL     1      45.257 -12.300   7.847  1.00  0.00     0.170 HD
BRANCH   9  13
HETATM   13  C   UNL     1      43.017  -8.889   9.371  1.00  0.00     0.166 C 
BRANCH  13  14
HETATM   14  C   UNL     1      41.809  -9.290  10.134  1.00  0.00     0.003 A 
HETATM   15  C   UNL     1      41.728  -9.794  11.425  1.00  0.00     0.035 A 
HETATM   16  C   UNL     1      42.798 -10.119  12.403  1.00  0.00     0.070 C 
HETATM   17  N   UNL     1      40.388  -9.924  11.691  1.00  0.00    -0.278 N 
HETATM   18  C   UNL     1      39.753 -10.324  12.925  1.00  0.00     0.179 C 
HETATM   19  N   UNL     1      39.604  -9.599  10.647  1.00  0.00    -0.185 NA
HETATM   20  C   UNL     1      40.465  -9.198   9.712  1.00  0.00     0.149 A 
ENDBRANCH  13  14
ENDBRANCH   9  13
ENDBRANCH   1   7
BRANCH   3  21
HETATM   21  C   UNL     1      41.134 -13.921   4.531  1.00  0.00     0.206 C 
BRANCH  21  22
HETATM   22  O   UNL     1      41.384 -14.747   3.396  1.00  0.00    -0.381 OA
BRANCH  22  23
HETATM   23  C   UNL     1      41.057 -16.123   3.616  1.00  0.00     0.121 C 
HETATM   24  C   UNL     1      41.456 -16.966   2.397  1.00  0.00     0.032 C 
HETATM   25  C   UNL     1      42.970 -16.996   2.184  1.00  0.00     0.002 C 
HETATM   26  C   UNL     1      43.707 -17.458   3.437  1.00  0.00     0.000 C 
HETATM   27  C   UNL     1      43.327 -16.619   4.653  1.00  0.00     0.002 C 
HETATM   28  C   UNL     1      41.813 -16.590   4.865  1.00  0.00     0.032 C 
ENDBRANCH  22  23
ENDBRANCH  21  22
ENDBRANCH   3  21
TORSDOF 6
ENDMDL
