MODEL 1
REMARK VINA RESULT:      -8.0      0.000      0.000
REMARK  5 active torsions:
REMARK  status: ('A' for Active; 'I' for Inactive)
REMARK    1  A    between atoms: C_3  and  O_4 
REMARK    2  A    between atoms: C_5  and  C_6 
REMARK       I    between atoms: C_6  and  N_7 
REMARK    3  A    between atoms: N_7  and  C_8 
REMARK    4  A    between atoms: C_8  and  C_9 
REMARK    5  A    between atoms: C_9  and  C_10 
ROOT
HETATM    1  C   UNL     1      40.292 -14.536   1.075  1.00  0.00     0.254 C 
HETATM    2  N   UNL     1      41.034 -15.690   1.150  1.00  0.00    -0.356 N 
HETATM    3  O   UNL     1      39.882 -13.953   2.075  1.00  0.00    -0.268 OA
HETATM    4  H   UNL     1      41.205 -16.181   0.274  1.00  0.00     0.162 HD
ENDROOT
BRANCH   2   5
HETATM    5  C   UNL     1      41.305 -16.354   2.407  1.00  0.00     0.136 C 
BRANCH   5   6
HETATM    6  C   UNL     1      42.822 -16.442   2.748  1.00  0.00    -0.004 C 
HETATM    7  C   UNL     1      43.615 -15.819   1.574  1.00  0.00     0.021 C 
HETATM    8  C   UNL     1      43.095 -15.564   3.991  1.00  0.00     0.021 C 
BRANCH   6   9
HETATM    9  C   UNL     1      43.233 -17.893   3.070  1.00  0.00    -0.046 A 
HETATM   10  C   UNL     1      43.825 -18.263   4.284  1.00  0.00     0.027 A 
HETATM   11  C   UNL     1      44.180 -19.591   4.494  1.00  0.00     0.116 A 
HETATM   12  N   UNL     1      43.996 -20.573   3.591  1.00  0.00    -0.273 NA
HETATM   13  C   UNL     1      43.416 -20.214   2.430  1.00  0.00     0.116 A 
HETATM   14  C   UNL     1      43.025 -18.916   2.131  1.00  0.00     0.027 A 
ENDBRANCH   6   9
ENDBRANCH   5   6
ENDBRANCH   2   5
BRANCH   1  15
HETATM   15  C   UNL     1      40.003 -13.998  -0.296  1.00  0.00     0.065 A 
HETATM   16  C   UNL     1      39.279 -14.685  -1.291  1.00  0.00     0.087 A 
HETATM   17  C   UNL     1      39.110 -14.130  -2.573  1.00  0.00    -0.028 A 
HETATM   18  C   UNL     1      38.390 -14.849  -3.681  1.00  0.00     0.051 C 
HETATM   19  C   UNL     1      39.616 -12.845  -2.826  1.00  0.00     0.009 A 
HETATM   20  C   UNL     1      40.302 -12.142  -1.839  1.00  0.00     0.002 A 
HETATM   21  C   UNL     1      40.502 -12.719  -0.586  1.00  0.00     0.020 A 
BRANCH  16  22
HETATM   22  O   UNL     1      38.728 -15.910  -1.004  1.00  0.00    -0.359 OA
HETATM   23  H   UNL     1      38.935 -16.138  -0.080  1.00  0.00     0.218 HD
ENDBRANCH  16  22
ENDBRANCH   1  15
TORSDOF 5
ENDMDL
MODEL 2
REMARK VINA RESULT:      -7.8      0.900      2.040
REMARK  5 active torsions:
REMARK  status: ('A' for Active; 'I' for Inactive)
REMARK    1  A    between atoms: C_3  and  O_4 
REMARK    2  A    between atoms: C_5  and  C_6 
REMARK       I    between atoms: C_6  and  N_7 
REMARK    3  A    between atoms: N_7  and  C_8 
REMARK    4  A    between atoms: C_8  and  C_9 
REMARK    5  A    between atoms: C_9  and  C_10 
ROOT
HETATM    1  C   UNL     1      40.287 -14.522   0.973  1.00  0.00     0.254 C 
HETATM    2  N   UNL     1      41.029 -15.670   1.122  1.00  0.00    -0.356 N 
HETATM    3  O   UNL     1      39.860 -13.887   1.934  1.00  0.00    -0.268 OA
HETATM    4  H   UNL     1      41.214 -16.207   0.277  1.00  0.00     0.162 HD
ENDROOT
BRANCH   2   5
HETATM    5  C   UNL     1      41.281 -16.265   2.418  1.00  0.00     0.136 C 
BRANCH   5   6
HETATM    6  C   UNL     1      42.794 -16.358   2.774  1.00  0.00    -0.004 C 
HETATM    7  C   UNL     1      43.598 -15.692   1.631  1.00  0.00     0.021 C 
HETATM    8  C   UNL     1      43.047 -15.521   4.049  1.00  0.00     0.021 C 
BRANCH   6   9
HETATM    9  C   UNL     1      43.207 -17.816   3.052  1.00  0.00    -0.046 A 
HETATM   10  C   UNL     1      43.011 -18.852   2.128  1.00  0.00     0.027 A 
HETATM   11  C   UNL     1      43.398 -20.145   2.459  1.00  0.00     0.116 A 
HETATM   12  N   UNL     1      43.960 -20.488   3.634  1.00  0.00    -0.273 NA
HETATM   13  C   UNL     1      44.158 -19.487   4.514  1.00  0.00     0.116 A 
HETATM   14  C   UNL     1      43.807 -18.166   4.273  1.00  0.00     0.027 A 
ENDBRANCH   6   9
ENDBRANCH   5   6
ENDBRANCH   2   5
BRANCH   1  15
HETATM   15  C   UNL     1      40.019 -14.060  -0.429  1.00  0.00     0.065 A 
HETATM   16  C   UNL     1      40.390 -12.801  -0.942  1.00  0.00     0.087 A 
HETATM   17  C   UNL     1      40.042 -12.426  -2.254  1.00  0.00    -0.028 A 
HETATM   18  C   UNL     1      40.370 -11.074  -2.826  1.00  0.00     0.051 C 
HETATM   19  C   UNL     1      39.379 -13.356  -3.070  1.00  0.00     0.009 A 
HETATM   20  C   UNL     1      39.039 -14.616  -2.584  1.00  0.00     0.002 A 
HETATM   21  C   UNL     1      39.349 -14.962  -1.270  1.00  0.00     0.020 A 
BRANCH  16  22
HETATM   22  O   UNL     1      41.102 -11.931  -0.154  1.00  0.00    -0.359 OA
HETATM   23  H   UNL     1      41.351 -11.156  -0.688  1.00  0.00     0.218 HD
ENDBRANCH  16  22
ENDBRANCH   1  15
TORSDOF 5
ENDMDL
MODEL 3
REMARK VINA RESULT:      -7.7      4.497      7.405
REMARK  5 active torsions:
REMARK  status: ('A' for Active; 'I' for Inactive)
REMARK    1  A    between atoms: C_3  and  O_4 
REMARK    2  A    between atoms: C_5  and  C_6 
REMARK       I    between atoms: C_6  and  N_7 
REMARK    3  A    between atoms: N_7  and  C_8 
REMARK    4  A    between atoms: C_8  and  C_9 
REMARK    5  A    between atoms: C_9  and  C_10 
ROOT
HETATM    1  C   UNL     1      42.885 -16.466   3.368  1.00  0.00     0.254 C 
HETATM    2  N   UNL     1      41.910 -16.062   4.248  1.00  0.00    -0.356 N 
HETATM    3  O   UNL     1      43.486 -15.674   2.646  1.00  0.00    -0.268 OA
HETATM    4  H   UNL     1      41.367 -16.797   4.697  1.00  0.00     0.162 HD
ENDROOT
BRANCH   2   5
HETATM    5  C   UNL     1      41.453 -14.690   4.320  1.00  0.00     0.136 C 
BRANCH   5   6
HETATM    6  C   UNL     1      41.666 -14.038   5.719  1.00  0.00    -0.004 C 
HETATM    7  C   UNL     1      40.340 -13.359   6.138  1.00  0.00     0.021 C 
HETATM    8  C   UNL     1      41.939 -15.163   6.744  1.00  0.00     0.021 C 
BRANCH   6   9
HETATM    9  C   UNL     1      42.873 -13.081   5.704  1.00  0.00    -0.046 A 
HETATM   10  C   UNL     1      43.734 -12.926   6.799  1.00  0.00     0.027 A 
HETATM   11  C   UNL     1      44.794 -12.031   6.713  1.00  0.00     0.116 A 
HETATM   12  N   UNL     1      45.061 -11.278   5.628  1.00  0.00    -0.273 NA
HETATM   13  C   UNL     1      44.238 -11.440   4.574  1.00  0.00     0.116 A 
HETATM   14  C   UNL     1      43.157 -12.310   4.565  1.00  0.00     0.027 A 
ENDBRANCH   6   9
ENDBRANCH   5   6
ENDBRANCH   2   5
BRANCH   1  15
HETATM   15  C   UNL     1      43.202 -17.932   3.326  1.00  0.00     0.065 A 
HETATM   16  C   UNL     1      43.661 -18.684   4.426  1.00  0.00     0.087 A 
HETATM   17  C   UNL     1      43.995 -20.045   4.281  1.00  0.00    -0.028 A 
HETATM   18  C   UNL     1      44.537 -20.872   5.413  1.00  0.00     0.051 C 
HETATM   19  C   UNL     1      43.796 -20.660   3.035  1.00  0.00     0.009 A 
HETATM   20  C   UNL     1      43.310 -19.934   1.951  1.00  0.00     0.002 A 
HETATM   21  C   UNL     1      43.024 -18.578   2.094  1.00  0.00     0.020 A 
BRANCH  16  22
HETATM   22  O   UNL     1      43.780 -18.084   5.656  1.00  0.00    -0.359 OA
HETATM   23  H   UNL     1      42.966 -18.245   6.163  1.00  0.00     0.218 HD
ENDBRANCH  16  22
ENDBRANCH   1  15
TORSDOF 5
ENDMDL
MODEL 4
REMARK VINA RESULT:      -7.5      2.357      7.624
REMARK  5 active torsions:
REMARK  status: ('A' for Active; 'I' for Inactive)
REMARK    1  A    between atoms: C_3  and  O_4 
REMARK    2  A    between atoms: C_5  and  C_6 
REMARK       I    between atoms: C_6  and  N_7 
REMARK    3  A    between atoms: N_7  and  C_8 
REMARK    4  A    between atoms: C_8  and  C_9 
REMARK    5  A    between atoms: C_9  and  C_10 
ROOT
HETATM    1  C   UNL     1      43.047 -16.612   2.939  1.00  0.00     0.254 C 
HETATM    2  N   UNL     1      42.259 -16.220   1.884  1.00  0.00    -0.356 N 
HETATM    3  O   UNL     1      43.519 -15.810   3.740  1.00  0.00    -0.268 OA
HETATM    4  H   UNL     1      42.034 -16.932   1.192  1.00  0.00     0.162 HD
ENDROOT
BRANCH   2   5
HETATM    5  C   UNL     1      42.005 -14.826   1.585  1.00  0.00     0.136 C 
BRANCH   5   6
HETATM    6  C   UNL     1      40.526 -14.401   1.820  1.00  0.00    -0.004 C 
HETATM    7  C   UNL     1      39.756 -15.625   2.371  1.00  0.00     0.021 C 
HETATM    8  C   UNL     1      40.499 -13.318   2.923  1.00  0.00     0.021 C 
BRANCH   6   9
HETATM    9  C   UNL     1      39.910 -13.810   0.536  1.00  0.00    -0.046 A 
HETATM   10  C   UNL     1      39.434 -12.495   0.456  1.00  0.00     0.027 A 
HETATM   11  C   UNL     1      38.879 -12.041  -0.734  1.00  0.00     0.116 A 
HETATM   12  N   UNL     1      38.759 -12.791  -1.847  1.00  0.00    -0.273 NA
HETATM   13  C   UNL     1      39.229 -14.051  -1.769  1.00  0.00     0.116 A 
HETATM   14  C   UNL     1      39.801 -14.592  -0.626  1.00  0.00     0.027 A 
ENDBRANCH   6   9
ENDBRANCH   5   6
ENDBRANCH   2   5
BRANCH   1  15
HETATM   15  C   UNL     1      43.308 -18.083   3.086  1.00  0.00     0.065 A 
HETATM   16  C   UNL     1      43.714 -18.709   4.281  1.00  0.00     0.087 A 
HETATM   17  C   UNL     1      43.998 -20.088   4.312  1.00  0.00    -0.028 A 
HETATM   18  C   UNL     1      44.484 -20.789   5.552  1.00  0.00     0.051 C 
HETATM   19  C   UNL     1      43.803 -20.845   3.147  1.00  0.00     0.009 A 
HETATM   20  C   UNL     1      43.368 -20.242   1.969  1.00  0.00     0.002 A 
HETATM   21  C   UNL     1      43.132 -18.869   1.937  1.00  0.00     0.020 A 
BRANCH  16  22
HETATM   22  O   UNL     1      43.830 -17.966   5.430  1.00  0.00    -0.359 OA
HETATM   23  H   UNL     1      44.287 -18.500   6.104  1.00  0.00     0.218 HD
ENDBRANCH  16  22
ENDBRANCH   1  15
TORSDOF 5
ENDMDL
MODEL 5
REMARK VINA RESULT:      -7.5      3.659      7.126
REMARK  5 active torsions:
REMARK  status: ('A' for Active; 'I' for Inactive)
REMARK    1  A    between atoms: C_3  and  O_4 
REMARK    2  A    between atoms: C_5  and  C_6 
REMARK       I    between atoms: C_6  and  N_7 
REMARK    3  A    between atoms: N_7  and  C_8 
REMARK    4  A    between atoms: C_8  and  C_9 
REMARK    5  A    between atoms: C_9  and  C_10 
ROOT
HETATM    1  C   UNL     1      43.886 -17.180   5.693  1.00  0.00     0.254 C 
HETATM    2  N   UNL     1      42.676 -16.545   5.840  1.00  0.00    -0.356 N 
HETATM    3  O   UNL     1      44.936 -16.695   6.103  1.00  0.00    -0.268 OA
HETATM    4  H   UNL     1      41.884 -16.948   5.343  1.00  0.00     0.162 HD
ENDROOT
BRANCH   2   5
HETATM    5  C   UNL     1      42.565 -15.215   6.402  1.00  0.00     0.136 C 
BRANCH   5   6
HETATM    6  C   UNL     1      41.666 -14.260   5.563  1.00  0.00    -0.004 C 
HETATM    7  C   UNL     1      40.232 -14.319   6.141  1.00  0.00     0.021 C 
HETATM    8  C   UNL     1      42.172 -12.813   5.763  1.00  0.00     0.021 C 
BRANCH   6   9
HETATM    9  C   UNL     1      41.742 -14.605   4.063  1.00  0.00    -0.046 A 
HETATM   10  C   UNL     1      40.789 -15.404   3.417  1.00  0.00     0.027 A 
HETATM   11  C   UNL     1      40.935 -15.682   2.063  1.00  0.00     0.116 A 
HETATM   12  N   UNL     1      41.954 -15.233   1.305  1.00  0.00    -0.273 NA
HETATM   13  C   UNL     1      42.862 -14.456   1.928  1.00  0.00     0.116 A 
HETATM   14  C   UNL     1      42.799 -14.122   3.273  1.00  0.00     0.027 A 
ENDBRANCH   6   9
ENDBRANCH   5   6
ENDBRANCH   2   5
BRANCH   1  15
HETATM   15  C   UNL     1      43.875 -18.516   5.010  1.00  0.00     0.065 A 
HETATM   16  C   UNL     1      43.774 -18.704   3.617  1.00  0.00     0.087 A 
HETATM   17  C   UNL     1      43.708 -19.999   3.067  1.00  0.00    -0.028 A 
HETATM   18  C   UNL     1      43.547 -20.246   1.592  1.00  0.00     0.051 C 
HETATM   19  C   UNL     1      43.816 -21.104   3.924  1.00  0.00     0.009 A 
HETATM   20  C   UNL     1      43.952 -20.930   5.299  1.00  0.00     0.002 A 
HETATM   21  C   UNL     1      43.973 -19.645   5.838  1.00  0.00     0.020 A 
BRANCH  16  22
HETATM   22  O   UNL     1      43.742 -17.611   2.786  1.00  0.00    -0.359 OA
HETATM   23  H   UNL     1      43.227 -17.836   1.992  1.00  0.00     0.218 HD
ENDBRANCH  16  22
ENDBRANCH   1  15
TORSDOF 5
ENDMDL
MODEL 6
REMARK VINA RESULT:      -7.5      4.734      7.616
REMARK  5 active torsions:
REMARK  status: ('A' for Active; 'I' for Inactive)
REMARK    1  A    between atoms: C_3  and  O_4 
REMARK    2  A    between atoms: C_5  and  C_6 
REMARK       I    between atoms: C_6  and  N_7 
REMARK    3  A    between atoms: N_7  and  C_8 
REMARK    4  A    between atoms: C_8  and  C_9 
REMARK    5  A    between atoms: C_9  and  C_10 
ROOT
HETATM    1  C   UNL     1      43.620 -17.250   5.794  1.00  0.00     0.254 C 
HETATM    2  N   UNL     1      42.360 -16.722   5.940  1.00  0.00    -0.356 N 
HETATM    3  O   UNL     1      44.620 -16.694   6.240  1.00  0.00    -0.268 OA
HETATM    4  H   UNL     1      41.612 -17.172   5.416  1.00  0.00     0.162 HD
ENDROOT
BRANCH   2   5
HETATM    5  C   UNL     1      42.130 -15.426   6.543  1.00  0.00     0.136 C 
BRANCH   5   6
HETATM    6  C   UNL     1      41.705 -14.331   5.520  1.00  0.00    -0.004 C 
HETATM    7  C   UNL     1      41.336 -15.034   4.191  1.00  0.00     0.021 C 
HETATM    8  C   UNL     1      40.419 -13.649   6.040  1.00  0.00     0.021 C 
BRANCH   6   9
HETATM    9  C   UNL     1      42.804 -13.261   5.368  1.00  0.00    -0.046 A 
HETATM   10  C   UNL     1      43.674 -12.912   6.409  1.00  0.00     0.027 A 
HETATM   11  C   UNL     1      44.631 -11.926   6.198  1.00  0.00     0.116 A 
HETATM   12  N   UNL     1      44.786 -11.260   5.037  1.00  0.00    -0.273 NA
HETATM   13  C   UNL     1      43.955 -11.608   4.035  1.00  0.00     0.116 A 
HETATM   14  C   UNL     1      42.972 -12.581   4.150  1.00  0.00     0.027 A 
ENDBRANCH   6   9
ENDBRANCH   5   6
ENDBRANCH   2   5
BRANCH   1  15
HETATM   15  C   UNL     1      43.732 -18.558   5.068  1.00  0.00     0.065 A 
HETATM   16  C   UNL     1      43.679 -18.705   3.668  1.00  0.00     0.087 A 
HETATM   17  C   UNL     1      43.729 -19.980   3.073  1.00  0.00    -0.028 A 
HETATM   18  C   UNL     1      43.623 -20.188   1.587  1.00  0.00     0.051 C 
HETATM   19  C   UNL     1      43.903 -21.103   3.897  1.00  0.00     0.009 A 
HETATM   20  C   UNL     1      43.991 -20.967   5.279  1.00  0.00     0.002 A 
HETATM   21  C   UNL     1      43.897 -19.704   5.861  1.00  0.00     0.020 A 
BRANCH  16  22
HETATM   22  O   UNL     1      43.581 -17.589   2.873  1.00  0.00    -0.359 OA
HETATM   23  H   UNL     1      43.445 -16.811   3.441  1.00  0.00     0.218 HD
ENDBRANCH  16  22
ENDBRANCH   1  15
TORSDOF 5
ENDMDL
MODEL 7
REMARK VINA RESULT:      -7.4      2.756      7.418
REMARK  5 active torsions:
REMARK  status: ('A' for Active; 'I' for Inactive)
REMARK    1  A    between atoms: C_3  and  O_4 
REMARK    2  A    between atoms: C_5  and  C_6 
REMARK       I    between atoms: C_6  and  N_7 
REMARK    3  A    between atoms: N_7  and  C_8 
REMARK    4  A    between atoms: C_8  and  C_9 
REMARK    5  A    between atoms: C_9  and  C_10 
ROOT
HETATM    1  C   UNL     1      43.153 -16.647   2.974  1.00  0.00     0.254 C 
HETATM    2  N   UNL     1      42.443 -16.224   1.876  1.00  0.00    -0.356 N 
HETATM    3  O   UNL     1      43.582 -15.865   3.819  1.00  0.00    -0.268 OA
HETATM    4  H   UNL     1      42.254 -16.920   1.158  1.00  0.00     0.162 HD
ENDROOT
BRANCH   2   5
HETATM    5  C   UNL     1      42.233 -14.821   1.585  1.00  0.00     0.136 C 
BRANCH   5   6
HETATM    6  C   UNL     1      40.730 -14.432   1.458  1.00  0.00    -0.004 C 
HETATM    7  C   UNL     1      40.527 -13.740   0.088  1.00  0.00     0.021 C 
HETATM    8  C   UNL     1      39.891 -15.731   1.434  1.00  0.00     0.021 C 
BRANCH   6   9
HETATM    9  C   UNL     1      40.277 -13.575   2.656  1.00  0.00    -0.046 A 
HETATM   10  C   UNL     1      40.513 -13.944   3.987  1.00  0.00     0.027 A 
HETATM   11  C   UNL     1      40.061 -13.124   5.014  1.00  0.00     0.116 A 
HETATM   12  N   UNL     1      39.391 -11.971   4.820  1.00  0.00    -0.273 NA
HETATM   13  C   UNL     1      39.177 -11.615   3.538  1.00  0.00     0.116 A 
HETATM   14  C   UNL     1      39.593 -12.366   2.448  1.00  0.00     0.027 A 
ENDBRANCH   6   9
ENDBRANCH   5   6
ENDBRANCH   2   5
BRANCH   1  15
HETATM   15  C   UNL     1      43.379 -18.123   3.112  1.00  0.00     0.065 A 
HETATM   16  C   UNL     1      43.767 -18.767   4.304  1.00  0.00     0.087 A 
HETATM   17  C   UNL     1      44.020 -20.152   4.327  1.00  0.00    -0.028 A 
HETATM   18  C   UNL     1      44.486 -20.871   5.563  1.00  0.00     0.051 C 
HETATM   19  C   UNL     1      43.810 -20.897   3.156  1.00  0.00     0.009 A 
HETATM   20  C   UNL     1      43.393 -20.277   1.982  1.00  0.00     0.002 A 
HETATM   21  C   UNL     1      43.188 -18.898   1.958  1.00  0.00     0.020 A 
BRANCH  16  22
HETATM   22  O   UNL     1      43.897 -18.034   5.459  1.00  0.00    -0.359 OA
HETATM   23  H   UNL     1      44.220 -18.619   6.166  1.00  0.00     0.218 HD
ENDBRANCH  16  22
ENDBRANCH   1  15
TORSDOF 5
ENDMDL
MODEL 8
REMARK VINA RESULT:      -7.4      2.364      7.624
REMARK  5 active torsions:
REMARK  status: ('A' for Active; 'I' for Inactive)
REMARK    1  A    between atoms: C_3  and  O_4 
REMARK    2  A    between atoms: C_5  and  C_6 
REMARK       I    between atoms: C_6  and  N_7 
REMARK    3  A    between atoms: N_7  and  C_8 
REMARK    4  A    between atoms: C_8  and  C_9 
REMARK    5  A    between atoms: C_9  and  C_10 
ROOT
HETATM    1  C   UNL     1      43.034 -16.221   2.563  1.00  0.00     0.254 C 
HETATM    2  N   UNL     1      42.198 -15.133   2.641  1.00  0.00    -0.356 N 
HETATM    3  O   UNL     1      43.617 -16.528   1.526  1.00  0.00    -0.268 OA
HETATM    4  H   UNL     1      41.647 -15.040   3.492  1.00  0.00     0.162 HD
ENDROOT
BRANCH   2   5
HETATM    5  C   UNL     1      41.869 -14.326   1.484  1.00  0.00     0.136 C 
BRANCH   5   6
HETATM    6  C   UNL     1      40.361 -14.378   1.101  1.00  0.00    -0.004 C 
HETATM    7  C   UNL     1      39.817 -15.776   1.479  1.00  0.00     0.021 C 
HETATM    8  C   UNL     1      39.601 -13.350   1.970  1.00  0.00     0.021 C 
BRANCH   6   9
HETATM    9  C   UNL     1      40.155 -14.015  -0.383  1.00  0.00    -0.046 A 
HETATM   10  C   UNL     1      39.442 -14.830  -1.273  1.00  0.00     0.027 A 
HETATM   11  C   UNL     1      39.312 -14.441  -2.601  1.00  0.00     0.116 A 
HETATM   12  N   UNL     1      39.838 -13.310  -3.111  1.00  0.00    -0.273 NA
HETATM   13  C   UNL     1      40.513 -12.525  -2.249  1.00  0.00     0.116 A 
HETATM   14  C   UNL     1      40.693 -12.828  -0.907  1.00  0.00     0.027 A 
ENDBRANCH   6   9
ENDBRANCH   5   6
ENDBRANCH   2   5
BRANCH   1  15
HETATM   15  C   UNL     1      43.219 -17.029   3.813  1.00  0.00     0.065 A 
HETATM   16  C   UNL     1      43.770 -18.326   3.855  1.00  0.00     0.087 A 
HETATM   17  C   UNL     1      43.849 -19.037   5.068  1.00  0.00    -0.028 A 
HETATM   18  C   UNL     1      44.381 -20.442   5.151  1.00  0.00     0.051 C 
HETATM   19  C   UNL     1      43.433 -18.406   6.250  1.00  0.00     0.009 A 
HETATM   20  C   UNL     1      42.920 -17.112   6.225  1.00  0.00     0.002 A 
HETATM   21  C   UNL     1      42.806 -16.432   5.014  1.00  0.00     0.020 A 
BRANCH  16  22
HETATM   22  O   UNL     1      44.239 -18.901   2.699  1.00  0.00    -0.359 OA
HETATM   23  H   UNL     1      43.573 -19.528   2.369  1.00  0.00     0.218 HD
ENDBRANCH  16  22
ENDBRANCH   1  15
TORSDOF 5
ENDMDL
MODEL 9
REMARK VINA RESULT:      -7.3      4.562      7.470
REMARK  5 active torsions:
REMARK  status: ('A' for Active; 'I' for Inactive)
REMARK    1  A    between atoms: C_3  and  O_4 
REMARK    2  A    between atoms: C_5  and  C_6 
REMARK       I    between atoms: C_6  and  N_7 
REMARK    3  A    between atoms: N_7  and  C_8 
REMARK    4  A    between atoms: C_8  and  C_9 
REMARK    5  A    between atoms: C_9  and  C_10 
ROOT
HETATM    1  C   UNL     1      42.169 -14.959   4.157  1.00  0.00     0.254 C 
HETATM    2  N   UNL     1      42.765 -13.945   4.867  1.00  0.00    -0.356 N 
HETATM    3  O   UNL     1      41.090 -14.816   3.587  1.00  0.00    -0.268 OA
HETATM    4  H   UNL     1      43.580 -14.194   5.424  1.00  0.00     0.162 HD
ENDROOT
BRANCH   2   5
HETATM    5  C   UNL     1      42.121 -12.665   5.076  1.00  0.00     0.136 C 
BRANCH   5   6
HETATM    6  C   UNL     1      43.074 -11.450   4.872  1.00  0.00    -0.004 C 
HETATM    7  C   UNL     1      43.889 -11.690   3.579  1.00  0.00     0.021 C 
HETATM    8  C   UNL     1      42.212 -10.189   4.633  1.00  0.00     0.021 C 
BRANCH   6   9
HETATM    9  C   UNL     1      43.948 -11.219   6.120  1.00  0.00    -0.046 A 
HETATM   10  C   UNL     1      45.349 -11.260   6.086  1.00  0.00     0.027 A 
HETATM   11  C   UNL     1      46.067 -11.056   7.257  1.00  0.00     0.116 A 
HETATM   12  N   UNL     1      45.504 -10.818   8.458  1.00  0.00    -0.273 NA
HETATM   13  C   UNL     1      44.157 -10.768   8.484  1.00  0.00     0.116 A 
HETATM   14  C   UNL     1      43.356 -10.957   7.366  1.00  0.00     0.027 A 
ENDBRANCH   6   9
ENDBRANCH   5   6
ENDBRANCH   2   5
BRANCH   1  15
HETATM   15  C   UNL     1      42.900 -16.267   4.092  1.00  0.00     0.065 A 
HETATM   16  C   UNL     1      42.741 -17.225   3.071  1.00  0.00     0.087 A 
HETATM   17  C   UNL     1      43.423 -18.457   3.124  1.00  0.00    -0.028 A 
HETATM   18  C   UNL     1      43.243 -19.529   2.084  1.00  0.00     0.051 C 
HETATM   19  C   UNL     1      44.320 -18.687   4.177  1.00  0.00     0.009 A 
HETATM   20  C   UNL     1      44.512 -17.733   5.173  1.00  0.00     0.002 A 
HETATM   21  C   UNL     1      43.800 -16.536   5.135  1.00  0.00     0.020 A 
BRANCH  16  22
HETATM   22  O   UNL     1      41.913 -16.953   2.009  1.00  0.00    -0.359 OA
HETATM   23  H   UNL     1      42.447 -16.919   1.196  1.00  0.00     0.218 HD
ENDBRANCH  16  22
ENDBRANCH   1  15
TORSDOF 5
ENDMDL
MODEL 10
REMARK VINA RESULT:      -7.3      3.263      7.413
REMARK  5 active torsions:
REMARK  status: ('A' for Active; 'I' for Inactive)
REMARK    1  A    between atoms: C_3  and  O_4 
REMARK    2  A    between atoms: C_5  and  C_6 
REMARK       I    between atoms: C_6  and  N_7 
REMARK    3  A    between atoms: N_7  and  C_8 
REMARK    4  A    between atoms: C_8  and  C_9 
REMARK    5  A    between atoms: C_9  and  C_10 
ROOT
HETATM    1  C   UNL     1      43.710 -16.622   5.049  1.00  0.00     0.254 C 
HETATM    2  N   UNL     1      42.944 -15.786   4.272  1.00  0.00    -0.356 N 
HETATM    3  O   UNL     1      44.314 -16.225   6.041  1.00  0.00    -0.268 OA
HETATM    4  H   UNL     1      42.600 -16.167   3.392  1.00  0.00     0.162 HD
ENDROOT
BRANCH   2   5
HETATM    5  C   UNL     1      42.871 -14.360   4.512  1.00  0.00     0.136 C 
BRANCH   5   6
HETATM    6  C   UNL     1      42.802 -13.514   3.206  1.00  0.00    -0.004 C 
HETATM    7  C   UNL     1      43.759 -12.308   3.365  1.00  0.00     0.021 C 
HETATM    8  C   UNL     1      43.349 -14.372   2.041  1.00  0.00     0.021 C 
BRANCH   6   9
HETATM    9  C   UNL     1      41.350 -13.113   2.883  1.00  0.00    -0.046 A 
HETATM   10  C   UNL     1      40.395 -12.850   3.874  1.00  0.00     0.027 A 
HETATM   11  C   UNL     1      39.101 -12.507   3.502  1.00  0.00     0.116 A 
HETATM   12  N   UNL     1      38.683 -12.410   2.225  1.00  0.00    -0.273 NA
HETATM   13  C   UNL     1      39.607 -12.652   1.276  1.00  0.00     0.116 A 
HETATM   14  C   UNL     1      40.923 -12.998   1.550  1.00  0.00     0.027 A 
ENDBRANCH   6   9
ENDBRANCH   5   6
ENDBRANCH   2   5
BRANCH   1  15
HETATM   15  C   UNL     1      43.775 -18.064   4.639  1.00  0.00     0.065 A 
HETATM   16  C   UNL     1      43.711 -18.523   3.308  1.00  0.00     0.087 A 
HETATM   17  C   UNL     1      43.716 -19.901   3.019  1.00  0.00    -0.028 A 
HETATM   18  C   UNL     1      43.596 -20.437   1.619  1.00  0.00     0.051 C 
HETATM   19  C   UNL     1      43.857 -20.813   4.077  1.00  0.00     0.009 A 
HETATM   20  C   UNL     1      43.957 -20.369   5.393  1.00  0.00     0.002 A 
HETATM   21  C   UNL     1      43.907 -19.005   5.672  1.00  0.00     0.020 A 
BRANCH  16  22
HETATM   22  O   UNL     1      43.645 -17.614   2.280  1.00  0.00    -0.359 OA
HETATM   23  H   UNL     1      43.898 -16.738   2.620  1.00  0.00     0.218 HD
ENDBRANCH  16  22
ENDBRANCH   1  15
TORSDOF 5
ENDMDL
