MODEL 1
REMARK VINA RESULT:      -9.1      0.000      0.000
REMARK  5 active torsions:
REMARK  status: ('A' for Active; 'I' for Inactive)
REMARK    1  A    between atoms: C_6  and  N_7 
REMARK       I    between atoms: N_7  and  C_8 
REMARK       I    between atoms: C_8  and  N_9 
REMARK    2  A    between atoms: N_9  and  N_10 
REMARK       I    between atoms: N_10  and  C_11 
REMARK    3  A    between atoms: C_11  and  C_12 
REMARK    4  A    between atoms: C_12  and  N_13 
REMARK       I    between atoms: N_13  and  C_14 
REMARK       I    between atoms: C_14  and  N_15 
REMARK    5  A    between atoms: N_15  and  C_16 
ROOT
HETATM    1  N   UNL     1      45.057 -11.673   7.074  1.00  0.00    -0.265 N 
HETATM    2  C   UNL     1      44.167 -11.722   6.012  1.00  0.00     0.253 C 
HETATM    3  O   UNL     1      44.245 -10.959   5.047  1.00  0.00    -0.270 OA
HETATM    4  H   UNL     1      44.687 -11.980   7.981  1.00  0.00     0.190 HD
ENDROOT
BRANCH   2   5
HETATM    5  C   UNL     1      42.945 -12.635   6.194  1.00  0.00     0.228 C 
BRANCH   5   6
HETATM    6  N   UNL     1      43.135 -14.071   6.354  1.00  0.00    -0.334 N 
HETATM    7  C   UNL     1      43.022 -14.916   5.276  1.00  0.00     0.321 C 
HETATM    8  N   UNL     1      43.666 -16.113   5.480  1.00  0.00    -0.309 N 
HETATM    9  O   UNL     1      42.385 -14.584   4.283  1.00  0.00    -0.247 OA
HETATM   10  H   UNL     1      44.348 -16.133   6.224  1.00  0.00     0.170 HD
HETATM   11  H   UNL     1      43.771 -14.345   7.087  1.00  0.00     0.164 HD
BRANCH   8  12
HETATM   12  C   UNL     1      43.659 -17.227   4.615  1.00  0.00     0.038 A 
HETATM   13  C   UNL     1      43.936 -18.532   5.031  1.00  0.00     0.055 A 
HETATM   14  C   UNL     1      43.925 -19.592   4.114  1.00  0.00     0.058 A 
HETATM   15 CL   UNL     1      44.300 -21.171   4.705  1.00  0.00    -0.082 Cl
HETATM   16  C   UNL     1      43.628 -19.351   2.769  1.00  0.00     0.055 A 
HETATM   17 CL   UNL     1      43.587 -20.605   1.584  1.00  0.00    -0.083 Cl
HETATM   18  C   UNL     1      43.356 -18.048   2.347  1.00  0.00     0.028 A 
HETATM   19  C   UNL     1      43.381 -16.991   3.262  1.00  0.00     0.031 A 
ENDBRANCH   8  12
ENDBRANCH   5   6
ENDBRANCH   2   5
BRANCH   1  20
HETATM   20  N   UNL     1      45.876 -10.525   7.137  1.00  0.00    -0.249 N 
HETATM   21  C   UNL     1      45.627  -9.460   7.975  1.00  0.00     0.339 C 
HETATM   22  N   UNL     1      44.411  -9.527   8.607  1.00  0.00    -0.308 N 
HETATM   23  O   UNL     1      46.467  -8.573   8.086  1.00  0.00    -0.245 OA
HETATM   24  H   UNL     1      43.938 -10.408   8.465  1.00  0.00     0.170 HD
HETATM   25  H   UNL     1      46.841 -10.622   6.827  1.00  0.00     0.192 HD
BRANCH  22  26
HETATM   26  C   UNL     1      43.844  -8.593   9.493  1.00  0.00     0.038 A 
HETATM   27  C   UNL     1      43.705  -8.813  10.867  1.00  0.00     0.053 A 
HETATM   28  C   UNL     1      43.129  -7.832  11.678  1.00  0.00     0.036 A 
HETATM   29  C   UNL     1      42.685  -6.629  11.135  1.00  0.00     0.024 A 
HETATM   30 CL   UNL     1      42.967  -8.108  13.371  1.00  0.00    -0.084 Cl
HETATM   31  C   UNL     1      42.823  -6.401   9.768  1.00  0.00     0.004 A 
HETATM   32  C   UNL     1      43.404  -7.378   8.953  1.00  0.00     0.029 A 
ENDBRANCH  22  26
ENDBRANCH   1  20
TORSDOF 5
ENDMDL
MODEL 2
REMARK VINA RESULT:      -9.1      4.730      8.571
REMARK  5 active torsions:
REMARK  status: ('A' for Active; 'I' for Inactive)
REMARK    1  A    between atoms: C_6  and  N_7 
REMARK       I    between atoms: N_7  and  C_8 
REMARK       I    between atoms: C_8  and  N_9 
REMARK    2  A    between atoms: N_9  and  N_10 
REMARK       I    between atoms: N_10  and  C_11 
REMARK    3  A    between atoms: C_11  and  C_12 
REMARK    4  A    between atoms: C_12  and  N_13 
REMARK       I    between atoms: N_13  and  C_14 
REMARK       I    between atoms: C_14  and  N_15 
REMARK    5  A    between atoms: N_15  and  C_16 
ROOT
HETATM    1  N   UNL     1      43.632 -13.016   6.625  1.00  0.00    -0.265 N 
HETATM    2  C   UNL     1      42.846 -12.121   5.917  1.00  0.00     0.253 C 
HETATM    3  O   UNL     1      41.619 -12.080   6.034  1.00  0.00    -0.270 OA
HETATM    4  H   UNL     1      44.508 -13.299   6.168  1.00  0.00     0.190 HD
ENDROOT
BRANCH   2   5
HETATM    5  C   UNL     1      43.555 -11.319   4.816  1.00  0.00     0.228 C 
BRANCH   5   6
HETATM    6  N   UNL     1      42.830 -10.961   3.602  1.00  0.00    -0.334 N 
HETATM    7  C   UNL     1      42.542 -11.913   2.653  1.00  0.00     0.321 C 
HETATM    8  N   UNL     1      41.496 -11.543   1.843  1.00  0.00    -0.309 N 
HETATM    9  O   UNL     1      43.200 -12.944   2.580  1.00  0.00    -0.247 OA
HETATM   10  H   UNL     1      40.904 -10.802   2.187  1.00  0.00     0.170 HD
HETATM   11  H   UNL     1      42.180 -10.195   3.696  1.00  0.00     0.164 HD
BRANCH   8  12
HETATM   12  C   UNL     1      41.018 -12.246   0.717  1.00  0.00     0.038 A 
HETATM   13  C   UNL     1      41.124 -11.773  -0.593  1.00  0.00     0.055 A 
HETATM   14  C   UNL     1      40.614 -12.518  -1.665  1.00  0.00     0.058 A 
HETATM   15 CL   UNL     1      40.766 -11.852  -3.252  1.00  0.00    -0.082 Cl
HETATM   16  C   UNL     1      39.998 -13.751  -1.430  1.00  0.00     0.055 A 
HETATM   17 CL   UNL     1      39.355 -14.728  -2.699  1.00  0.00    -0.083 Cl
HETATM   18  C   UNL     1      39.884 -14.226  -0.122  1.00  0.00     0.028 A 
HETATM   19  C   UNL     1      40.382 -13.473   0.946  1.00  0.00     0.031 A 
ENDBRANCH   8  12
ENDBRANCH   5   6
ENDBRANCH   2   5
BRANCH   1  20
HETATM   20  N   UNL     1      42.942 -14.070   7.263  1.00  0.00    -0.249 N 
HETATM   21  C   UNL     1      42.922 -15.362   6.787  1.00  0.00     0.339 C 
HETATM   22  N   UNL     1      43.472 -15.500   5.537  1.00  0.00    -0.308 N 
HETATM   23  O   UNL     1      42.433 -16.250   7.478  1.00  0.00    -0.245 OA
HETATM   24  H   UNL     1      43.927 -14.659   5.210  1.00  0.00     0.170 HD
HETATM   25  H   UNL     1      42.749 -13.966   8.257  1.00  0.00     0.192 HD
BRANCH  22  26
HETATM   26  C   UNL     1      43.576 -16.668   4.761  1.00  0.00     0.038 A 
HETATM   27  C   UNL     1      43.978 -17.906   5.273  1.00  0.00     0.053 A 
HETATM   28  C   UNL     1      44.055 -19.019   4.432  1.00  0.00     0.036 A 
HETATM   29  C   UNL     1      43.738 -18.914   3.080  1.00  0.00     0.024 A 
HETATM   30 CL   UNL     1      44.545 -20.542   5.071  1.00  0.00    -0.084 Cl
HETATM   31  C   UNL     1      43.334 -17.685   2.563  1.00  0.00     0.004 A 
HETATM   32  C   UNL     1      43.249 -16.570   3.402  1.00  0.00     0.029 A 
ENDBRANCH  22  26
ENDBRANCH   1  20
TORSDOF 5
ENDMDL
MODEL 3
REMARK VINA RESULT:      -9.1      4.408      7.058
REMARK  5 active torsions:
REMARK  status: ('A' for Active; 'I' for Inactive)
REMARK    1  A    between atoms: C_6  and  N_7 
REMARK       I    between atoms: N_7  and  C_8 
REMARK       I    between atoms: C_8  and  N_9 
REMARK    2  A    between atoms: N_9  and  N_10 
REMARK       I    between atoms: N_10  and  C_11 
REMARK    3  A    between atoms: C_11  and  C_12 
REMARK    4  A    between atoms: C_12  and  N_13 
REMARK       I    between atoms: N_13  and  C_14 
REMARK       I    between atoms: C_14  and  N_15 
REMARK    5  A    between atoms: N_15  and  C_16 
ROOT
HETATM    1  N   UNL     1      41.214 -12.099   6.354  1.00  0.00    -0.265 N 
HETATM    2  C   UNL     1      42.446 -11.468   6.430  1.00  0.00     0.253 C 
HETATM    3  O   UNL     1      42.620 -10.306   6.054  1.00  0.00    -0.270 OA
HETATM    4  H   UNL     1      41.242 -13.119   6.243  1.00  0.00     0.190 HD
ENDROOT
BRANCH   2   5
HETATM    5  C   UNL     1      43.640 -12.356   6.810  1.00  0.00     0.228 C 
BRANCH   5   6
HETATM    6  N   UNL     1      43.468 -13.801   6.892  1.00  0.00    -0.334 N 
HETATM    7  C   UNL     1      43.443 -14.568   5.752  1.00  0.00     0.321 C 
HETATM    8  N   UNL     1      43.741 -15.886   6.002  1.00  0.00    -0.309 N 
HETATM    9  O   UNL     1      43.159 -14.072   4.668  1.00  0.00    -0.247 OA
HETATM   10  H   UNL     1      44.198 -16.083   6.881  1.00  0.00     0.170 HD
HETATM   11  H   UNL     1      43.829 -14.234   7.729  1.00  0.00     0.164 HD
BRANCH   8  12
HETATM   12  C   UNL     1      43.706 -16.946   5.071  1.00  0.00     0.038 A 
HETATM   13  C   UNL     1      44.000 -18.273   5.397  1.00  0.00     0.055 A 
HETATM   14  C   UNL     1      43.958 -19.274   4.418  1.00  0.00     0.058 A 
HETATM   15 CL   UNL     1      44.356 -20.886   4.898  1.00  0.00    -0.082 Cl
HETATM   16  C   UNL     1      43.614 -18.953   3.101  1.00  0.00     0.055 A 
HETATM   17 CL   UNL     1      43.533 -20.132   1.844  1.00  0.00    -0.083 Cl
HETATM   18  C   UNL     1      43.325 -17.627   2.769  1.00  0.00     0.028 A 
HETATM   19  C   UNL     1      43.381 -16.629   3.746  1.00  0.00     0.031 A 
ENDBRANCH   8  12
ENDBRANCH   5   6
ENDBRANCH   2   5
BRANCH   1  20
HETATM   20  N   UNL     1      40.241 -11.453   5.561  1.00  0.00    -0.249 N 
HETATM   21  C   UNL     1      39.806 -11.939   4.348  1.00  0.00     0.339 C 
HETATM   22  N   UNL     1      40.536 -13.005   3.886  1.00  0.00    -0.308 N 
HETATM   23  O   UNL     1      38.849 -11.408   3.795  1.00  0.00    -0.245 OA
HETATM   24  H   UNL     1      41.198 -13.356   4.563  1.00  0.00     0.170 HD
HETATM   25  H   UNL     1      39.601 -10.818   6.033  1.00  0.00     0.192 HD
BRANCH  22  26
HETATM   26  C   UNL     1      40.376 -13.705   2.676  1.00  0.00     0.038 A 
HETATM   27  C   UNL     1      40.467 -13.107   1.416  1.00  0.00     0.053 A 
HETATM   28  C   UNL     1      40.294 -13.874   0.262  1.00  0.00     0.036 A 
HETATM   29  C   UNL     1      40.027 -15.239   0.348  1.00  0.00     0.024 A 
HETATM   30 CL   UNL     1      40.412 -13.131  -1.287  1.00  0.00    -0.084 Cl
HETATM   31  C   UNL     1      39.939 -15.844   1.599  1.00  0.00     0.004 A 
HETATM   32  C   UNL     1      40.118 -15.080   2.757  1.00  0.00     0.029 A 
ENDBRANCH  22  26
ENDBRANCH   1  20
TORSDOF 5
ENDMDL
MODEL 4
REMARK VINA RESULT:      -9.1      4.830      7.889
REMARK  5 active torsions:
REMARK  status: ('A' for Active; 'I' for Inactive)
REMARK    1  A    between atoms: C_6  and  N_7 
REMARK       I    between atoms: N_7  and  C_8 
REMARK       I    between atoms: C_8  and  N_9 
REMARK    2  A    between atoms: N_9  and  N_10 
REMARK       I    between atoms: N_10  and  C_11 
REMARK    3  A    between atoms: C_11  and  C_12 
REMARK    4  A    between atoms: C_12  and  N_13 
REMARK       I    between atoms: N_13  and  C_14 
REMARK       I    between atoms: C_14  and  N_15 
REMARK    5  A    between atoms: N_15  and  C_16 
ROOT
HETATM    1  N   UNL     1      41.552 -10.853   3.530  1.00  0.00    -0.265 N 
HETATM    2  C   UNL     1      42.504 -11.237   4.461  1.00  0.00     0.253 C 
HETATM    3  O   UNL     1      43.701 -10.970   4.334  1.00  0.00    -0.270 OA
HETATM    4  H   UNL     1      40.728 -11.463   3.457  1.00  0.00     0.190 HD
ENDROOT
BRANCH   2   5
HETATM    5  C   UNL     1      42.029 -12.200   5.560  1.00  0.00     0.228 C 
BRANCH   5   6
HETATM    6  N   UNL     1      42.730 -13.462   5.767  1.00  0.00    -0.334 N 
HETATM    7  C   UNL     1      42.506 -14.530   4.932  1.00  0.00     0.321 C 
HETATM    8  N   UNL     1      43.536 -15.439   4.959  1.00  0.00    -0.309 N 
HETATM    9  O   UNL     1      41.472 -14.612   4.280  1.00  0.00    -0.247 OA
HETATM   10  H   UNL     1      44.413 -15.110   5.336  1.00  0.00     0.170 HD
HETATM   11  H   UNL     1      43.647 -13.385   6.179  1.00  0.00     0.164 HD
BRANCH   8  12
HETATM   12  C   UNL     1      43.575 -16.684   4.297  1.00  0.00     0.038 A 
HETATM   13  C   UNL     1      43.944 -17.880   4.918  1.00  0.00     0.055 A 
HETATM   14  C   UNL     1      43.973 -19.081   4.196  1.00  0.00     0.058 A 
HETATM   15 CL   UNL     1      44.461 -20.512   5.032  1.00  0.00    -0.082 Cl
HETATM   16  C   UNL     1      43.624 -19.092   2.842  1.00  0.00     0.055 A 
HETATM   17 CL   UNL     1      43.627 -20.532   1.890  1.00  0.00    -0.083 Cl
HETATM   18  C   UNL     1      43.260 -17.899   2.214  1.00  0.00     0.028 A 
HETATM   19  C   UNL     1      43.245 -16.701   2.935  1.00  0.00     0.031 A 
ENDBRANCH   8  12
ENDBRANCH   5   6
ENDBRANCH   2   5
BRANCH   1  20
HETATM   20  N   UNL     1      42.052 -10.398   2.291  1.00  0.00    -0.249 N 
HETATM   21  C   UNL     1      41.521 -10.771   1.076  1.00  0.00     0.339 C 
HETATM   22  N   UNL     1      40.586 -11.771   1.164  1.00  0.00    -0.308 N 
HETATM   23  O   UNL     1      41.908 -10.213   0.054  1.00  0.00    -0.245 OA
HETATM   24  H   UNL     1      40.331 -11.992   2.116  1.00  0.00     0.170 HD
HETATM   25  H   UNL     1      42.575  -9.526   2.291  1.00  0.00     0.192 HD
BRANCH  22  26
HETATM   26  C   UNL     1      39.885 -12.397   0.117  1.00  0.00     0.038 A 
HETATM   27  C   UNL     1      38.843 -11.790  -0.590  1.00  0.00     0.053 A 
HETATM   28  C   UNL     1      38.199 -12.481  -1.618  1.00  0.00     0.036 A 
HETATM   29  C   UNL     1      38.580 -13.779  -1.952  1.00  0.00     0.024 A 
HETATM   30 CL   UNL     1      36.919 -11.725  -2.489  1.00  0.00    -0.084 Cl
HETATM   31  C   UNL     1      39.620 -14.389  -1.255  1.00  0.00     0.004 A 
HETATM   32  C   UNL     1      40.271 -13.698  -0.229  1.00  0.00     0.029 A 
ENDBRANCH  22  26
ENDBRANCH   1  20
TORSDOF 5
ENDMDL
MODEL 5
REMARK VINA RESULT:      -9.0      1.898     11.066
REMARK  5 active torsions:
REMARK  status: ('A' for Active; 'I' for Inactive)
REMARK    1  A    between atoms: C_6  and  N_7 
REMARK       I    between atoms: N_7  and  C_8 
REMARK       I    between atoms: C_8  and  N_9 
REMARK    2  A    between atoms: N_9  and  N_10 
REMARK       I    between atoms: N_10  and  C_11 
REMARK    3  A    between atoms: C_11  and  C_12 
REMARK    4  A    between atoms: C_12  and  N_13 
REMARK       I    between atoms: N_13  and  C_14 
REMARK       I    between atoms: C_14  and  N_15 
REMARK    5  A    between atoms: N_15  and  C_16 
ROOT
HETATM    1  N   UNL     1      43.184 -13.604   5.055  1.00  0.00    -0.265 N 
HETATM    2  C   UNL     1      42.766 -12.548   5.849  1.00  0.00     0.253 C 
HETATM    3  O   UNL     1      41.574 -12.291   6.036  1.00  0.00    -0.270 OA
HETATM    4  H   UNL     1      44.093 -13.484   4.594  1.00  0.00     0.190 HD
ENDROOT
BRANCH   2   5
HETATM    5  C   UNL     1      43.860 -11.576   6.316  1.00  0.00     0.228 C 
BRANCH   5   6
HETATM    6  N   UNL     1      44.115 -11.408   7.742  1.00  0.00    -0.334 N 
HETATM    7  C   UNL     1      43.463 -10.433   8.458  1.00  0.00     0.321 C 
HETATM    8  N   UNL     1      43.449 -10.697   9.806  1.00  0.00    -0.309 N 
HETATM    9  O   UNL     1      42.990  -9.452   7.897  1.00  0.00    -0.247 OA
HETATM   10  H   UNL     1      43.646 -11.649  10.078  1.00  0.00     0.170 HD
HETATM   11  H   UNL     1      44.372 -12.248   8.238  1.00  0.00     0.164 HD
BRANCH   8  12
HETATM   12  C   UNL     1      42.949  -9.854  10.821  1.00  0.00     0.038 A 
HETATM   13  C   UNL     1      41.600  -9.787  11.178  1.00  0.00     0.055 A 
HETATM   14  C   UNL     1      41.171  -8.916  12.189  1.00  0.00     0.058 A 
HETATM   15 CL   UNL     1      39.483  -8.878  12.555  1.00  0.00    -0.082 Cl
HETATM   16  C   UNL     1      42.096  -8.107  12.855  1.00  0.00     0.055 A 
HETATM   17 CL   UNL     1      41.644  -7.016  14.114  1.00  0.00    -0.083 Cl
HETATM   18  C   UNL     1      43.445  -8.165  12.498  1.00  0.00     0.028 A 
HETATM   19  C   UNL     1      43.867  -9.026  11.481  1.00  0.00     0.031 A 
ENDBRANCH   8  12
ENDBRANCH   5   6
ENDBRANCH   2   5
BRANCH   1  20
HETATM   20  N   UNL     1      42.192 -14.193   4.241  1.00  0.00    -0.249 N 
HETATM   21  C   UNL     1      42.125 -15.544   3.983  1.00  0.00     0.339 C 
HETATM   22  N   UNL     1      43.215 -16.247   4.431  1.00  0.00    -0.308 N 
HETATM   23  O   UNL     1      41.147 -15.997   3.397  1.00  0.00    -0.245 OA
HETATM   24  H   UNL     1      43.841 -15.691   4.996  1.00  0.00     0.170 HD
HETATM   25  H   UNL     1      41.320 -13.681   4.124  1.00  0.00     0.192 HD
BRANCH  22  26
HETATM   26  C   UNL     1      43.472 -17.624   4.298  1.00  0.00     0.038 A 
HETATM   27  C   UNL     1      43.475 -18.297   3.073  1.00  0.00     0.053 A 
HETATM   28  C   UNL     1      43.739 -19.668   3.029  1.00  0.00     0.036 A 
HETATM   29  C   UNL     1      44.000 -20.381   4.197  1.00  0.00     0.024 A 
HETATM   30 CL   UNL     1      43.747 -20.491   1.515  1.00  0.00    -0.084 Cl
HETATM   31  C   UNL     1      44.002 -19.717   5.421  1.00  0.00     0.004 A 
HETATM   32  C   UNL     1      43.744 -18.344   5.469  1.00  0.00     0.029 A 
ENDBRANCH  22  26
ENDBRANCH   1  20
TORSDOF 5
ENDMDL
MODEL 6
REMARK VINA RESULT:      -8.9      2.073     10.470
REMARK  5 active torsions:
REMARK  status: ('A' for Active; 'I' for Inactive)
REMARK    1  A    between atoms: C_6  and  N_7 
REMARK       I    between atoms: N_7  and  C_8 
REMARK       I    between atoms: C_8  and  N_9 
REMARK    2  A    between atoms: N_9  and  N_10 
REMARK       I    between atoms: N_10  and  C_11 
REMARK    3  A    between atoms: C_11  and  C_12 
REMARK    4  A    between atoms: C_12  and  N_13 
REMARK       I    between atoms: N_13  and  C_14 
REMARK       I    between atoms: C_14  and  N_15 
REMARK    5  A    between atoms: N_15  and  C_16 
ROOT
HETATM    1  N   UNL     1      42.823 -11.889   6.155  1.00  0.00    -0.265 N 
HETATM    2  C   UNL     1      43.947 -12.146   6.925  1.00  0.00     0.253 C 
HETATM    3  O   UNL     1      44.108 -13.209   7.528  1.00  0.00    -0.270 OA
HETATM    4  H   UNL     1      42.550 -10.902   6.080  1.00  0.00     0.190 HD
ENDROOT
BRANCH   2   5
HETATM    5  C   UNL     1      44.889 -10.957   7.167  1.00  0.00     0.228 C 
BRANCH   5   6
HETATM    6  N   UNL     1      45.052 -10.428   8.516  1.00  0.00    -0.334 N 
HETATM    7  C   UNL     1      43.959 -10.030   9.248  1.00  0.00     0.321 C 
HETATM    8  N   UNL     1      44.214 -10.008  10.598  1.00  0.00    -0.309 N 
HETATM    9  O   UNL     1      42.911  -9.721   8.693  1.00  0.00    -0.247 OA
HETATM   10  H   UNL     1      45.021 -10.527  10.909  1.00  0.00     0.170 HD
HETATM   11  H   UNL     1      45.842 -10.788   9.030  1.00  0.00     0.164 HD
BRANCH   8  12
HETATM   12  C   UNL     1      43.340  -9.555  11.609  1.00  0.00     0.038 A 
HETATM   13  C   UNL     1      42.147 -10.199  11.948  1.00  0.00     0.055 A 
HETATM   14  C   UNL     1      41.320  -9.686  12.956  1.00  0.00     0.058 A 
HETATM   15 CL   UNL     1      39.851 -10.529  13.299  1.00  0.00    -0.082 Cl
HETATM   16  C   UNL     1      41.687  -8.522  13.638  1.00  0.00     0.055 A 
HETATM   17 CL   UNL     1      40.724  -7.835  14.895  1.00  0.00    -0.083 Cl
HETATM   18  C   UNL     1      42.875  -7.871  13.299  1.00  0.00     0.028 A 
HETATM   19  C   UNL     1      43.692  -8.379  12.284  1.00  0.00     0.031 A 
ENDBRANCH   8  12
ENDBRANCH   5   6
ENDBRANCH   2   5
BRANCH   1  20
HETATM   20  N   UNL     1      41.743 -12.781   6.327  1.00  0.00    -0.249 N 
HETATM   21  C   UNL     1      41.712 -14.049   5.787  1.00  0.00     0.339 C 
HETATM   22  N   UNL     1      42.739 -14.302   4.912  1.00  0.00    -0.308 N 
HETATM   23  O   UNL     1      40.813 -14.818   6.110  1.00  0.00    -0.245 OA
HETATM   24  H   UNL     1      43.434 -13.570   4.894  1.00  0.00     0.170 HD
HETATM   25  H   UNL     1      41.138 -12.634   7.132  1.00  0.00     0.192 HD
BRANCH  22  26
HETATM   26  C   UNL     1      42.976 -15.475   4.172  1.00  0.00     0.038 A 
HETATM   27  C   UNL     1      43.506 -16.645   4.724  1.00  0.00     0.053 A 
HETATM   28  C   UNL     1      43.712 -17.768   3.919  1.00  0.00     0.036 A 
HETATM   29  C   UNL     1      43.396 -17.739   2.563  1.00  0.00     0.024 A 
HETATM   30 CL   UNL     1      44.360 -19.208   4.606  1.00  0.00    -0.084 Cl
HETATM   31  C   UNL     1      42.864 -16.578   2.006  1.00  0.00     0.004 A 
HETATM   32  C   UNL     1      42.651 -15.454   2.810  1.00  0.00     0.029 A 
ENDBRANCH  22  26
ENDBRANCH   1  20
TORSDOF 5
ENDMDL
MODEL 7
REMARK VINA RESULT:      -8.8      4.303      5.568
REMARK  5 active torsions:
REMARK  status: ('A' for Active; 'I' for Inactive)
REMARK    1  A    between atoms: C_6  and  N_7 
REMARK       I    between atoms: N_7  and  C_8 
REMARK       I    between atoms: C_8  and  N_9 
REMARK    2  A    between atoms: N_9  and  N_10 
REMARK       I    between atoms: N_10  and  C_11 
REMARK    3  A    between atoms: C_11  and  C_12 
REMARK    4  A    between atoms: C_12  and  N_13 
REMARK       I    between atoms: N_13  and  C_14 
REMARK       I    between atoms: C_14  and  N_15 
REMARK    5  A    between atoms: N_15  and  C_16 
ROOT
HETATM    1  N   UNL     1      41.112 -10.935   1.003  1.00  0.00    -0.265 N 
HETATM    2  C   UNL     1      40.098 -11.872   0.878  1.00  0.00     0.253 C 
HETATM    3  O   UNL     1      39.028 -11.775   1.483  1.00  0.00    -0.270 OA
HETATM    4  H   UNL     1      42.066 -11.289   0.865  1.00  0.00     0.190 HD
ENDROOT
BRANCH   2   5
HETATM    5  C   UNL     1      40.453 -13.157   0.114  1.00  0.00     0.228 C 
BRANCH   5   6
HETATM    6  N   UNL     1      41.677 -13.877   0.442  1.00  0.00    -0.334 N 
HETATM    7  C   UNL     1      41.712 -14.748   1.505  1.00  0.00     0.321 C 
HETATM    8  N   UNL     1      42.734 -15.661   1.399  1.00  0.00    -0.309 N 
HETATM    9  O   UNL     1      40.905 -14.652   2.422  1.00  0.00    -0.247 OA
HETATM   10  H   UNL     1      43.140 -15.774   0.482  1.00  0.00     0.170 HD
HETATM   11  H   UNL     1      42.282 -14.081  -0.339  1.00  0.00     0.164 HD
BRANCH   8  12
HETATM   12  C   UNL     1      43.103 -16.623   2.363  1.00  0.00     0.038 A 
HETATM   13  C   UNL     1      43.480 -16.303   3.670  1.00  0.00     0.055 A 
HETATM   14  C   UNL     1      43.848 -17.311   4.573  1.00  0.00     0.058 A 
HETATM   15 CL   UNL     1      44.321 -16.831   6.164  1.00  0.00    -0.082 Cl
HETATM   16  C   UNL     1      43.835 -18.650   4.172  1.00  0.00     0.055 A 
HETATM   17 CL   UNL     1      44.266 -19.944   5.229  1.00  0.00    -0.083 Cl
HETATM   18  C   UNL     1      43.465 -18.974   2.865  1.00  0.00     0.028 A 
HETATM   19  C   UNL     1      43.111 -17.965   1.963  1.00  0.00     0.031 A 
ENDBRANCH   8  12
ENDBRANCH   5   6
ENDBRANCH   2   5
BRANCH   1  20
HETATM   20  N   UNL     1      40.977 -10.021   2.070  1.00  0.00    -0.249 N 
HETATM   21  C   UNL     1      41.586 -10.190   3.294  1.00  0.00     0.339 C 
HETATM   22  N   UNL     1      42.182 -11.416   3.451  1.00  0.00    -0.308 N 
HETATM   23  O   UNL     1      41.549  -9.279   4.115  1.00  0.00    -0.245 OA
HETATM   24  H   UNL     1      42.198 -11.961   2.601  1.00  0.00     0.170 HD
HETATM   25  H   UNL     1      40.721  -9.065   1.837  1.00  0.00     0.192 HD
BRANCH  22  26
HETATM   26  C   UNL     1      42.854 -11.914   4.583  1.00  0.00     0.038 A 
HETATM   27  C   UNL     1      44.000 -11.325   5.126  1.00  0.00     0.053 A 
HETATM   28  C   UNL     1      44.607 -11.884   6.253  1.00  0.00     0.036 A 
HETATM   29  C   UNL     1      44.085 -13.030   6.848  1.00  0.00     0.024 A 
HETATM   30 CL   UNL     1      46.015 -11.149   6.920  1.00  0.00    -0.084 Cl
HETATM   31  C   UNL     1      42.941 -13.620   6.316  1.00  0.00     0.004 A 
HETATM   32  C   UNL     1      42.328 -13.061   5.191  1.00  0.00     0.029 A 
ENDBRANCH  22  26
ENDBRANCH   1  20
TORSDOF 5
ENDMDL
MODEL 8
REMARK VINA RESULT:      -8.6      5.551      8.828
REMARK  5 active torsions:
REMARK  status: ('A' for Active; 'I' for Inactive)
REMARK    1  A    between atoms: C_6  and  N_7 
REMARK       I    between atoms: N_7  and  C_8 
REMARK       I    between atoms: C_8  and  N_9 
REMARK    2  A    between atoms: N_9  and  N_10 
REMARK       I    between atoms: N_10  and  C_11 
REMARK    3  A    between atoms: C_11  and  C_12 
REMARK    4  A    between atoms: C_12  and  N_13 
REMARK       I    between atoms: N_13  and  C_14 
REMARK       I    between atoms: C_14  and  N_15 
REMARK    5  A    between atoms: N_15  and  C_16 
ROOT
HETATM    1  N   UNL     1      40.736 -12.596   6.019  1.00  0.00    -0.265 N 
HETATM    2  C   UNL     1      39.811 -11.564   5.994  1.00  0.00     0.253 C 
HETATM    3  O   UNL     1      38.775 -11.587   6.661  1.00  0.00    -0.270 OA
HETATM    4  H   UNL     1      41.285 -12.725   5.161  1.00  0.00     0.190 HD
ENDROOT
BRANCH   2   5
HETATM    5  C   UNL     1      40.034 -10.481   4.928  1.00  0.00     0.228 C 
BRANCH   5   6
HETATM    6  N   UNL     1      40.562 -10.852   3.620  1.00  0.00    -0.334 N 
HETATM    7  C   UNL     1      39.869 -11.715   2.805  1.00  0.00     0.321 C 
HETATM    8  N   UNL     1      40.236 -11.597   1.487  1.00  0.00    -0.309 N 
HETATM    9  O   UNL     1      39.045 -12.493   3.272  1.00  0.00    -0.247 OA
HETATM   10  H   UNL     1      40.727 -10.752   1.233  1.00  0.00     0.170 HD
HETATM   11  H   UNL     1      41.133 -10.153   3.169  1.00  0.00     0.164 HD
BRANCH   8  12
HETATM   12  C   UNL     1      39.790 -12.400   0.416  1.00  0.00     0.038 A 
HETATM   13  C   UNL     1      38.786 -12.012  -0.476  1.00  0.00     0.055 A 
HETATM   14  C   UNL     1      38.382 -12.867  -1.511  1.00  0.00     0.058 A 
HETATM   15 CL   UNL     1      37.119 -12.321  -2.557  1.00  0.00    -0.082 Cl
HETATM   16  C   UNL     1      38.987 -14.118  -1.663  1.00  0.00     0.055 A 
HETATM   17 CL   UNL     1      38.548 -15.219  -2.917  1.00  0.00    -0.083 Cl
HETATM   18  C   UNL     1      39.986 -14.513  -0.770  1.00  0.00     0.028 A 
HETATM   19  C   UNL     1      40.378 -13.662   0.269  1.00  0.00     0.031 A 
ENDBRANCH   8  12
ENDBRANCH   5   6
ENDBRANCH   2   5
BRANCH   1  20
HETATM   20  N   UNL     1      40.301 -13.798   6.618  1.00  0.00    -0.249 N 
HETATM   21  C   UNL     1      40.932 -15.009   6.436  1.00  0.00     0.339 C 
HETATM   22  N   UNL     1      41.909 -14.984   5.473  1.00  0.00    -0.308 N 
HETATM   23  O   UNL     1      40.589 -15.973   7.111  1.00  0.00    -0.245 OA
HETATM   24  H   UNL     1      42.109 -14.053   5.134  1.00  0.00     0.170 HD
HETATM   25  H   UNL     1      39.735 -13.722   7.460  1.00  0.00     0.192 HD
BRANCH  22  26
HETATM   26  C   UNL     1      42.711 -16.049   5.025  1.00  0.00     0.038 A 
HETATM   27  C   UNL     1      42.431 -16.802   3.880  1.00  0.00     0.053 A 
HETATM   28  C   UNL     1      43.280 -17.845   3.504  1.00  0.00     0.036 A 
HETATM   29  C   UNL     1      44.410 -18.152   4.259  1.00  0.00     0.024 A 
HETATM   30 CL   UNL     1      42.932 -18.765   2.090  1.00  0.00    -0.084 Cl
HETATM   31  C   UNL     1      44.698 -17.404   5.399  1.00  0.00     0.004 A 
HETATM   32  C   UNL     1      43.854 -16.355   5.775  1.00  0.00     0.029 A 
ENDBRANCH  22  26
ENDBRANCH   1  20
TORSDOF 5
ENDMDL
MODEL 9
REMARK VINA RESULT:      -8.5      3.025      3.776
REMARK  5 active torsions:
REMARK  status: ('A' for Active; 'I' for Inactive)
REMARK    1  A    between atoms: C_6  and  N_7 
REMARK       I    between atoms: N_7  and  C_8 
REMARK       I    between atoms: C_8  and  N_9 
REMARK    2  A    between atoms: N_9  and  N_10 
REMARK       I    between atoms: N_10  and  C_11 
REMARK    3  A    between atoms: C_11  and  C_12 
REMARK    4  A    between atoms: C_12  and  N_13 
REMARK       I    between atoms: N_13  and  C_14 
REMARK       I    between atoms: C_14  and  N_15 
REMARK    5  A    between atoms: N_15  and  C_16 
ROOT
HETATM    1  N   UNL     1      40.104 -11.094   6.892  1.00  0.00    -0.265 N 
HETATM    2  C   UNL     1      39.713 -10.835   5.587  1.00  0.00     0.253 C 
HETATM    3  O   UNL     1      38.762 -10.100   5.314  1.00  0.00    -0.270 OA
HETATM    4  H   UNL     1      40.552 -12.004   7.052  1.00  0.00     0.190 HD
ENDROOT
BRANCH   2   5
HETATM    5  C   UNL     1      40.389 -11.680   4.497  1.00  0.00     0.228 C 
BRANCH   5   6
HETATM    6  N   UNL     1      41.589 -12.445   4.817  1.00  0.00    -0.334 N 
HETATM    7  C   UNL     1      41.575 -13.819   4.772  1.00  0.00     0.321 C 
HETATM    8  N   UNL     1      42.835 -14.349   4.636  1.00  0.00    -0.309 N 
HETATM    9  O   UNL     1      40.523 -14.439   4.870  1.00  0.00    -0.247 OA
HETATM   10  H   UNL     1      43.554 -13.718   4.313  1.00  0.00     0.170 HD
HETATM   11  H   UNL     1      42.463 -11.987   4.606  1.00  0.00     0.164 HD
BRANCH   8  12
HETATM   12  C   UNL     1      43.176 -15.718   4.656  1.00  0.00     0.038 A 
HETATM   13  C   UNL     1      43.071 -16.559   3.545  1.00  0.00     0.055 A 
HETATM   14  C   UNL     1      43.414 -17.914   3.640  1.00  0.00     0.058 A 
HETATM   15 CL   UNL     1      43.235 -18.891   2.226  1.00  0.00    -0.082 Cl
HETATM   16  C   UNL     1      43.873 -18.437   4.853  1.00  0.00     0.055 A 
HETATM   17 CL   UNL     1      44.323 -20.093   5.044  1.00  0.00    -0.083 Cl
HETATM   18  C   UNL     1      43.975 -17.603   5.968  1.00  0.00     0.028 A 
HETATM   19  C   UNL     1      43.618 -16.254   5.873  1.00  0.00     0.031 A 
ENDBRANCH   8  12
ENDBRANCH   5   6
ENDBRANCH   2   5
BRANCH   1  20
HETATM   20  N   UNL     1      39.189 -10.710   7.896  1.00  0.00    -0.249 N 
HETATM   21  C   UNL     1      39.537  -9.945   8.987  1.00  0.00     0.339 C 
HETATM   22  N   UNL     1      40.888  -9.745   9.115  1.00  0.00    -0.308 N 
HETATM   23  O   UNL     1      38.657  -9.524   9.731  1.00  0.00    -0.245 OA
HETATM   24  H   UNL     1      41.415 -10.077   8.319  1.00  0.00     0.170 HD
HETATM   25  H   UNL     1      38.202 -10.696   7.647  1.00  0.00     0.192 HD
BRANCH  22  26
HETATM   26  C   UNL     1      41.568  -9.045  10.128  1.00  0.00     0.038 A 
HETATM   27  C   UNL     1      41.598  -7.650  10.219  1.00  0.00     0.053 A 
HETATM   28  C   UNL     1      42.298  -7.032  11.258  1.00  0.00     0.036 A 
HETATM   29  C   UNL     1      42.975  -7.790  12.210  1.00  0.00     0.024 A 
HETATM   30 CL   UNL     1      42.326  -5.313  11.368  1.00  0.00    -0.084 Cl
HETATM   31  C   UNL     1      42.947  -9.180  12.128  1.00  0.00     0.004 A 
HETATM   32  C   UNL     1      42.243  -9.802  11.094  1.00  0.00     0.029 A 
ENDBRANCH  22  26
ENDBRANCH   1  20
TORSDOF 5
ENDMDL
MODEL 10
REMARK VINA RESULT:      -8.4      3.076      4.381
REMARK  5 active torsions:
REMARK  status: ('A' for Active; 'I' for Inactive)
REMARK    1  A    between atoms: C_6  and  N_7 
REMARK       I    between atoms: N_7  and  C_8 
REMARK       I    between atoms: C_8  and  N_9 
REMARK    2  A    between atoms: N_9  and  N_10 
REMARK       I    between atoms: N_10  and  C_11 
REMARK    3  A    between atoms: C_11  and  C_12 
REMARK    4  A    between atoms: C_12  and  N_13 
REMARK       I    between atoms: N_13  and  C_14 
REMARK       I    between atoms: C_14  and  N_15 
REMARK    5  A    between atoms: N_15  and  C_16 
ROOT
HETATM    1  N   UNL     1      43.259 -11.027  10.672  1.00  0.00    -0.265 N 
HETATM    2  C   UNL     1      44.286 -10.446   9.944  1.00  0.00     0.253 C 
HETATM    3  O   UNL     1      45.255  -9.905  10.481  1.00  0.00    -0.270 OA
HETATM    4  H   UNL     1      42.338 -11.032  10.219  1.00  0.00     0.190 HD
ENDROOT
BRANCH   2   5
HETATM    5  C   UNL     1      44.055 -10.318   8.431  1.00  0.00     0.228 C 
BRANCH   5   6
HETATM    6  N   UNL     1      43.265 -11.326   7.733  1.00  0.00    -0.334 N 
HETATM    7  C   UNL     1      43.880 -12.362   7.071  1.00  0.00     0.321 C 
HETATM    8  N   UNL     1      43.041 -13.433   6.883  1.00  0.00    -0.309 N 
HETATM    9  O   UNL     1      45.044 -12.266   6.700  1.00  0.00    -0.247 OA
HETATM   10  H   UNL     1      42.214 -13.461   7.462  1.00  0.00     0.170 HD
HETATM   11  H   UNL     1      42.353 -11.508   8.123  1.00  0.00     0.164 HD
BRANCH   8  12
HETATM   12  C   UNL     1      43.330 -14.608   6.158  1.00  0.00     0.038 A 
HETATM   13  C   UNL     1      42.930 -14.820   4.836  1.00  0.00     0.055 A 
HETATM   14  C   UNL     1      43.241 -16.019   4.180  1.00  0.00     0.058 A 
HETATM   15 CL   UNL     1      42.692 -16.211   2.553  1.00  0.00    -0.082 Cl
HETATM   16  C   UNL     1      43.963 -17.015   4.845  1.00  0.00     0.055 A 
HETATM   17 CL   UNL     1      44.389 -18.512   4.100  1.00  0.00    -0.083 Cl
HETATM   18  C   UNL     1      44.359 -16.811   6.168  1.00  0.00     0.028 A 
HETATM   19  C   UNL     1      44.036 -15.618   6.824  1.00  0.00     0.031 A 
ENDBRANCH   8  12
ENDBRANCH   5   6
ENDBRANCH   2   5
BRANCH   1  20
HETATM   20  N   UNL     1      43.230 -10.718  12.049  1.00  0.00    -0.249 N 
HETATM   21  C   UNL     1      42.376  -9.787  12.599  1.00  0.00     0.339 C 
HETATM   22  N   UNL     1      41.688  -9.050  11.669  1.00  0.00    -0.308 N 
HETATM   23  O   UNL     1      42.302  -9.687  13.819  1.00  0.00    -0.245 OA
HETATM   24  H   UNL     1      41.811  -9.388  10.725  1.00  0.00     0.170 HD
HETATM   25  H   UNL     1      43.586 -11.420  12.693  1.00  0.00     0.192 HD
BRANCH  22  26
HETATM   26  C   UNL     1      40.772  -8.006  11.896  1.00  0.00     0.038 A 
HETATM   27  C   UNL     1      41.074  -6.654  11.706  1.00  0.00     0.053 A 
HETATM   28  C   UNL     1      40.106  -5.679  11.955  1.00  0.00     0.036 A 
HETATM   29  C   UNL     1      38.834  -6.035  12.396  1.00  0.00     0.024 A 
HETATM   30 CL   UNL     1      40.484  -4.016  11.713  1.00  0.00    -0.084 Cl
HETATM   31  C   UNL     1      38.524  -7.379  12.584  1.00  0.00     0.004 A 
HETATM   32  C   UNL     1      39.488  -8.359  12.330  1.00  0.00     0.029 A 
ENDBRANCH  22  26
ENDBRANCH   1  20
TORSDOF 5
ENDMDL
