MODEL 1
REMARK VINA RESULT:      -9.4      0.000      0.000
REMARK  5 active torsions:
REMARK  status: ('A' for Active; 'I' for Inactive)
REMARK    1  A    between atoms: C_2  and  O_3 
REMARK    2  A    between atoms: O_3  and  C_4 
REMARK       I    between atoms: N_10  and  C_11 
REMARK    3  A    between atoms: C_11  and  C_13 
REMARK    4  A    between atoms: C_13  and  C_14 
REMARK    5  A    between atoms: C_17  and  C_20 
ROOT
HETATM    1  C   UNL     1      42.039 -11.422   6.267  1.00  0.00    -0.049 A 
HETATM    2  C   UNL     1      40.988 -12.319   6.024  1.00  0.00     0.008 A 
HETATM    3  C   UNL     1      41.234 -13.690   5.933  1.00  0.00     0.014 A 
HETATM    4  C   UNL     1      42.535 -14.171   6.108  1.00  0.00    -0.005 A 
HETATM    5  C   UNL     1      43.595 -13.289   6.319  1.00  0.00     0.014 A 
HETATM    6  C   UNL     1      43.346 -11.919   6.405  1.00  0.00     0.008 A 
ENDROOT
BRANCH   1   7
HETATM    7  C   UNL     1      41.768  -9.937   6.399  1.00  0.00     0.141 C 
BRANCH   7   8
HETATM    8  C   UNL     1      40.587  -9.595   7.293  1.00  0.00     0.228 C 
HETATM    9  N   UNL     1      40.806  -9.341   8.637  1.00  0.00    -0.317 N 
HETATM   10  C   UNL     1      39.645  -9.041   9.489  1.00  0.00     0.137 A 
HETATM   11  C   UNL     1      41.973  -9.271   9.424  1.00  0.00     0.046 A 
HETATM   12  C   UNL     1      40.147  -8.834  10.916  1.00  0.00     0.061 A 
HETATM   13  C   UNL     1      41.626  -8.968  10.743  1.00  0.00    -0.029 A 
HETATM   14  C   UNL     1      42.580  -8.828  11.741  1.00  0.00     0.012 A 
HETATM   15  C   UNL     1      43.924  -8.991  11.406  1.00  0.00     0.037 A 
HETATM   16  C   UNL     1      44.291  -9.292  10.089  1.00  0.00     0.070 A 
HETATM   17  C   UNL     1      43.308  -9.436   9.095  1.00  0.00     0.067 A 
HETATM   18  O   UNL     1      39.437  -9.544   6.838  1.00  0.00    -0.273 OA
BRANCH  16  19
HETATM   19  O   UNL     1      45.574  -9.472   9.639  1.00  0.00    -0.351 OA
BRANCH  19  20
HETATM   20  C   UNL     1      45.826  -9.203   8.261  1.00  0.00     0.171 C 
HETATM   21  C   UNL     1      46.457 -10.441   7.650  1.00  0.00     0.034 C 
ENDBRANCH  19  20
ENDBRANCH  16  19
ENDBRANCH   7   8
ENDBRANCH   1   7
BRANCH   4  22
HETATM   22  C   UNL     1      42.811 -15.626   6.040  1.00  0.00     0.098 A 
HETATM   23  N   UNL     1      42.841 -16.273   7.168  1.00  0.00    -0.170 NA
HETATM   24  N   UNL     1      43.134 -17.601   7.146  1.00  0.00    -0.242 N 
HETATM   25  C   UNL     1      43.448 -18.341   6.033  1.00  0.00     0.272 A 
HETATM   26  H   UNL     1      43.172 -18.070   8.044  1.00  0.00     0.192 HD
HETATM   27  O   UNL     1      43.754 -19.527   6.097  1.00  0.00    -0.266 OA
HETATM   28  C   UNL     1      43.381 -17.635   4.745  1.00  0.00     0.046 A 
HETATM   29  C   UNL     1      43.628 -18.325   3.550  1.00  0.00     0.018 A 
HETATM   30  C   UNL     1      43.039 -16.284   4.727  1.00  0.00     0.011 A 
HETATM   31  C   UNL     1      43.515 -17.660   2.329  1.00  0.00     0.001 A 
HETATM   32  C   UNL     1      43.144 -16.317   2.303  1.00  0.00     0.001 A 
HETATM   33  C   UNL     1      42.898 -15.629   3.496  1.00  0.00     0.015 A 
ENDBRANCH   4  22
TORSDOF 5
ENDMDL
MODEL 2
REMARK VINA RESULT:      -9.0      5.603      8.541
REMARK  5 active torsions:
REMARK  status: ('A' for Active; 'I' for Inactive)
REMARK    1  A    between atoms: C_2  and  O_3 
REMARK    2  A    between atoms: O_3  and  C_4 
REMARK       I    between atoms: N_10  and  C_11 
REMARK    3  A    between atoms: C_11  and  C_13 
REMARK    4  A    between atoms: C_13  and  C_14 
REMARK    5  A    between atoms: C_17  and  C_20 
ROOT
HETATM    1  C   UNL     1      40.074 -14.344  -0.043  1.00  0.00    -0.049 A 
HETATM    2  C   UNL     1      41.161 -13.581   0.411  1.00  0.00     0.008 A 
HETATM    3  C   UNL     1      41.900 -13.993   1.522  1.00  0.00     0.014 A 
HETATM    4  C   UNL     1      41.565 -15.185   2.170  1.00  0.00    -0.005 A 
HETATM    5  C   UNL     1      40.468 -15.938   1.749  1.00  0.00     0.014 A 
HETATM    6  C   UNL     1      39.730 -15.521   0.641  1.00  0.00     0.008 A 
ENDROOT
BRANCH   1   7
HETATM    7  C   UNL     1      39.293 -13.915  -1.269  1.00  0.00     0.141 C 
BRANCH   7   8
HETATM    8  C   UNL     1      40.135 -13.250  -2.345  1.00  0.00     0.228 C 
HETATM    9  N   UNL     1      40.154 -11.868  -2.433  1.00  0.00    -0.317 N 
HETATM   10  C   UNL     1      40.953 -11.247  -3.500  1.00  0.00     0.137 A 
HETATM   11  C   UNL     1      39.565 -10.849  -1.659  1.00  0.00     0.046 A 
HETATM   12  C   UNL     1      40.782  -9.733  -3.400  1.00  0.00     0.061 A 
HETATM   13  C   UNL     1      39.919  -9.603  -2.186  1.00  0.00    -0.029 A 
HETATM   14  C   UNL     1      39.484  -8.414  -1.617  1.00  0.00     0.012 A 
HETATM   15  C   UNL     1      38.676  -8.474  -0.483  1.00  0.00     0.037 A 
HETATM   16  C   UNL     1      38.313  -9.713   0.061  1.00  0.00     0.070 A 
HETATM   17  C   UNL     1      38.759 -10.905  -0.535  1.00  0.00     0.067 A 
HETATM   18  O   UNL     1      40.799 -13.925  -3.143  1.00  0.00    -0.273 OA
BRANCH  16  19
HETATM   19  O   UNL     1      37.529  -9.899   1.170  1.00  0.00    -0.351 OA
BRANCH  19  20
HETATM   20  C   UNL     1      37.917 -10.929   2.078  1.00  0.00     0.171 C 
HETATM   21  C   UNL     1      38.727 -10.291   3.191  1.00  0.00     0.034 C 
ENDBRANCH  19  20
ENDBRANCH  16  19
ENDBRANCH   7   8
ENDBRANCH   1   7
BRANCH   4  22
HETATM   22  C   UNL     1      42.353 -15.651   3.336  1.00  0.00     0.098 A 
HETATM   23  N   UNL     1      42.474 -14.825   4.333  1.00  0.00    -0.170 NA
HETATM   24  N   UNL     1      43.226 -15.204   5.401  1.00  0.00    -0.242 N 
HETATM   25  C   UNL     1      43.922 -16.381   5.523  1.00  0.00     0.272 A 
HETATM   26  H   UNL     1      43.318 -14.527   6.151  1.00  0.00     0.192 HD
HETATM   27  O   UNL     1      44.623 -16.632   6.497  1.00  0.00    -0.266 OA
HETATM   28  C   UNL     1      43.765 -17.344   4.422  1.00  0.00     0.046 A 
HETATM   29  C   UNL     1      44.390 -18.596   4.488  1.00  0.00     0.018 A 
HETATM   30  C   UNL     1      42.964 -17.006   3.333  1.00  0.00     0.011 A 
HETATM   31  C   UNL     1      44.198 -19.522   3.463  1.00  0.00     0.001 A 
HETATM   32  C   UNL     1      43.374 -19.201   2.385  1.00  0.00     0.001 A 
HETATM   33  C   UNL     1      42.751 -17.951   2.321  1.00  0.00     0.015 A 
ENDBRANCH   4  22
TORSDOF 5
ENDMDL
MODEL 3
REMARK VINA RESULT:      -8.9      2.730      8.538
REMARK  5 active torsions:
REMARK  status: ('A' for Active; 'I' for Inactive)
REMARK    1  A    between atoms: C_2  and  O_3 
REMARK    2  A    between atoms: O_3  and  C_4 
REMARK       I    between atoms: N_10  and  C_11 
REMARK    3  A    between atoms: C_11  and  C_13 
REMARK    4  A    between atoms: C_13  and  C_14 
REMARK    5  A    between atoms: C_17  and  C_20 
ROOT
HETATM    1  C   UNL     1      43.979 -11.350   5.139  1.00  0.00    -0.049 A 
HETATM    2  C   UNL     1      45.089 -11.403   5.996  1.00  0.00     0.008 A 
HETATM    3  C   UNL     1      44.969 -11.023   7.334  1.00  0.00     0.014 A 
HETATM    4  C   UNL     1      43.727 -10.608   7.825  1.00  0.00    -0.005 A 
HETATM    5  C   UNL     1      42.622 -10.521   6.978  1.00  0.00     0.014 A 
HETATM    6  C   UNL     1      42.747 -10.898   5.640  1.00  0.00     0.008 A 
ENDROOT
BRANCH   1   7
HETATM    7  C   UNL     1      44.101 -11.795   3.696  1.00  0.00     0.141 C 
BRANCH   7   8
HETATM    8  C   UNL     1      42.818 -11.663   2.891  1.00  0.00     0.228 C 
HETATM    9  N   UNL     1      41.944 -12.735   2.829  1.00  0.00    -0.317 N 
HETATM   10  C   UNL     1      40.723 -12.595   2.021  1.00  0.00     0.137 A 
HETATM   11  C   UNL     1      41.943 -14.010   3.430  1.00  0.00     0.046 A 
HETATM   12  C   UNL     1      39.955 -13.913   2.091  1.00  0.00     0.061 A 
HETATM   13  C   UNL     1      40.800 -14.710   3.032  1.00  0.00    -0.029 A 
HETATM   14  C   UNL     1      40.534 -15.997   3.479  1.00  0.00     0.012 A 
HETATM   15  C   UNL     1      41.436 -16.598   4.355  1.00  0.00     0.037 A 
HETATM   16  C   UNL     1      42.585 -15.911   4.768  1.00  0.00     0.070 A 
HETATM   17  C   UNL     1      42.839 -14.612   4.297  1.00  0.00     0.067 A 
HETATM   18  O   UNL     1      42.547 -10.615   2.291  1.00  0.00    -0.273 OA
BRANCH  16  19
HETATM   19  O   UNL     1      43.539 -16.395   5.625  1.00  0.00    -0.351 OA
BRANCH  19  20
HETATM   20  C   UNL     1      43.592 -17.808   5.811  1.00  0.00     0.171 C 
HETATM   21  C   UNL     1      44.392 -18.402   4.665  1.00  0.00     0.034 C 
ENDBRANCH  19  20
ENDBRANCH  16  19
ENDBRANCH   7   8
ENDBRANCH   1   7
BRANCH   4  22
HETATM   22  C   UNL     1      43.575 -10.225   9.249  1.00  0.00     0.098 A 
HETATM   23  N   UNL     1      43.718 -11.169  10.132  1.00  0.00    -0.170 NA
HETATM   24  N   UNL     1      43.543 -10.861  11.445  1.00  0.00    -0.242 N 
HETATM   25  C   UNL     1      43.183  -9.635  11.947  1.00  0.00     0.272 A 
HETATM   26  H   UNL     1      43.640 -11.626  12.104  1.00  0.00     0.192 HD
HETATM   27  O   UNL     1      42.992  -9.445  13.143  1.00  0.00    -0.266 OA
HETATM   28  C   UNL     1      43.055  -8.546  10.966  1.00  0.00     0.046 A 
HETATM   29  C   UNL     1      42.747  -7.247  11.393  1.00  0.00     0.018 A 
HETATM   30  C   UNL     1      43.272  -8.818   9.617  1.00  0.00     0.011 A 
HETATM   31  C   UNL     1      42.675  -6.211  10.464  1.00  0.00     0.001 A 
HETATM   32  C   UNL     1      42.921  -6.469   9.117  1.00  0.00     0.001 A 
HETATM   33  C   UNL     1      43.227  -7.766   8.692  1.00  0.00     0.015 A 
ENDBRANCH   4  22
TORSDOF 5
ENDMDL
MODEL 4
REMARK VINA RESULT:      -8.9      2.572      3.344
REMARK  5 active torsions:
REMARK  status: ('A' for Active; 'I' for Inactive)
REMARK    1  A    between atoms: C_2  and  O_3 
REMARK    2  A    between atoms: O_3  and  C_4 
REMARK       I    between atoms: N_10  and  C_11 
REMARK    3  A    between atoms: C_11  and  C_13 
REMARK    4  A    between atoms: C_13  and  C_14 
REMARK    5  A    between atoms: C_17  and  C_20 
ROOT
HETATM    1  C   UNL     1      40.200  -9.525   6.563  1.00  0.00    -0.049 A 
HETATM    2  C   UNL     1      39.440 -10.649   6.922  1.00  0.00     0.008 A 
HETATM    3  C   UNL     1      39.378 -11.760   6.079  1.00  0.00     0.014 A 
HETATM    4  C   UNL     1      40.097 -11.758   4.880  1.00  0.00    -0.005 A 
HETATM    5  C   UNL     1      40.832 -10.636   4.496  1.00  0.00     0.014 A 
HETATM    6  C   UNL     1      40.888  -9.526   5.338  1.00  0.00     0.008 A 
ENDROOT
BRANCH   1   7
HETATM    7  C   UNL     1      40.295  -8.332   7.492  1.00  0.00     0.141 C 
BRANCH   7   8
HETATM    8  C   UNL     1      39.749  -8.582   8.888  1.00  0.00     0.228 C 
HETATM    9  N   UNL     1      40.600  -9.055   9.874  1.00  0.00    -0.317 N 
HETATM   10  C   UNL     1      40.044  -9.318  11.209  1.00  0.00     0.137 A 
HETATM   11  C   UNL     1      41.981  -9.333   9.898  1.00  0.00     0.046 A 
HETATM   12  C   UNL     1      41.167  -9.856  12.093  1.00  0.00     0.061 A 
HETATM   13  C   UNL     1      42.341  -9.786  11.171  1.00  0.00    -0.029 A 
HETATM   14  C   UNL     1      43.649 -10.129  11.486  1.00  0.00     0.012 A 
HETATM   15  C   UNL     1      44.626 -10.007  10.500  1.00  0.00     0.037 A 
HETATM   16  C   UNL     1      44.286  -9.552   9.220  1.00  0.00     0.070 A 
HETATM   17  C   UNL     1      42.954  -9.217   8.919  1.00  0.00     0.067 A 
HETATM   18  O   UNL     1      38.559  -8.374   9.154  1.00  0.00    -0.273 OA
BRANCH  16  19
HETATM   19  O   UNL     1      45.155  -9.389   8.173  1.00  0.00    -0.351 OA
BRANCH  19  20
HETATM   20  C   UNL     1      45.881 -10.540   7.743  1.00  0.00     0.171 C 
HETATM   21  C   UNL     1      45.026 -11.284   6.734  1.00  0.00     0.034 C 
ENDBRANCH  19  20
ENDBRANCH  16  19
ENDBRANCH   7   8
ENDBRANCH   1   7
BRANCH   4  22
HETATM   22  C   UNL     1      40.064 -12.939   3.985  1.00  0.00     0.098 A 
HETATM   23  N   UNL     1      39.118 -12.974   3.093  1.00  0.00    -0.170 NA
HETATM   24  N   UNL     1      39.032 -14.063   2.282  1.00  0.00    -0.242 N 
HETATM   25  C   UNL     1      39.835 -15.176   2.335  1.00  0.00     0.272 A 
HETATM   26  H   UNL     1      38.269 -14.069   1.614  1.00  0.00     0.192 HD
HETATM   27  O   UNL     1      39.664 -16.145   1.603  1.00  0.00    -0.266 OA
HETATM   28  C   UNL     1      40.934 -15.136   3.311  1.00  0.00     0.046 A 
HETATM   29  C   UNL     1      41.840 -16.202   3.395  1.00  0.00     0.018 A 
HETATM   30  C   UNL     1      41.078 -14.015   4.126  1.00  0.00     0.011 A 
HETATM   31  C   UNL     1      42.907 -16.136   4.289  1.00  0.00     0.001 A 
HETATM   32  C   UNL     1      43.075 -15.004   5.086  1.00  0.00     0.001 A 
HETATM   33  C   UNL     1      42.170 -13.941   5.002  1.00  0.00     0.015 A 
ENDBRANCH   4  22
TORSDOF 5
ENDMDL
MODEL 5
REMARK VINA RESULT:      -8.6      2.278      9.681
REMARK  5 active torsions:
REMARK  status: ('A' for Active; 'I' for Inactive)
REMARK    1  A    between atoms: C_2  and  O_3 
REMARK    2  A    between atoms: O_3  and  C_4 
REMARK       I    between atoms: N_10  and  C_11 
REMARK    3  A    between atoms: C_11  and  C_13 
REMARK    4  A    between atoms: C_13  and  C_14 
REMARK    5  A    between atoms: C_17  and  C_20 
ROOT
HETATM    1  C   UNL     1      43.172 -12.210   6.280  1.00  0.00    -0.049 A 
HETATM    2  C   UNL     1      44.317 -11.707   6.917  1.00  0.00     0.008 A 
HETATM    3  C   UNL     1      44.253 -10.527   7.660  1.00  0.00     0.014 A 
HETATM    4  C   UNL     1      43.033  -9.856   7.786  1.00  0.00    -0.005 A 
HETATM    5  C   UNL     1      41.893 -10.327   7.133  1.00  0.00     0.014 A 
HETATM    6  C   UNL     1      41.962 -11.505   6.388  1.00  0.00     0.008 A 
ENDROOT
BRANCH   1   7
HETATM    7  C   UNL     1      43.233 -13.509   5.502  1.00  0.00     0.141 C 
BRANCH   7   8
HETATM    8  C   UNL     1      42.910 -13.368   4.024  1.00  0.00     0.228 C 
HETATM    9  N   UNL     1      42.973 -14.484   3.207  1.00  0.00    -0.317 N 
HETATM   10  C   UNL     1      42.686 -14.318   1.774  1.00  0.00     0.137 A 
HETATM   11  C   UNL     1      43.239 -15.845   3.458  1.00  0.00     0.046 A 
HETATM   12  C   UNL     1      42.852 -15.677   1.097  1.00  0.00     0.061 A 
HETATM   13  C   UNL     1      43.165 -16.562   2.260  1.00  0.00    -0.029 A 
HETATM   14  C   UNL     1      43.376 -17.932   2.210  1.00  0.00     0.012 A 
HETATM   15  C   UNL     1      43.664 -18.607   3.395  1.00  0.00     0.037 A 
HETATM   16  C   UNL     1      43.739 -17.906   4.606  1.00  0.00     0.070 A 
HETATM   17  C   UNL     1      43.529 -16.517   4.634  1.00  0.00     0.067 A 
HETATM   18  O   UNL     1      42.598 -12.271   3.542  1.00  0.00    -0.273 OA
BRANCH  16  19
HETATM   19  O   UNL     1      44.011 -18.457   5.831  1.00  0.00    -0.351 OA
BRANCH  19  20
HETATM   20  C   UNL     1      43.405 -19.714   6.130  1.00  0.00     0.171 C 
HETATM   21  C   UNL     1      44.269 -20.806   5.525  1.00  0.00     0.034 C 
ENDBRANCH  19  20
ENDBRANCH  16  19
ENDBRANCH   7   8
ENDBRANCH   1   7
BRANCH   4  22
HETATM   22  C   UNL     1      42.940  -8.615   8.591  1.00  0.00     0.098 A 
HETATM   23  N   UNL     1      42.887  -7.492   7.937  1.00  0.00    -0.170 NA
HETATM   24  N   UNL     1      42.844  -6.331   8.645  1.00  0.00    -0.242 N 
HETATM   25  C   UNL     1      42.893  -6.216  10.013  1.00  0.00     0.272 A 
HETATM   26  H   UNL     1      42.827  -5.473   8.105  1.00  0.00     0.192 HD
HETATM   27  O   UNL     1      42.902  -5.129  10.581  1.00  0.00    -0.266 OA
HETATM   28  C   UNL     1      42.913  -7.478  10.769  1.00  0.00     0.046 A 
HETATM   29  C   UNL     1      42.903  -7.459  12.170  1.00  0.00     0.018 A 
HETATM   30  C   UNL     1      42.911  -8.686  10.075  1.00  0.00     0.011 A 
HETATM   31  C   UNL     1      42.874  -8.658  12.880  1.00  0.00     0.001 A 
HETATM   32  C   UNL     1      42.842  -9.870  12.192  1.00  0.00     0.001 A 
HETATM   33  C   UNL     1      42.852  -9.888  10.793  1.00  0.00     0.015 A 
ENDBRANCH   4  22
TORSDOF 5
ENDMDL
MODEL 6
REMARK VINA RESULT:      -8.5      6.570     10.416
REMARK  5 active torsions:
REMARK  status: ('A' for Active; 'I' for Inactive)
REMARK    1  A    between atoms: C_2  and  O_3 
REMARK    2  A    between atoms: O_3  and  C_4 
REMARK       I    between atoms: N_10  and  C_11 
REMARK    3  A    between atoms: C_11  and  C_13 
REMARK    4  A    between atoms: C_13  and  C_14 
REMARK    5  A    between atoms: C_17  and  C_20 
ROOT
HETATM    1  C   UNL     1      41.570  -7.799  15.617  1.00  0.00    -0.049 A 
HETATM    2  C   UNL     1      42.625  -6.959  15.230  1.00  0.00     0.008 A 
HETATM    3  C   UNL     1      42.940  -6.793  13.880  1.00  0.00     0.014 A 
HETATM    4  C   UNL     1      42.182  -7.453  12.908  1.00  0.00    -0.005 A 
HETATM    5  C   UNL     1      41.150  -8.315  13.279  1.00  0.00     0.014 A 
HETATM    6  C   UNL     1      40.841  -8.482  14.629  1.00  0.00     0.008 A 
ENDROOT
BRANCH   1   7
HETATM    7  C   UNL     1      41.206  -7.952  17.080  1.00  0.00     0.141 C 
BRANCH   7   8
HETATM    8  C   UNL     1      41.818  -6.900  17.989  1.00  0.00     0.228 C 
HETATM    9  N   UNL     1      41.284  -5.622  18.001  1.00  0.00    -0.317 N 
HETATM   10  C   UNL     1      41.910  -4.611  18.867  1.00  0.00     0.137 A 
HETATM   11  C   UNL     1      40.182  -5.035  17.347  1.00  0.00     0.046 A 
HETATM   12  C   UNL     1      41.163  -3.293  18.674  1.00  0.00     0.061 A 
HETATM   13  C   UNL     1      40.079  -3.693  17.725  1.00  0.00    -0.029 A 
HETATM   14  C   UNL     1      39.074  -2.868  17.239  1.00  0.00     0.012 A 
HETATM   15  C   UNL     1      38.141  -3.404  16.353  1.00  0.00     0.037 A 
HETATM   16  C   UNL     1      38.227  -4.747  15.965  1.00  0.00     0.070 A 
HETATM   17  C   UNL     1      39.256  -5.563  16.464  1.00  0.00     0.067 A 
HETATM   18  O   UNL     1      42.784  -7.168  18.715  1.00  0.00    -0.273 OA
BRANCH  16  19
HETATM   19  O   UNL     1      37.370  -5.386  15.106  1.00  0.00    -0.351 OA
BRANCH  19  20
HETATM   20  C   UNL     1      37.596  -5.208  13.709  1.00  0.00     0.171 C 
HETATM   21  C   UNL     1      37.766  -6.581  13.083  1.00  0.00     0.034 C 
ENDBRANCH  19  20
ENDBRANCH  16  19
ENDBRANCH   7   8
ENDBRANCH   1   7
BRANCH   4  22
HETATM   22  C   UNL     1      42.486  -7.270  11.469  1.00  0.00     0.098 A 
HETATM   23  N   UNL     1      41.890  -6.285  10.863  1.00  0.00    -0.170 NA
HETATM   24  N   UNL     1      42.113  -6.114   9.532  1.00  0.00    -0.242 N 
HETATM   25  C   UNL     1      42.890  -6.916   8.732  1.00  0.00     0.272 A 
HETATM   26  H   UNL     1      41.615  -5.351   9.085  1.00  0.00     0.192 HD
HETATM   27  O   UNL     1      43.002  -6.729   7.525  1.00  0.00    -0.266 OA
HETATM   28  C   UNL     1      43.602  -8.010   9.409  1.00  0.00     0.046 A 
HETATM   29  C   UNL     1      44.464  -8.844   8.683  1.00  0.00     0.018 A 
HETATM   30  C   UNL     1      43.432  -8.186  10.781  1.00  0.00     0.011 A 
HETATM   31  C   UNL     1      45.172  -9.849   9.340  1.00  0.00     0.001 A 
HETATM   32  C   UNL     1      45.030 -10.011  10.718  1.00  0.00     0.001 A 
HETATM   33  C   UNL     1      44.169  -9.179  11.440  1.00  0.00     0.015 A 
ENDBRANCH   4  22
TORSDOF 5
ENDMDL
MODEL 7
REMARK VINA RESULT:      -8.5      4.773      6.993
REMARK  5 active torsions:
REMARK  status: ('A' for Active; 'I' for Inactive)
REMARK    1  A    between atoms: C_2  and  O_3 
REMARK    2  A    between atoms: O_3  and  C_4 
REMARK       I    between atoms: N_10  and  C_11 
REMARK    3  A    between atoms: C_11  and  C_13 
REMARK    4  A    between atoms: C_13  and  C_14 
REMARK    5  A    between atoms: C_17  and  C_20 
ROOT
HETATM    1  C   UNL     1      40.484 -14.243   0.649  1.00  0.00    -0.049 A 
HETATM    2  C   UNL     1      41.800 -13.946   1.035  1.00  0.00     0.008 A 
HETATM    3  C   UNL     1      42.531 -14.848   1.811  1.00  0.00     0.014 A 
HETATM    4  C   UNL     1      41.951 -16.063   2.186  1.00  0.00    -0.005 A 
HETATM    5  C   UNL     1      40.633 -16.358   1.836  1.00  0.00     0.014 A 
HETATM    6  C   UNL     1      39.904 -15.453   1.064  1.00  0.00     0.008 A 
ENDROOT
BRANCH   1   7
HETATM    7  C   UNL     1      39.703 -13.280  -0.223  1.00  0.00     0.141 C 
BRANCH   7   8
HETATM    8  C   UNL     1      40.560 -12.252  -0.941  1.00  0.00     0.228 C 
HETATM    9  N   UNL     1      40.758 -11.010  -0.361  1.00  0.00    -0.317 N 
HETATM   10  C   UNL     1      41.566 -10.020  -1.088  1.00  0.00     0.137 A 
HETATM   11  C   UNL     1      40.356 -10.449   0.868  1.00  0.00     0.046 A 
HETATM   12  C   UNL     1      41.605  -8.738  -0.258  1.00  0.00     0.061 A 
HETATM   13  C   UNL     1      40.841  -9.141   0.962  1.00  0.00    -0.029 A 
HETATM   14  C   UNL     1      40.603  -8.348   2.076  1.00  0.00     0.012 A 
HETATM   15  C   UNL     1      39.863  -8.882   3.130  1.00  0.00     0.037 A 
HETATM   16  C   UNL     1      39.372 -10.192   3.055  1.00  0.00     0.070 A 
HETATM   17  C   UNL     1      39.619 -10.976   1.915  1.00  0.00     0.067 A 
HETATM   18  O   UNL     1      41.079 -12.507  -2.036  1.00  0.00    -0.273 OA
BRANCH  16  19
HETATM   19  O   UNL     1      38.638 -10.825   4.024  1.00  0.00    -0.351 OA
BRANCH  19  20
HETATM   20  C   UNL     1      39.318 -11.189   5.224  1.00  0.00     0.171 C 
HETATM   21  C   UNL     1      39.686 -12.659   5.126  1.00  0.00     0.034 C 
ENDBRANCH  19  20
ENDBRANCH  16  19
ENDBRANCH   7   8
ENDBRANCH   1   7
BRANCH   4  22
HETATM   22  C   UNL     1      42.720 -17.043   2.990  1.00  0.00     0.098 A 
HETATM   23  N   UNL     1      43.293 -18.015   2.341  1.00  0.00    -0.170 NA
HETATM   24  N   UNL     1      43.971 -18.956   3.052  1.00  0.00    -0.242 N 
HETATM   25  C   UNL     1      44.084 -19.012   4.419  1.00  0.00     0.272 A 
HETATM   26  H   UNL     1      44.386 -19.712   2.518  1.00  0.00     0.192 HD
HETATM   27  O   UNL     1      44.669 -19.923   4.994  1.00  0.00    -0.266 OA
HETATM   28  C   UNL     1      43.475 -17.900   5.165  1.00  0.00     0.046 A 
HETATM   29  C   UNL     1      43.591 -17.842   6.561  1.00  0.00     0.018 A 
HETATM   30  C   UNL     1      42.812 -16.895   4.465  1.00  0.00     0.011 A 
HETATM   31  C   UNL     1      43.053 -16.761   7.257  1.00  0.00     0.001 A 
HETATM   32  C   UNL     1      42.414 -15.736   6.560  1.00  0.00     0.001 A 
HETATM   33  C   UNL     1      42.299 -15.795   5.167  1.00  0.00     0.015 A 
ENDBRANCH   4  22
TORSDOF 5
ENDMDL
MODEL 8
REMARK VINA RESULT:      -8.4      5.216      7.969
REMARK  5 active torsions:
REMARK  status: ('A' for Active; 'I' for Inactive)
REMARK    1  A    between atoms: C_2  and  O_3 
REMARK    2  A    between atoms: O_3  and  C_4 
REMARK       I    between atoms: N_10  and  C_11 
REMARK    3  A    between atoms: C_11  and  C_13 
REMARK    4  A    between atoms: C_13  and  C_14 
REMARK    5  A    between atoms: C_17  and  C_20 
ROOT
HETATM    1  C   UNL     1      40.542 -14.223   0.913  1.00  0.00    -0.049 A 
HETATM    2  C   UNL     1      39.915 -15.404   1.339  1.00  0.00     0.008 A 
HETATM    3  C   UNL     1      40.635 -16.378   2.032  1.00  0.00     0.014 A 
HETATM    4  C   UNL     1      41.986 -16.163   2.320  1.00  0.00    -0.005 A 
HETATM    5  C   UNL     1      42.631 -15.008   1.876  1.00  0.00     0.014 A 
HETATM    6  C   UNL     1      41.909 -14.039   1.180  1.00  0.00     0.008 A 
ENDROOT
BRANCH   1   7
HETATM    7  C   UNL     1      39.753 -13.150   0.191  1.00  0.00     0.141 C 
BRANCH   7   8
HETATM    8  C   UNL     1      40.082 -13.020  -1.287  1.00  0.00     0.228 C 
HETATM    9  N   UNL     1      40.440 -11.783  -1.795  1.00  0.00    -0.317 N 
HETATM   10  C   UNL     1      40.725 -11.674  -3.234  1.00  0.00     0.137 A 
HETATM   11  C   UNL     1      40.635 -10.520  -1.201  1.00  0.00     0.046 A 
HETATM   12  C   UNL     1      41.060 -10.217  -3.542  1.00  0.00     0.061 A 
HETATM   13  C   UNL     1      41.006  -9.597  -2.183  1.00  0.00    -0.029 A 
HETATM   14  C   UNL     1      41.272  -8.269  -1.880  1.00  0.00     0.012 A 
HETATM   15  C   UNL     1      41.169  -7.854  -0.553  1.00  0.00     0.037 A 
HETATM   16  C   UNL     1      40.802  -8.765   0.445  1.00  0.00     0.070 A 
HETATM   17  C   UNL     1      40.530 -10.104   0.116  1.00  0.00     0.067 A 
HETATM   18  O   UNL     1      40.031 -14.001  -2.040  1.00  0.00    -0.273 OA
BRANCH  16  19
HETATM   19  O   UNL     1      40.671  -8.477   1.779  1.00  0.00    -0.351 OA
BRANCH  19  20
HETATM   20  C   UNL     1      40.683  -9.577   2.687  1.00  0.00     0.171 C 
HETATM   21  C   UNL     1      41.247  -9.087   4.009  1.00  0.00     0.034 C 
ENDBRANCH  19  20
ENDBRANCH  16  19
ENDBRANCH   7   8
ENDBRANCH   1   7
BRANCH   4  22
HETATM   22  C   UNL     1      42.761 -17.175   3.076  1.00  0.00     0.098 A 
HETATM   23  N   UNL     1      43.299 -18.140   2.388  1.00  0.00    -0.170 NA
HETATM   24  N   UNL     1      43.982 -19.109   3.055  1.00  0.00    -0.242 N 
HETATM   25  C   UNL     1      44.133 -19.201   4.417  1.00  0.00     0.272 A 
HETATM   26  H   UNL     1      44.369 -19.858   2.491  1.00  0.00     0.192 HD
HETATM   27  O   UNL     1      44.719 -20.135   4.952  1.00  0.00    -0.266 OA
HETATM   28  C   UNL     1      43.565 -18.098   5.207  1.00  0.00     0.046 A 
HETATM   29  C   UNL     1      43.721 -18.077   6.600  1.00  0.00     0.018 A 
HETATM   30  C   UNL     1      42.898 -17.065   4.551  1.00  0.00     0.011 A 
HETATM   31  C   UNL     1      43.222 -17.005   7.337  1.00  0.00     0.001 A 
HETATM   32  C   UNL     1      42.581 -15.953   6.685  1.00  0.00     0.001 A 
HETATM   33  C   UNL     1      42.425 -15.975   5.295  1.00  0.00     0.015 A 
ENDBRANCH   4  22
TORSDOF 5
ENDMDL
MODEL 9
REMARK VINA RESULT:      -8.2      6.691     10.409
REMARK  5 active torsions:
REMARK  status: ('A' for Active; 'I' for Inactive)
REMARK    1  A    between atoms: C_2  and  O_3 
REMARK    2  A    between atoms: O_3  and  C_4 
REMARK       I    between atoms: N_10  and  C_11 
REMARK    3  A    between atoms: C_11  and  C_13 
REMARK    4  A    between atoms: C_13  and  C_14 
REMARK    5  A    between atoms: C_17  and  C_20 
ROOT
HETATM    1  C   UNL     1      41.588  -7.956  15.576  1.00  0.00    -0.049 A 
HETATM    2  C   UNL     1      42.627  -7.099  15.183  1.00  0.00     0.008 A 
HETATM    3  C   UNL     1      43.181  -7.197  13.906  1.00  0.00     0.014 A 
HETATM    4  C   UNL     1      42.680  -8.143  13.006  1.00  0.00    -0.005 A 
HETATM    5  C   UNL     1      41.668  -9.022  13.393  1.00  0.00     0.014 A 
HETATM    6  C   UNL     1      41.120  -8.924  14.672  1.00  0.00     0.008 A 
ENDROOT
BRANCH   1   7
HETATM    7  C   UNL     1      40.962  -7.828  16.950  1.00  0.00     0.141 C 
BRANCH   7   8
HETATM    8  C   UNL     1      41.619  -6.785  17.840  1.00  0.00     0.228 C 
HETATM    9  N   UNL     1      41.128  -5.490  17.841  1.00  0.00    -0.317 N 
HETATM   10  C   UNL     1      41.797  -4.490  18.687  1.00  0.00     0.137 A 
HETATM   11  C   UNL     1      40.039  -4.874  17.191  1.00  0.00     0.046 A 
HETATM   12  C   UNL     1      41.093  -3.151  18.485  1.00  0.00     0.061 A 
HETATM   13  C   UNL     1      39.986  -3.525  17.553  1.00  0.00    -0.029 A 
HETATM   14  C   UNL     1      39.004  -2.673  17.067  1.00  0.00     0.012 A 
HETATM   15  C   UNL     1      38.044  -3.188  16.198  1.00  0.00     0.037 A 
HETATM   16  C   UNL     1      38.080  -4.538  15.827  1.00  0.00     0.070 A 
HETATM   17  C   UNL     1      39.087  -5.382  16.325  1.00  0.00     0.067 A 
HETATM   18  O   UNL     1      42.583  -7.076  18.558  1.00  0.00    -0.273 OA
BRANCH  16  19
HETATM   19  O   UNL     1      37.193  -5.158  14.985  1.00  0.00    -0.351 OA
BRANCH  19  20
HETATM   20  C   UNL     1      37.541  -5.220  13.602  1.00  0.00     0.171 C 
HETATM   21  C   UNL     1      37.761  -6.678  13.240  1.00  0.00     0.034 C 
ENDBRANCH  19  20
ENDBRANCH  16  19
ENDBRANCH   7   8
ENDBRANCH   1   7
BRANCH   4  22
HETATM   22  C   UNL     1      43.239  -8.245  11.638  1.00  0.00     0.098 A 
HETATM   23  N   UNL     1      44.210  -9.092  11.460  1.00  0.00    -0.170 NA
HETATM   24  N   UNL     1      44.775  -9.181  10.226  1.00  0.00    -0.242 N 
HETATM   25  C   UNL     1      44.446  -8.422   9.129  1.00  0.00     0.272 A 
HETATM   26  H   UNL     1      45.544  -9.835  10.127  1.00  0.00     0.192 HD
HETATM   27  O   UNL     1      45.037  -8.523   8.059  1.00  0.00    -0.266 OA
HETATM   28  C   UNL     1      43.325  -7.487   9.302  1.00  0.00     0.046 A 
HETATM   29  C   UNL     1      42.881  -6.713   8.220  1.00  0.00     0.018 A 
HETATM   30  C   UNL     1      42.694  -7.404  10.541  1.00  0.00     0.011 A 
HETATM   31  C   UNL     1      41.787  -5.864   8.378  1.00  0.00     0.001 A 
HETATM   32  C   UNL     1      41.132  -5.799   9.607  1.00  0.00     0.001 A 
HETATM   33  C   UNL     1      41.576  -6.570  10.685  1.00  0.00     0.015 A 
ENDBRANCH   4  22
TORSDOF 5
ENDMDL
MODEL 10
REMARK VINA RESULT:      -8.1      2.724      8.291
REMARK  5 active torsions:
REMARK  status: ('A' for Active; 'I' for Inactive)
REMARK    1  A    between atoms: C_2  and  O_3 
REMARK    2  A    between atoms: O_3  and  C_4 
REMARK       I    between atoms: N_10  and  C_11 
REMARK    3  A    between atoms: C_11  and  C_13 
REMARK    4  A    between atoms: C_13  and  C_14 
REMARK    5  A    between atoms: C_17  and  C_20 
ROOT
HETATM    1  C   UNL     1      40.004 -12.449   4.287  1.00  0.00    -0.049 A 
HETATM    2  C   UNL     1      41.024 -11.646   3.754  1.00  0.00     0.008 A 
HETATM    3  C   UNL     1      41.686 -10.717   4.558  1.00  0.00     0.014 A 
HETATM    4  C   UNL     1      41.343 -10.603   5.908  1.00  0.00    -0.005 A 
HETATM    5  C   UNL     1      40.310 -11.372   6.445  1.00  0.00     0.014 A 
HETATM    6  C   UNL     1      39.647 -12.297   5.638  1.00  0.00     0.008 A 
ENDROOT
BRANCH   1   7
HETATM    7  C   UNL     1      39.307 -13.482   3.425  1.00  0.00     0.141 C 
BRANCH   7   8
HETATM    8  C   UNL     1      40.040 -13.814   2.135  1.00  0.00     0.228 C 
HETATM    9  N   UNL     1      41.103 -14.701   2.169  1.00  0.00    -0.317 N 
HETATM   10  C   UNL     1      41.815 -14.986   0.914  1.00  0.00     0.137 A 
HETATM   11  C   UNL     1      41.680 -15.470   3.200  1.00  0.00     0.046 A 
HETATM   12  C   UNL     1      42.952 -15.957   1.225  1.00  0.00     0.061 A 
HETATM   13  C   UNL     1      42.744 -16.215   2.682  1.00  0.00    -0.029 A 
HETATM   14  C   UNL     1      43.493 -17.073   3.475  1.00  0.00     0.012 A 
HETATM   15  C   UNL     1      43.165 -17.193   4.825  1.00  0.00     0.037 A 
HETATM   16  C   UNL     1      42.101 -16.456   5.360  1.00  0.00     0.070 A 
HETATM   17  C   UNL     1      41.359 -15.588   4.541  1.00  0.00     0.067 A 
HETATM   18  O   UNL     1      39.702 -13.303   1.060  1.00  0.00    -0.273 OA
BRANCH  16  19
HETATM   19  O   UNL     1      41.683 -16.491   6.665  1.00  0.00    -0.351 OA
BRANCH  19  20
HETATM   20  C   UNL     1      42.329 -15.609   7.581  1.00  0.00     0.171 C 
HETATM   21  C   UNL     1      43.550 -16.321   8.134  1.00  0.00     0.034 C 
ENDBRANCH  19  20
ENDBRANCH  16  19
ENDBRANCH   7   8
ENDBRANCH   1   7
BRANCH   4  22
HETATM   22  C   UNL     1      42.052  -9.639   6.783  1.00  0.00     0.098 A 
HETATM   23  N   UNL     1      41.408  -8.558   7.112  1.00  0.00    -0.170 NA
HETATM   24  N   UNL     1      42.044  -7.632   7.879  1.00  0.00    -0.242 N 
HETATM   25  C   UNL     1      43.343  -7.702   8.320  1.00  0.00     0.272 A 
HETATM   26  H   UNL     1      41.521  -6.791   8.098  1.00  0.00     0.192 HD
HETATM   27  O   UNL     1      43.867  -6.801   8.966  1.00  0.00    -0.266 OA
HETATM   28  C   UNL     1      44.073  -8.935   7.990  1.00  0.00     0.046 A 
HETATM   29  C   UNL     1      45.385  -9.120   8.448  1.00  0.00     0.018 A 
HETATM   30  C   UNL     1      43.435  -9.924   7.244  1.00  0.00     0.011 A 
HETATM   31  C   UNL     1      46.054 -10.311   8.172  1.00  0.00     0.001 A 
HETATM   32  C   UNL     1      45.411 -11.317   7.453  1.00  0.00     0.001 A 
HETATM   33  C   UNL     1      44.103 -11.131   6.995  1.00  0.00     0.015 A 
ENDBRANCH   4  22
TORSDOF 5
ENDMDL
