MODEL 1
REMARK VINA RESULT:      -7.7      0.000      0.000
REMARK  2 active torsions:
REMARK  status: ('A' for Active; 'I' for Inactive)
REMARK    1  A    between atoms: C_8  and  S_9 
REMARK    2  A    between atoms: S_9  and  C_10 
ROOT
HETATM    1  C   UNL     1      43.579 -20.595   2.580  1.00  0.00     0.002 A 
HETATM    2  C   UNL     1      43.380 -19.254   2.248  1.00  0.00     0.034 A 
HETATM    3  C   UNL     1      43.524 -18.246   3.195  1.00  0.00     0.087 A 
HETATM    4  C   UNL     1      43.868 -18.600   4.526  1.00  0.00     0.087 A 
HETATM    5  N   UNL     1      44.001 -17.668   5.487  1.00  0.00    -0.232 NA
HETATM    6  C   UNL     1      43.784 -16.384   5.127  1.00  0.00     0.164 A 
HETATM    7 CL   UNL     1      43.909 -15.281   6.433  1.00  0.00    -0.059 Cl
HETATM    8  C   UNL     1      43.465 -16.033   3.824  1.00  0.00     0.165 A 
HETATM    9  N   UNL     1      43.333 -16.956   2.834  1.00  0.00    -0.234 NA
HETATM   10  C   UNL     1      44.070 -19.937   4.842  1.00  0.00     0.034 A 
HETATM   11  C   UNL     1      43.929 -20.937   3.880  1.00  0.00     0.002 A 
ENDROOT
BRANCH   8  12
HETATM   12  S   UNL     1      43.144 -14.354   3.281  1.00  0.00     0.078 S 
HETATM   13  O   UNL     1      43.312 -14.364   1.790  1.00  0.00    -0.251 OA
BRANCH  12  14
HETATM   14  C   UNL     1      41.343 -14.205   3.576  1.00  0.00     0.112 C 
HETATM   15  C   UNL     1      40.573 -14.488   2.282  1.00  0.00     0.250 C 
HETATM   16  N   UNL     1      39.105 -14.229   2.482  1.00  0.00    -0.074 N 
HETATM   17  H   UNL     1      38.717 -14.907   3.154  1.00  0.00     0.277 HD
HETATM   18  H   UNL     1      38.618 -14.412   1.593  1.00  0.00     0.277 HD
HETATM   19  C   UNL     1      38.796 -12.835   2.920  1.00  0.00     0.232 C 
HETATM   20  C   UNL     1      39.534 -12.548   4.219  1.00  0.00     0.029 C 
HETATM   21  C   UNL     1      41.039 -12.784   4.077  1.00  0.00     0.021 C 
ENDBRANCH  12  14
ENDBRANCH   8  12
TORSDOF 2
ENDMDL
MODEL 2
REMARK VINA RESULT:      -7.2      1.783      2.095
REMARK  2 active torsions:
REMARK  status: ('A' for Active; 'I' for Inactive)
REMARK    1  A    between atoms: C_8  and  S_9 
REMARK    2  A    between atoms: S_9  and  C_10 
ROOT
HETATM    1  C   UNL     1      43.574 -19.917   2.551  1.00  0.00     0.002 A 
HETATM    2  C   UNL     1      43.120 -18.630   2.260  1.00  0.00     0.034 A 
HETATM    3  C   UNL     1      43.191 -17.609   3.202  1.00  0.00     0.087 A 
HETATM    4  C   UNL     1      43.726 -17.896   4.485  1.00  0.00     0.087 A 
HETATM    5  N   UNL     1      43.800 -16.952   5.440  1.00  0.00    -0.232 NA
HETATM    6  C   UNL     1      43.336 -15.724   5.122  1.00  0.00     0.164 A 
HETATM    7 CL   UNL     1      43.409 -14.611   6.424  1.00  0.00    -0.059 Cl
HETATM    8  C   UNL     1      42.828 -15.436   3.865  1.00  0.00     0.165 A 
HETATM    9  N   UNL     1      42.751 -16.371   2.880  1.00  0.00    -0.234 NA
HETATM   10  C   UNL     1      44.180 -19.179   4.759  1.00  0.00     0.034 A 
HETATM   11  C   UNL     1      44.110 -20.191   3.802  1.00  0.00     0.002 A 
ENDROOT
BRANCH   8  12
HETATM   12  S   UNL     1      42.177 -13.836   3.382  1.00  0.00     0.078 S 
HETATM   13  O   UNL     1      43.356 -12.909   3.332  1.00  0.00    -0.251 OA
BRANCH  12  14
HETATM   14  C   UNL     1      41.707 -14.137   1.637  1.00  0.00     0.112 C 
HETATM   15  C   UNL     1      41.592 -12.805   0.888  1.00  0.00     0.250 C 
HETATM   16  N   UNL     1      41.070 -13.035  -0.504  1.00  0.00    -0.074 N 
HETATM   17  H   UNL     1      41.758 -13.570  -1.054  1.00  0.00     0.277 HD
HETATM   18  H   UNL     1      40.989 -12.123  -0.977  1.00  0.00     0.277 HD
HETATM   19  C   UNL     1      39.741 -13.715  -0.542  1.00  0.00     0.232 C 
HETATM   20  C   UNL     1      39.847 -15.051   0.178  1.00  0.00     0.029 C 
HETATM   21  C   UNL     1      40.364 -14.883   1.607  1.00  0.00     0.021 C 
ENDBRANCH  12  14
ENDBRANCH   8  12
TORSDOF 2
ENDMDL
MODEL 3
REMARK VINA RESULT:      -7.0      3.111      4.137
REMARK  2 active torsions:
REMARK  status: ('A' for Active; 'I' for Inactive)
REMARK    1  A    between atoms: C_8  and  S_9 
REMARK    2  A    between atoms: S_9  and  C_10 
ROOT
HETATM    1  C   UNL     1      44.343 -18.823   4.379  1.00  0.00     0.002 A 
HETATM    2  C   UNL     1      44.082 -17.489   4.697  1.00  0.00     0.034 A 
HETATM    3  C   UNL     1      43.355 -16.671   3.839  1.00  0.00     0.087 A 
HETATM    4  C   UNL     1      42.884 -17.210   2.613  1.00  0.00     0.087 A 
HETATM    5  N   UNL     1      42.193 -16.459   1.737  1.00  0.00    -0.232 NA
HETATM    6  C   UNL     1      41.976 -15.170   2.076  1.00  0.00     0.164 A 
HETATM    7 CL   UNL     1      41.149 -14.278   0.867  1.00  0.00    -0.059 Cl
HETATM    8  C   UNL     1      42.419 -14.645   3.280  1.00  0.00     0.165 A 
HETATM    9  N   UNL     1      43.112 -15.386   4.185  1.00  0.00    -0.234 NA
HETATM   10  C   UNL     1      43.146 -18.540   2.312  1.00  0.00     0.034 A 
HETATM   11  C   UNL     1      43.870 -19.350   3.185  1.00  0.00     0.002 A 
ENDROOT
BRANCH   8  12
HETATM   12  S   UNL     1      42.184 -12.940   3.785  1.00  0.00     0.078 S 
HETATM   13  O   UNL     1      40.817 -12.877   4.403  1.00  0.00    -0.251 OA
BRANCH  12  14
HETATM   14  C   UNL     1      43.365 -12.798   5.177  1.00  0.00     0.112 C 
HETATM   15  C   UNL     1      42.604 -12.626   6.496  1.00  0.00     0.250 C 
HETATM   16  N   UNL     1      43.566 -12.367   7.623  1.00  0.00    -0.074 N 
HETATM   17  H   UNL     1      44.152 -13.200   7.782  1.00  0.00     0.277 HD
HETATM   18  H   UNL     1      43.025 -12.242   8.491  1.00  0.00     0.277 HD
HETATM   19  C   UNL     1      44.425 -11.164   7.414  1.00  0.00     0.232 C 
HETATM   20  C   UNL     1      45.206 -11.332   6.120  1.00  0.00     0.029 C 
HETATM   21  C   UNL     1      44.280 -11.588   4.930  1.00  0.00     0.021 C 
ENDBRANCH  12  14
ENDBRANCH   8  12
TORSDOF 2
ENDMDL
MODEL 4
REMARK VINA RESULT:      -6.9      3.272      4.179
REMARK  2 active torsions:
REMARK  status: ('A' for Active; 'I' for Inactive)
REMARK    1  A    between atoms: C_8  and  S_9 
REMARK    2  A    between atoms: S_9  and  C_10 
ROOT
HETATM    1  C   UNL     1      43.573 -17.937   2.740  1.00  0.00     0.002 A 
HETATM    2  C   UNL     1      42.827 -17.006   2.017  1.00  0.00     0.034 A 
HETATM    3  C   UNL     1      42.100 -16.009   2.657  1.00  0.00     0.087 A 
HETATM    4  C   UNL     1      42.113 -15.954   4.076  1.00  0.00     0.087 A 
HETATM    5  N   UNL     1      41.412 -15.023   4.747  1.00  0.00    -0.232 NA
HETATM    6  C   UNL     1      40.692 -14.151   4.009  1.00  0.00     0.164 A 
HETATM    7 CL   UNL     1      39.780 -13.049   4.955  1.00  0.00    -0.059 Cl
HETATM    8  C   UNL     1      40.690 -14.190   2.623  1.00  0.00     0.165 A 
HETATM    9  N   UNL     1      41.397 -15.117   1.922  1.00  0.00    -0.234 NA
HETATM   10  C   UNL     1      42.865 -16.882   4.783  1.00  0.00     0.034 A 
HETATM   11  C   UNL     1      43.595 -17.873   4.127  1.00  0.00     0.002 A 
ENDROOT
BRANCH   8  12
HETATM   12  S   UNL     1      39.742 -13.079   1.583  1.00  0.00     0.078 S 
HETATM   13  O   UNL     1      40.153 -11.691   1.980  1.00  0.00    -0.251 OA
BRANCH  12  14
HETATM   14  C   UNL     1      40.499 -13.370  -0.059  1.00  0.00     0.112 C 
HETATM   15  C   UNL     1      41.018 -12.050  -0.639  1.00  0.00     0.250 C 
HETATM   16  N   UNL     1      41.512 -12.258  -2.045  1.00  0.00    -0.074 N 
HETATM   17  H   UNL     1      42.341 -12.869  -2.039  1.00  0.00     0.277 HD
HETATM   18  H   UNL     1      41.840 -11.353  -2.412  1.00  0.00     0.277 HD
HETATM   19  C   UNL     1      40.475 -12.804  -2.970  1.00  0.00     0.232 C 
HETATM   20  C   UNL     1      39.968 -14.128  -2.420  1.00  0.00     0.029 C 
HETATM   21  C   UNL     1      39.441 -13.981  -0.991  1.00  0.00     0.021 C 
ENDBRANCH  12  14
ENDBRANCH   8  12
TORSDOF 2
ENDMDL
MODEL 5
REMARK VINA RESULT:      -6.6      2.957      3.886
REMARK  2 active torsions:
REMARK  status: ('A' for Active; 'I' for Inactive)
REMARK    1  A    between atoms: C_8  and  S_9 
REMARK    2  A    between atoms: S_9  and  C_10 
ROOT
HETATM    1  C   UNL     1      44.295 -18.321   4.524  1.00  0.00     0.002 A 
HETATM    2  C   UNL     1      43.573 -17.276   5.103  1.00  0.00     0.034 A 
HETATM    3  C   UNL     1      42.594 -16.592   4.392  1.00  0.00     0.087 A 
HETATM    4  C   UNL     1      42.339 -16.964   3.045  1.00  0.00     0.087 A 
HETATM    5  N   UNL     1      41.418 -16.324   2.304  1.00  0.00    -0.232 NA
HETATM    6  C   UNL     1      40.753 -15.309   2.899  1.00  0.00     0.164 A 
HETATM    7 CL   UNL     1      39.651 -14.513   1.854  1.00  0.00    -0.059 Cl
HETATM    8  C   UNL     1      40.987 -14.954   4.218  1.00  0.00     0.165 A 
HETATM    9  N   UNL     1      41.908 -15.592   4.990  1.00  0.00    -0.234 NA
HETATM   10  C   UNL     1      43.059 -18.009   2.483  1.00  0.00     0.034 A 
HETATM   11  C   UNL     1      44.034 -18.691   3.211  1.00  0.00     0.002 A 
ENDROOT
BRANCH   8  12
HETATM   12  S   UNL     1      40.159 -13.607   5.063  1.00  0.00     0.078 S 
HETATM   13  O   UNL     1      40.094 -14.004   6.509  1.00  0.00    -0.251 OA
BRANCH  12  14
HETATM   14  C   UNL     1      41.417 -12.279   4.969  1.00  0.00     0.112 C 
HETATM   15  C   UNL     1      42.076 -12.276   3.586  1.00  0.00     0.250 C 
HETATM   16  N   UNL     1      43.206 -11.284   3.550  1.00  0.00    -0.074 N 
HETATM   17  H   UNL     1      42.837 -10.327   3.650  1.00  0.00     0.277 HD
HETATM   18  H   UNL     1      43.638 -11.316   2.615  1.00  0.00     0.277 HD
HETATM   19  C   UNL     1      44.261 -11.539   4.576  1.00  0.00     0.232 C 
HETATM   20  C   UNL     1      43.625 -11.519   5.957  1.00  0.00     0.029 C 
HETATM   21  C   UNL     1      42.471 -12.518   6.062  1.00  0.00     0.021 C 
ENDBRANCH  12  14
ENDBRANCH   8  12
TORSDOF 2
ENDMDL
MODEL 6
REMARK VINA RESULT:      -6.4      8.648     11.249
REMARK  2 active torsions:
REMARK  status: ('A' for Active; 'I' for Inactive)
REMARK    1  A    between atoms: C_8  and  S_9 
REMARK    2  A    between atoms: S_9  and  C_10 
ROOT
HETATM    1  C   UNL     1      42.455  -7.990  14.593  1.00  0.00     0.002 A 
HETATM    2  C   UNL     1      43.105  -7.773  13.377  1.00  0.00     0.034 A 
HETATM    3  C   UNL     1      42.519  -8.137  12.169  1.00  0.00     0.087 A 
HETATM    4  C   UNL     1      41.238  -8.750  12.186  1.00  0.00     0.087 A 
HETATM    5  N   UNL     1      40.634  -9.140  11.050  1.00  0.00    -0.232 NA
HETATM    6  C   UNL     1      41.304  -8.926   9.897  1.00  0.00     0.164 A 
HETATM    7 CL   UNL     1      40.484  -9.518   8.512  1.00  0.00    -0.059 Cl
HETATM    8  C   UNL     1      42.547  -8.311   9.875  1.00  0.00     0.165 A 
HETATM    9  N   UNL     1      43.175  -7.901  11.010  1.00  0.00    -0.234 NA
HETATM   10  C   UNL     1      40.600  -8.954  13.402  1.00  0.00     0.034 A 
HETATM   11  C   UNL     1      41.197  -8.578  14.605  1.00  0.00     0.002 A 
ENDROOT
BRANCH   8  12
HETATM   12  S   UNL     1      43.500  -8.015   8.385  1.00  0.00     0.078 S 
HETATM   13  O   UNL     1      44.531  -6.988   8.753  1.00  0.00    -0.251 OA
BRANCH  12  14
HETATM   14  C   UNL     1      44.414  -9.593   8.208  1.00  0.00     0.112 C 
HETATM   15  C   UNL     1      45.864  -9.317   7.796  1.00  0.00     0.250 C 
HETATM   16  N   UNL     1      46.578 -10.610   7.512  1.00  0.00    -0.074 N 
HETATM   17  H   UNL     1      46.668 -11.160   8.378  1.00  0.00     0.277 HD
HETATM   18  H   UNL     1      47.543 -10.392   7.223  1.00  0.00     0.277 HD
HETATM   19  C   UNL     1      45.932 -11.430   6.445  1.00  0.00     0.232 C 
HETATM   20  C   UNL     1      44.499 -11.733   6.852  1.00  0.00     0.029 C 
HETATM   21  C   UNL     1      43.713 -10.455   7.146  1.00  0.00     0.021 C 
ENDBRANCH  12  14
ENDBRANCH   8  12
TORSDOF 2
ENDMDL
MODEL 7
REMARK VINA RESULT:      -6.4      3.894      7.037
REMARK  2 active torsions:
REMARK  status: ('A' for Active; 'I' for Inactive)
REMARK    1  A    between atoms: C_8  and  S_9 
REMARK    2  A    between atoms: S_9  and  C_10 
ROOT
HETATM    1  C   UNL     1      38.645 -15.017  -2.687  1.00  0.00     0.002 A 
HETATM    2  C   UNL     1      39.360 -15.056  -1.489  1.00  0.00     0.034 A 
HETATM    3  C   UNL     1      39.896 -13.902  -0.929  1.00  0.00     0.087 A 
HETATM    4  C   UNL     1      39.718 -12.666  -1.604  1.00  0.00     0.087 A 
HETATM    5  N   UNL     1      40.232 -11.523  -1.119  1.00  0.00    -0.232 NA
HETATM    6  C   UNL     1      40.930 -11.607   0.035  1.00  0.00     0.164 A 
HETATM    7 CL   UNL     1      41.602 -10.112   0.536  1.00  0.00    -0.059 Cl
HETATM    8  C   UNL     1      41.091 -12.810   0.706  1.00  0.00     0.165 A 
HETATM    9  N   UNL     1      40.574 -13.978   0.239  1.00  0.00    -0.234 NA
HETATM   10  C   UNL     1      38.999 -12.640  -2.792  1.00  0.00     0.034 A 
HETATM   11  C   UNL     1      38.461 -13.804  -3.338  1.00  0.00     0.002 A 
ENDROOT
BRANCH   8  12
HETATM   12  S   UNL     1      42.021 -12.999   2.228  1.00  0.00     0.078 S 
HETATM   13  O   UNL     1      41.161 -12.417   3.311  1.00  0.00    -0.251 OA
BRANCH  12  14
HETATM   14  C   UNL     1      41.967 -14.813   2.473  1.00  0.00     0.112 C 
HETATM   15  C   UNL     1      41.865 -15.138   3.967  1.00  0.00     0.250 C 
HETATM   16  N   UNL     1      41.964 -16.623   4.185  1.00  0.00    -0.074 N 
HETATM   17  H   UNL     1      41.145 -17.094   3.772  1.00  0.00     0.277 HD
HETATM   18  H   UNL     1      41.907 -16.809   5.197  1.00  0.00     0.277 HD
HETATM   19  C   UNL     1      43.224 -17.225   3.656  1.00  0.00     0.232 C 
HETATM   20  C   UNL     1      43.327 -16.931   2.167  1.00  0.00     0.029 C 
HETATM   21  C   UNL     1      43.243 -15.432   1.880  1.00  0.00     0.021 C 
ENDBRANCH  12  14
ENDBRANCH   8  12
TORSDOF 2
ENDMDL
MODEL 8
REMARK VINA RESULT:      -6.4      3.034      3.875
REMARK  2 active torsions:
REMARK  status: ('A' for Active; 'I' for Inactive)
REMARK    1  A    between atoms: C_8  and  S_9 
REMARK    2  A    between atoms: S_9  and  C_10 
ROOT
HETATM    1  C   UNL     1      44.475 -17.435   5.272  1.00  0.00     0.002 A 
HETATM    2  C   UNL     1      43.644 -16.314   5.278  1.00  0.00     0.034 A 
HETATM    3  C   UNL     1      42.683 -16.122   4.291  1.00  0.00     0.087 A 
HETATM    4  C   UNL     1      42.562 -17.086   3.255  1.00  0.00     0.087 A 
HETATM    5  N   UNL     1      41.664 -16.940   2.265  1.00  0.00    -0.232 NA
HETATM    6  C   UNL     1      40.890 -15.833   2.300  1.00  0.00     0.164 A 
HETATM    7 CL   UNL     1      39.826 -15.703   0.961  1.00  0.00    -0.059 Cl
HETATM    8  C   UNL     1      40.993 -14.899   3.319  1.00  0.00     0.165 A 
HETATM    9  N   UNL     1      41.888 -15.029   4.336  1.00  0.00    -0.234 NA
HETATM   10  C   UNL     1      43.391 -18.199   3.265  1.00  0.00     0.034 A 
HETATM   11  C   UNL     1      44.345 -18.382   4.264  1.00  0.00     0.002 A 
ENDROOT
BRANCH   8  12
HETATM   12  S   UNL     1      40.014 -13.400   3.417  1.00  0.00     0.078 S 
HETATM   13  O   UNL     1      40.078 -12.959   4.851  1.00  0.00    -0.251 OA
BRANCH  12  14
HETATM   14  C   UNL     1      41.055 -12.214   2.487  1.00  0.00     0.112 C 
HETATM   15  C   UNL     1      40.962 -10.823   3.122  1.00  0.00     0.250 C 
HETATM   16  N   UNL     1      41.699  -9.817   2.281  1.00  0.00    -0.074 N 
HETATM   17  H   UNL     1      42.708 -10.025   2.288  1.00  0.00     0.277 HD
HETATM   18  H   UNL     1      41.606  -8.891   2.725  1.00  0.00     0.277 HD
HETATM   19  C   UNL     1      41.201  -9.729   0.877  1.00  0.00     0.232 C 
HETATM   20  C   UNL     1      41.311 -11.098   0.225  1.00  0.00     0.029 C 
HETATM   21  C   UNL     1      40.570 -12.168   1.029  1.00  0.00     0.021 C 
ENDBRANCH  12  14
ENDBRANCH   8  12
TORSDOF 2
ENDMDL
MODEL 9
REMARK VINA RESULT:      -6.3      2.889      3.913
REMARK  2 active torsions:
REMARK  status: ('A' for Active; 'I' for Inactive)
REMARK    1  A    between atoms: C_8  and  S_9 
REMARK    2  A    between atoms: S_9  and  C_10 
ROOT
HETATM    1  C   UNL     1      44.141 -17.516   4.858  1.00  0.00     0.002 A 
HETATM    2  C   UNL     1      43.468 -16.293   4.864  1.00  0.00     0.034 A 
HETATM    3  C   UNL     1      42.608 -15.936   3.831  1.00  0.00     0.087 A 
HETATM    4  C   UNL     1      42.428 -16.836   2.747  1.00  0.00     0.087 A 
HETATM    5  N   UNL     1      41.625 -16.533   1.713  1.00  0.00    -0.232 NA
HETATM    6  C   UNL     1      41.005 -15.333   1.751  1.00  0.00     0.164 A 
HETATM    7 CL   UNL     1      40.059 -15.011   0.357  1.00  0.00    -0.059 Cl
HETATM    8  C   UNL     1      41.164 -14.460   2.815  1.00  0.00     0.165 A 
HETATM    9  N   UNL     1      41.965 -14.747   3.877  1.00  0.00    -0.234 NA
HETATM   10  C   UNL     1      43.099 -18.051   2.757  1.00  0.00     0.034 A 
HETATM   11  C   UNL     1      43.952 -18.399   3.803  1.00  0.00     0.002 A 
ENDROOT
BRANCH   8  12
HETATM   12  S   UNL     1      40.390 -12.846   2.922  1.00  0.00     0.078 S 
HETATM   13  O   UNL     1      38.910 -13.099   2.939  1.00  0.00    -0.251 OA
BRANCH  12  14
HETATM   14  C   UNL     1      40.825 -12.336   4.626  1.00  0.00     0.112 C 
HETATM   15  C   UNL     1      39.563 -12.264   5.492  1.00  0.00     0.250 C 
HETATM   16  N   UNL     1      39.894 -11.710   6.850  1.00  0.00    -0.074 N 
HETATM   17  H   UNL     1      40.505 -12.367   7.358  1.00  0.00     0.277 HD
HETATM   18  H   UNL     1      39.026 -11.661   7.402  1.00  0.00     0.277 HD
HETATM   19  C   UNL     1      40.516 -10.354   6.809  1.00  0.00     0.232 C 
HETATM   20  C   UNL     1      41.785 -10.415   5.973  1.00  0.00     0.029 C 
HETATM   21  C   UNL     1      41.512 -10.962   4.572  1.00  0.00     0.021 C 
ENDBRANCH  12  14
ENDBRANCH   8  12
TORSDOF 2
ENDMDL
MODEL 10
REMARK VINA RESULT:      -6.2      4.106      6.804
REMARK  2 active torsions:
REMARK  status: ('A' for Active; 'I' for Inactive)
REMARK    1  A    between atoms: C_8  and  S_9 
REMARK    2  A    between atoms: S_9  and  C_10 
ROOT
HETATM    1  C   UNL     1      45.845 -10.951   7.356  1.00  0.00     0.002 A 
HETATM    2  C   UNL     1      45.117 -11.774   6.495  1.00  0.00     0.034 A 
HETATM    3  C   UNL     1      43.748 -11.606   6.321  1.00  0.00     0.087 A 
HETATM    4  C   UNL     1      43.085 -10.582   7.048  1.00  0.00     0.087 A 
HETATM    5  N   UNL     1      41.759 -10.388   6.933  1.00  0.00    -0.232 NA
HETATM    6  C   UNL     1      41.090 -11.216   6.101  1.00  0.00     0.164 A 
HETATM    7 CL   UNL     1      39.399 -10.935   6.076  1.00  0.00    -0.059 Cl
HETATM    8  C   UNL     1      41.737 -12.206   5.377  1.00  0.00     0.165 A 
HETATM    9  N   UNL     1      43.078 -12.416   5.469  1.00  0.00    -0.234 NA
HETATM   10  C   UNL     1      43.822  -9.767   7.896  1.00  0.00     0.034 A 
HETATM   11  C   UNL     1      45.196  -9.942   8.055  1.00  0.00     0.002 A 
ENDROOT
BRANCH   8  12
HETATM   12  S   UNL     1      40.910 -13.352   4.273  1.00  0.00     0.078 S 
HETATM   13  O   UNL     1      40.397 -12.525   3.130  1.00  0.00    -0.251 OA
BRANCH  12  14
HETATM   14  C   UNL     1      42.322 -14.305   3.600  1.00  0.00     0.112 C 
HETATM   15  C   UNL     1      42.420 -14.102   2.085  1.00  0.00     0.250 C 
HETATM   16  N   UNL     1      43.486 -14.991   1.508  1.00  0.00    -0.074 N 
HETATM   17  H   UNL     1      44.412 -14.701   1.856  1.00  0.00     0.277 HD
HETATM   18  H   UNL     1      43.518 -14.843   0.488  1.00  0.00     0.277 HD
HETATM   19  C   UNL     1      43.266 -16.443   1.776  1.00  0.00     0.232 C 
HETATM   20  C   UNL     1      43.192 -16.664   3.279  1.00  0.00     0.029 C 
HETATM   21  C   UNL     1      42.115 -15.793   3.926  1.00  0.00     0.021 C 
ENDBRANCH  12  14
ENDBRANCH   8  12
TORSDOF 2
ENDMDL
