MODEL 1
REMARK VINA RESULT:      -8.3      0.000      0.000
REMARK  3 active torsions:
REMARK  status: ('A' for Active; 'I' for Inactive)
REMARK    1  A    between atoms: N_1  and  C_5 
REMARK    2  A    between atoms: C_8  and  C_10 
REMARK       I    between atoms: C_10  and  N_12 
REMARK    3  A    between atoms: N_12  and  C_13 
ROOT
HETATM    1  C   UNL     1      43.317 -16.307   3.637  1.00  0.00     0.057 A 
HETATM    2  C   UNL     1      43.538 -17.164   4.722  1.00  0.00     0.043 A 
HETATM    3  C   UNL     1      43.695 -18.544   4.517  1.00  0.00    -0.017 A 
HETATM    4  C   UNL     1      43.906 -19.457   5.644  1.00  0.00     0.029 A 
HETATM    5  C   UNL     1      44.043 -20.768   5.411  1.00  0.00     0.092 A 
HETATM    6  N   UNL     1      43.997 -21.276   4.140  1.00  0.00    -0.333 N 
HETATM    7  C   UNL     1      43.805 -20.521   3.005  1.00  0.00     0.256 A 
HETATM    8  O   UNL     1      43.772 -21.016   1.886  1.00  0.00    -0.267 OA
HETATM    9  C   UNL     1      43.639 -19.060   3.212  1.00  0.00     0.044 A 
HETATM   10  C   UNL     1      43.422 -18.221   2.119  1.00  0.00     0.044 A 
HETATM   11  C   UNL     1      43.257 -16.855   2.337  1.00  0.00     0.061 A 
HETATM   12 CL   UNL     1      42.986 -15.835   0.964  1.00  0.00    -0.082 Cl
HETATM   13  H   UNL     1      44.104 -22.274   3.988  1.00  0.00     0.168 HD
ENDROOT
BRANCH   1  14
HETATM   14  N   UNL     1      43.126 -14.910   3.773  1.00  0.00    -0.325 N 
HETATM   15  C   UNL     1      41.947 -14.204   3.779  1.00  0.00     0.226 C 
HETATM   16  O   UNL     1      40.806 -14.666   3.776  1.00  0.00    -0.273 OA
HETATM   17  H   UNL     1      43.991 -14.392   3.909  1.00  0.00     0.169 HD
BRANCH  15  18
HETATM   18  C   UNL     1      42.159 -12.695   3.914  1.00  0.00     0.080 C 
HETATM   19  C   UNL     1      43.306 -12.399   4.877  1.00  0.00     0.016 C 
HETATM   20  C   UNL     1      42.677 -12.483   6.272  1.00  0.00     0.033 C 
HETATM   21  C   UNL     1      41.183 -12.204   6.084  1.00  0.00     0.184 C 
HETATM   22  C   UNL     1      40.976 -11.988   4.584  1.00  0.00     0.046 C 
BRANCH  21  23
HETATM   23  N   UNL     1      40.394 -13.379   6.531  1.00  0.00    -0.075 N 
HETATM   24  H   UNL     1      40.836 -14.276   6.295  1.00  0.00     0.274 HD
HETATM   25  H   UNL     1      40.223 -13.368   7.544  1.00  0.00     0.274 HD
HETATM   26  H   UNL     1      39.448 -13.378   6.090  1.00  0.00     0.274 HD
ENDBRANCH  21  23
ENDBRANCH  15  18
ENDBRANCH   1  14
TORSDOF 3
ENDMDL
MODEL 2
REMARK VINA RESULT:      -8.3      1.155      1.538
REMARK  3 active torsions:
REMARK  status: ('A' for Active; 'I' for Inactive)
REMARK    1  A    between atoms: N_1  and  C_5 
REMARK    2  A    between atoms: C_8  and  C_10 
REMARK       I    between atoms: C_10  and  N_12 
REMARK    3  A    between atoms: N_12  and  C_13 
ROOT
HETATM    1  C   UNL     1      43.031 -16.403   3.838  1.00  0.00     0.057 A 
HETATM    2  C   UNL     1      43.364 -17.323   4.840  1.00  0.00     0.043 A 
HETATM    3  C   UNL     1      43.616 -18.666   4.515  1.00  0.00    -0.017 A 
HETATM    4  C   UNL     1      43.945 -19.646   5.554  1.00  0.00     0.029 A 
HETATM    5  C   UNL     1      44.171 -20.919   5.209  1.00  0.00     0.092 A 
HETATM    6  N   UNL     1      44.108 -21.327   3.903  1.00  0.00    -0.333 N 
HETATM    7  C   UNL     1      43.809 -20.502   2.842  1.00  0.00     0.256 A 
HETATM    8  O   UNL     1      43.765 -20.908   1.688  1.00  0.00    -0.267 OA
HETATM    9  C   UNL     1      43.542 -19.080   3.176  1.00  0.00     0.044 A 
HETATM   10  C   UNL     1      43.214 -18.176   2.165  1.00  0.00     0.044 A 
HETATM   11  C   UNL     1      42.956 -16.850   2.500  1.00  0.00     0.061 A 
HETATM   12 CL   UNL     1      42.548 -15.748   1.228  1.00  0.00    -0.082 Cl
HETATM   13  H   UNL     1      44.283 -22.298   3.665  1.00  0.00     0.168 HD
ENDROOT
BRANCH   1  14
HETATM   14  N   UNL     1      42.740 -15.041   4.096  1.00  0.00    -0.325 N 
HETATM   15  C   UNL     1      41.629 -14.503   4.698  1.00  0.00     0.226 C 
HETATM   16  O   UNL     1      40.705 -15.115   5.234  1.00  0.00    -0.273 OA
HETATM   17  H   UNL     1      43.482 -14.405   3.812  1.00  0.00     0.169 HD
BRANCH  15  18
HETATM   18  C   UNL     1      41.670 -12.974   4.762  1.00  0.00     0.080 C 
HETATM   19  C   UNL     1      40.724 -12.459   5.845  1.00  0.00     0.016 C 
HETATM   20  C   UNL     1      39.342 -12.441   5.181  1.00  0.00     0.033 C 
HETATM   21  C   UNL     1      39.594 -12.332   3.674  1.00  0.00     0.184 C 
HETATM   22  C   UNL     1      41.114 -12.313   3.497  1.00  0.00     0.046 C 
BRANCH  21  23
HETATM   23  N   UNL     1      39.028 -13.518   2.984  1.00  0.00    -0.075 N 
HETATM   24  H   UNL     1      38.132 -13.826   3.381  1.00  0.00     0.274 HD
HETATM   25  H   UNL     1      38.889 -13.351   1.980  1.00  0.00     0.274 HD
HETATM   26  H   UNL     1      39.684 -14.328   3.043  1.00  0.00     0.274 HD
ENDBRANCH  21  23
ENDBRANCH  15  18
ENDBRANCH   1  14
TORSDOF 3
ENDMDL
MODEL 3
REMARK VINA RESULT:      -8.2      1.734      2.324
REMARK  3 active torsions:
REMARK  status: ('A' for Active; 'I' for Inactive)
REMARK    1  A    between atoms: N_1  and  C_5 
REMARK    2  A    between atoms: C_8  and  C_10 
REMARK       I    between atoms: C_10  and  N_12 
REMARK    3  A    between atoms: N_12  and  C_13 
ROOT
HETATM    1  C   UNL     1      43.337 -15.988   3.736  1.00  0.00     0.057 A 
HETATM    2  C   UNL     1      43.178 -16.948   2.729  1.00  0.00     0.043 A 
HETATM    3  C   UNL     1      43.424 -18.305   2.998  1.00  0.00    -0.017 A 
HETATM    4  C   UNL     1      43.282 -19.321   1.950  1.00  0.00     0.029 A 
HETATM    5  C   UNL     1      43.533 -20.603   2.240  1.00  0.00     0.092 A 
HETATM    6  N   UNL     1      43.914 -20.990   3.498  1.00  0.00    -0.333 N 
HETATM    7  C   UNL     1      44.080 -20.131   4.561  1.00  0.00     0.256 A 
HETATM    8  O   UNL     1      44.420 -20.519   5.671  1.00  0.00    -0.267 OA
HETATM    9  C   UNL     1      43.821 -18.694   4.286  1.00  0.00     0.044 A 
HETATM   10  C   UNL     1      43.983 -17.751   5.301  1.00  0.00     0.044 A 
HETATM   11  C   UNL     1      43.747 -16.407   5.020  1.00  0.00     0.061 A 
HETATM   12 CL   UNL     1      43.957 -15.255   6.296  1.00  0.00    -0.082 Cl
HETATM   13  H   UNL     1      44.099 -21.968   3.694  1.00  0.00     0.168 HD
ENDROOT
BRANCH   1  14
HETATM   14  N   UNL     1      43.131 -14.601   3.529  1.00  0.00    -0.325 N 
HETATM   15  C   UNL     1      42.020 -13.848   3.821  1.00  0.00     0.226 C 
HETATM   16  O   UNL     1      41.013 -14.215   4.427  1.00  0.00    -0.273 OA
HETATM   17  H   UNL     1      43.940 -14.123   3.136  1.00  0.00     0.169 HD
BRANCH  15  18
HETATM   18  C   UNL     1      42.172 -12.381   3.412  1.00  0.00     0.080 C 
HETATM   19  C   UNL     1      43.631 -11.944   3.520  1.00  0.00     0.016 C 
HETATM   20  C   UNL     1      43.827 -11.601   5.001  1.00  0.00     0.033 C 
HETATM   21  C   UNL     1      42.439 -11.251   5.546  1.00  0.00     0.184 C 
HETATM   22  C   UNL     1      41.467 -11.422   4.377  1.00  0.00     0.046 C 
BRANCH  21  23
HETATM   23  N   UNL     1      42.076 -12.192   6.636  1.00  0.00    -0.075 N 
HETATM   24  H   UNL     1      42.834 -12.334   7.315  1.00  0.00     0.274 HD
HETATM   25  H   UNL     1      41.242 -11.884   7.151  1.00  0.00     0.274 HD
HETATM   26  H   UNL     1      41.833 -13.130   6.248  1.00  0.00     0.274 HD
ENDBRANCH  21  23
ENDBRANCH  15  18
ENDBRANCH   1  14
TORSDOF 3
ENDMDL
MODEL 4
REMARK VINA RESULT:      -7.8      2.019      3.043
REMARK  3 active torsions:
REMARK  status: ('A' for Active; 'I' for Inactive)
REMARK    1  A    between atoms: N_1  and  C_5 
REMARK    2  A    between atoms: C_8  and  C_10 
REMARK       I    between atoms: C_10  and  N_12 
REMARK    3  A    between atoms: N_12  and  C_13 
ROOT
HETATM    1  C   UNL     1      43.256 -16.062   4.033  1.00  0.00     0.057 A 
HETATM    2  C   UNL     1      43.055 -16.941   2.961  1.00  0.00     0.043 A 
HETATM    3  C   UNL     1      43.358 -18.305   3.096  1.00  0.00    -0.017 A 
HETATM    4  C   UNL     1      43.173 -19.235   1.978  1.00  0.00     0.029 A 
HETATM    5  C   UNL     1      43.480 -20.527   2.140  1.00  0.00     0.092 A 
HETATM    6  N   UNL     1      43.958 -21.004   3.332  1.00  0.00    -0.333 N 
HETATM    7  C   UNL     1      44.173 -20.231   4.451  1.00  0.00     0.256 A 
HETATM    8  O   UNL     1      44.600 -20.698   5.499  1.00  0.00    -0.267 OA
HETATM    9  C   UNL     1      43.855 -18.787   4.318  1.00  0.00     0.044 A 
HETATM   10  C   UNL     1      44.059 -17.926   5.396  1.00  0.00     0.044 A 
HETATM   11  C   UNL     1      43.765 -16.572   5.247  1.00  0.00     0.061 A 
HETATM   12 CL   UNL     1      44.030 -15.523   6.600  1.00  0.00    -0.082 Cl
HETATM   13  H   UNL     1      44.184 -21.989   3.432  1.00  0.00     0.168 HD
ENDROOT
BRANCH   1  14
HETATM   14  N   UNL     1      42.997 -14.671   3.959  1.00  0.00    -0.325 N 
HETATM   15  C   UNL     1      41.816 -14.007   4.187  1.00  0.00     0.226 C 
HETATM   16  O   UNL     1      40.765 -14.487   4.612  1.00  0.00    -0.273 OA
HETATM   17  H   UNL     1      43.819 -14.115   3.732  1.00  0.00     0.169 HD
BRANCH  15  18
HETATM   18  C   UNL     1      41.932 -12.497   3.970  1.00  0.00     0.080 C 
HETATM   19  C   UNL     1      40.552 -11.880   3.752  1.00  0.00     0.016 C 
HETATM   20  C   UNL     1      40.248 -12.118   2.269  1.00  0.00     0.033 C 
HETATM   21  C   UNL     1      41.604 -12.269   1.573  1.00  0.00     0.184 C 
HETATM   22  C   UNL     1      42.662 -12.139   2.672  1.00  0.00     0.046 C 
BRANCH  21  23
HETATM   23  N   UNL     1      41.701 -13.612   0.947  1.00  0.00    -0.075 N 
HETATM   24  H   UNL     1      41.699 -13.578  -0.080  1.00  0.00     0.274 HD
HETATM   25  H   UNL     1      42.543 -14.118   1.245  1.00  0.00     0.274 HD
HETATM   26  H   UNL     1      40.898 -14.212   1.235  1.00  0.00     0.274 HD
ENDBRANCH  21  23
ENDBRANCH  15  18
ENDBRANCH   1  14
TORSDOF 3
ENDMDL
MODEL 5
REMARK VINA RESULT:      -7.6      3.265      4.061
REMARK  3 active torsions:
REMARK  status: ('A' for Active; 'I' for Inactive)
REMARK    1  A    between atoms: N_1  and  C_5 
REMARK    2  A    between atoms: C_8  and  C_10 
REMARK       I    between atoms: C_10  and  N_12 
REMARK    3  A    between atoms: N_12  and  C_13 
ROOT
HETATM    1  C   UNL     1      42.403 -15.182   2.067  1.00  0.00     0.057 A 
HETATM    2  C   UNL     1      42.682 -16.529   1.801  1.00  0.00     0.043 A 
HETATM    3  C   UNL     1      43.206 -17.357   2.807  1.00  0.00    -0.017 A 
HETATM    4  C   UNL     1      43.523 -18.763   2.539  1.00  0.00     0.029 A 
HETATM    5  C   UNL     1      44.027 -19.521   3.520  1.00  0.00     0.092 A 
HETATM    6  N   UNL     1      44.250 -19.014   4.772  1.00  0.00    -0.333 N 
HETATM    7  C   UNL     1      43.993 -17.713   5.144  1.00  0.00     0.256 A 
HETATM    8  O   UNL     1      44.204 -17.300   6.276  1.00  0.00    -0.267 OA
HETATM    9  C   UNL     1      43.438 -16.830   4.086  1.00  0.00     0.044 A 
HETATM   10  C   UNL     1      43.164 -15.491   4.369  1.00  0.00     0.044 A 
HETATM   11  C   UNL     1      42.656 -14.677   3.361  1.00  0.00     0.061 A 
HETATM   12 CL   UNL     1      42.327 -13.018   3.736  1.00  0.00    -0.082 Cl
HETATM   13  H   UNL     1      44.634 -19.607   5.500  1.00  0.00     0.168 HD
ENDROOT
BRANCH   1  14
HETATM   14  N   UNL     1      41.899 -14.284   1.094  1.00  0.00    -0.325 N 
HETATM   15  C   UNL     1      40.676 -14.297   0.470  1.00  0.00     0.226 C 
HETATM   16  O   UNL     1      39.724 -15.038   0.718  1.00  0.00    -0.273 OA
HETATM   17  H   UNL     1      42.540 -13.526   0.869  1.00  0.00     0.169 HD
BRANCH  15  18
HETATM   18  C   UNL     1      40.518 -13.170  -0.554  1.00  0.00     0.080 C 
HETATM   19  C   UNL     1      41.224 -11.906  -0.071  1.00  0.00     0.016 C 
HETATM   20  C   UNL     1      40.226 -11.241   0.884  1.00  0.00     0.033 C 
HETATM   21  C   UNL     1      38.839 -11.742   0.468  1.00  0.00     0.184 C 
HETATM   22  C   UNL     1      39.067 -12.703  -0.701  1.00  0.00     0.046 C 
BRANCH  21  23
HETATM   23  N   UNL     1      38.211 -12.473   1.597  1.00  0.00    -0.075 N 
HETATM   24  H   UNL     1      38.860 -12.651   2.373  1.00  0.00     0.274 HD
HETATM   25  H   UNL     1      37.395 -11.975   1.974  1.00  0.00     0.274 HD
HETATM   26  H   UNL     1      37.849 -13.400   1.281  1.00  0.00     0.274 HD
ENDBRANCH  21  23
ENDBRANCH  15  18
ENDBRANCH   1  14
TORSDOF 3
ENDMDL
MODEL 6
REMARK VINA RESULT:      -7.6      4.364      5.733
REMARK  3 active torsions:
REMARK  status: ('A' for Active; 'I' for Inactive)
REMARK    1  A    between atoms: N_1  and  C_5 
REMARK    2  A    between atoms: C_8  and  C_10 
REMARK       I    between atoms: C_10  and  N_12 
REMARK    3  A    between atoms: N_12  and  C_13 
ROOT
HETATM    1  C   UNL     1      40.478 -14.916   1.746  1.00  0.00     0.057 A 
HETATM    2  C   UNL     1      41.323 -16.002   1.486  1.00  0.00     0.043 A 
HETATM    3  C   UNL     1      42.044 -16.606   2.529  1.00  0.00    -0.017 A 
HETATM    4  C   UNL     1      42.949 -17.731   2.271  1.00  0.00     0.029 A 
HETATM    5  C   UNL     1      43.626 -18.276   3.288  1.00  0.00     0.092 A 
HETATM    6  N   UNL     1      43.488 -17.811   4.569  1.00  0.00    -0.333 N 
HETATM    7  C   UNL     1      42.672 -16.764   4.935  1.00  0.00     0.256 A 
HETATM    8  O   UNL     1      42.576 -16.381   6.094  1.00  0.00    -0.267 OA
HETATM    9  C   UNL     1      41.905 -16.120   3.839  1.00  0.00     0.044 A 
HETATM   10  C   UNL     1      41.066 -15.040   4.116  1.00  0.00     0.044 A 
HETATM   11  C   UNL     1      40.365 -14.443   3.072  1.00  0.00     0.061 A 
HETATM   12 CL   UNL     1      39.332 -13.102   3.440  1.00  0.00    -0.082 Cl
HETATM   13  H   UNL     1      44.012 -18.240   5.325  1.00  0.00     0.168 HD
ENDROOT
BRANCH   1  14
HETATM   14  N   UNL     1      39.742 -14.244   0.740  1.00  0.00    -0.325 N 
HETATM   15  C   UNL     1      40.089 -13.119   0.032  1.00  0.00     0.226 C 
HETATM   16  O   UNL     1      41.169 -12.530   0.059  1.00  0.00    -0.273 OA
HETATM   17  H   UNL     1      38.856 -14.693   0.515  1.00  0.00     0.169 HD
BRANCH  15  18
HETATM   18  C   UNL     1      39.002 -12.675  -0.950  1.00  0.00     0.080 C 
HETATM   19  C   UNL     1      38.513 -13.861  -1.777  1.00  0.00     0.016 C 
HETATM   20  C   UNL     1      39.541 -14.003  -2.905  1.00  0.00     0.033 C 
HETATM   21  C   UNL     1      40.183 -12.623  -3.073  1.00  0.00     0.184 C 
HETATM   22  C   UNL     1      39.530 -11.719  -2.025  1.00  0.00     0.046 C 
BRANCH  21  23
HETATM   23  N   UNL     1      41.642 -12.713  -2.812  1.00  0.00    -0.075 N 
HETATM   24  H   UNL     1      42.029 -13.645  -3.005  1.00  0.00     0.274 HD
HETATM   25  H   UNL     1      42.176 -12.029  -3.362  1.00  0.00     0.274 HD
HETATM   26  H   UNL     1      41.853 -12.494  -1.814  1.00  0.00     0.274 HD
ENDBRANCH  21  23
ENDBRANCH  15  18
ENDBRANCH   1  14
TORSDOF 3
ENDMDL
MODEL 7
REMARK VINA RESULT:      -6.9      3.716      5.371
REMARK  3 active torsions:
REMARK  status: ('A' for Active; 'I' for Inactive)
REMARK    1  A    between atoms: N_1  and  C_5 
REMARK    2  A    between atoms: C_8  and  C_10 
REMARK       I    between atoms: C_10  and  N_12 
REMARK    3  A    between atoms: N_12  and  C_13 
ROOT
HETATM    1  C   UNL     1      43.116 -12.856   6.169  1.00  0.00     0.057 A 
HETATM    2  C   UNL     1      43.264 -14.247   6.233  1.00  0.00     0.043 A 
HETATM    3  C   UNL     1      43.141 -15.028   5.073  1.00  0.00    -0.017 A 
HETATM    4  C   UNL     1      43.273 -16.487   5.126  1.00  0.00     0.029 A 
HETATM    5  C   UNL     1      43.142 -17.200   4.001  1.00  0.00     0.092 A 
HETATM    6  N   UNL     1      42.894 -16.596   2.797  1.00  0.00    -0.333 N 
HETATM    7  C   UNL     1      42.750 -15.238   2.621  1.00  0.00     0.256 A 
HETATM    8  O   UNL     1      42.531 -14.738   1.525  1.00  0.00    -0.267 OA
HETATM    9  C   UNL     1      42.879 -14.404   3.843  1.00  0.00     0.044 A 
HETATM   10  C   UNL     1      42.731 -13.019   3.761  1.00  0.00     0.044 A 
HETATM   11  C   UNL     1      42.844 -12.256   4.920  1.00  0.00     0.061 A 
HETATM   12 CL   UNL     1      42.652 -10.539   4.793  1.00  0.00    -0.082 Cl
HETATM   13  H   UNL     1      42.798 -17.157   1.957  1.00  0.00     0.168 HD
ENDROOT
BRANCH   1  14
HETATM   14  N   UNL     1      43.201 -12.010   7.303  1.00  0.00    -0.325 N 
HETATM   15  C   UNL     1      44.325 -11.534   7.932  1.00  0.00     0.226 C 
HETATM   16  O   UNL     1      45.493 -11.663   7.564  1.00  0.00    -0.273 OA
HETATM   17  H   UNL     1      42.295 -11.712   7.657  1.00  0.00     0.169 HD
BRANCH  15  18
HETATM   18  C   UNL     1      44.002 -10.670   9.154  1.00  0.00     0.080 C 
HETATM   19  C   UNL     1      43.100  -9.503   8.760  1.00  0.00     0.016 C 
HETATM   20  C   UNL     1      44.056  -8.441   8.204  1.00  0.00     0.033 C 
HETATM   21  C   UNL     1      45.423  -8.726   8.832  1.00  0.00     0.184 C 
HETATM   22  C   UNL     1      45.235  -9.959   9.719  1.00  0.00     0.046 C 
BRANCH  21  23
HETATM   23  N   UNL     1      46.412  -9.027   7.767  1.00  0.00    -0.075 N 
HETATM   24  H   UNL     1      46.413  -8.331   7.011  1.00  0.00     0.274 HD
HETATM   25  H   UNL     1      47.369  -9.095   8.136  1.00  0.00     0.274 HD
HETATM   26  H   UNL     1      46.215  -9.954   7.331  1.00  0.00     0.274 HD
ENDBRANCH  21  23
ENDBRANCH  15  18
ENDBRANCH   1  14
TORSDOF 3
ENDMDL
MODEL 8
REMARK VINA RESULT:      -6.9      4.730      7.221
REMARK  3 active torsions:
REMARK  status: ('A' for Active; 'I' for Inactive)
REMARK    1  A    between atoms: N_1  and  C_5 
REMARK    2  A    between atoms: C_8  and  C_10 
REMARK       I    between atoms: C_10  and  N_12 
REMARK    3  A    between atoms: N_12  and  C_13 
ROOT
HETATM    1  C   UNL     1      40.118 -14.529   1.204  1.00  0.00     0.057 A 
HETATM    2  C   UNL     1      39.864 -15.092  -0.053  1.00  0.00     0.043 A 
HETATM    3  C   UNL     1      39.336 -14.305  -1.090  1.00  0.00    -0.017 A 
HETATM    4  C   UNL     1      39.046 -14.884  -2.405  1.00  0.00     0.029 A 
HETATM    5  C   UNL     1      38.535 -14.106  -3.367  1.00  0.00     0.092 A 
HETATM    6  N   UNL     1      38.282 -12.777  -3.152  1.00  0.00    -0.333 N 
HETATM    7  C   UNL     1      38.513 -12.122  -1.963  1.00  0.00     0.256 A 
HETATM    8  O   UNL     1      38.275 -10.931  -1.814  1.00  0.00    -0.267 OA
HETATM    9  C   UNL     1      39.072 -12.946  -0.861  1.00  0.00     0.044 A 
HETATM   10  C   UNL     1      39.321 -12.368   0.384  1.00  0.00     0.044 A 
HETATM   11  C   UNL     1      39.835 -13.161   1.407  1.00  0.00     0.061 A 
HETATM   12 CL   UNL     1      40.132 -12.421   2.945  1.00  0.00    -0.082 Cl
HETATM   13  H   UNL     1      37.895 -12.207  -3.897  1.00  0.00     0.168 HD
ENDROOT
BRANCH   1  14
HETATM   14  N   UNL     1      40.626 -15.268   2.301  1.00  0.00    -0.325 N 
HETATM   15  C   UNL     1      41.933 -15.439   2.685  1.00  0.00     0.226 C 
HETATM   16  O   UNL     1      42.925 -14.887   2.209  1.00  0.00    -0.273 OA
HETATM   17  H   UNL     1      39.901 -15.693   2.875  1.00  0.00     0.169 HD
BRANCH  15  18
HETATM   18  C   UNL     1      42.078 -16.344   3.912  1.00  0.00     0.080 C 
HETATM   19  C   UNL     1      40.877 -16.183   4.840  1.00  0.00     0.016 C 
HETATM   20  C   UNL     1      41.187 -14.931   5.668  1.00  0.00     0.033 C 
HETATM   21  C   UNL     1      42.711 -14.782   5.662  1.00  0.00     0.184 C 
HETATM   22  C   UNL     1      43.248 -15.936   4.812  1.00  0.00     0.046 C 
BRANCH  21  23
HETATM   23  N   UNL     1      43.086 -13.488   5.037  1.00  0.00    -0.075 N 
HETATM   24  H   UNL     1      44.050 -13.202   5.251  1.00  0.00     0.274 HD
HETATM   25  H   UNL     1      42.981 -13.507   4.016  1.00  0.00     0.274 HD
HETATM   26  H   UNL     1      42.459 -12.723   5.368  1.00  0.00     0.274 HD
ENDBRANCH  21  23
ENDBRANCH  15  18
ENDBRANCH   1  14
TORSDOF 3
ENDMDL
MODEL 9
REMARK VINA RESULT:      -6.9      3.750      4.996
REMARK  3 active torsions:
REMARK  status: ('A' for Active; 'I' for Inactive)
REMARK    1  A    between atoms: N_1  and  C_5 
REMARK    2  A    between atoms: C_8  and  C_10 
REMARK       I    between atoms: C_10  and  N_12 
REMARK    3  A    between atoms: N_12  and  C_13 
ROOT
HETATM    1  C   UNL     1      43.381 -12.686   6.406  1.00  0.00     0.057 A 
HETATM    2  C   UNL     1      43.499 -13.844   7.184  1.00  0.00     0.043 A 
HETATM    3  C   UNL     1      43.351 -15.112   6.598  1.00  0.00    -0.017 A 
HETATM    4  C   UNL     1      43.451 -16.333   7.403  1.00  0.00     0.029 A 
HETATM    5  C   UNL     1      43.296 -17.524   6.812  1.00  0.00     0.092 A 
HETATM    6  N   UNL     1      43.052 -17.628   5.468  1.00  0.00    -0.333 N 
HETATM    7  C   UNL     1      42.937 -16.556   4.611  1.00  0.00     0.256 A 
HETATM    8  O   UNL     1      42.720 -16.694   3.414  1.00  0.00    -0.267 OA
HETATM    9  C   UNL     1      43.093 -15.212   5.222  1.00  0.00     0.044 A 
HETATM   10  C   UNL     1      42.974 -14.069   4.431  1.00  0.00     0.044 A 
HETATM   11  C   UNL     1      43.112 -12.817   5.026  1.00  0.00     0.061 A 
HETATM   12 CL   UNL     1      42.958 -11.413   4.024  1.00  0.00    -0.082 Cl
HETATM   13  H   UNL     1      42.937 -18.542   5.042  1.00  0.00     0.168 HD
ENDROOT
BRANCH   1  14
HETATM   14  N   UNL     1      43.493 -11.377   6.935  1.00  0.00    -0.325 N 
HETATM   15  C   UNL     1      44.600 -10.760   7.465  1.00  0.00     0.226 C 
HETATM   16  O   UNL     1      45.753 -11.193   7.484  1.00  0.00    -0.273 OA
HETATM   17  H   UNL     1      42.632 -10.838   6.876  1.00  0.00     0.169 HD
BRANCH  15  18
HETATM   18  C   UNL     1      44.309  -9.344   7.967  1.00  0.00     0.080 C 
HETATM   19  C   UNL     1      45.453  -8.841   8.845  1.00  0.00     0.016 C 
HETATM   20  C   UNL     1      45.177  -9.441  10.228  1.00  0.00     0.033 C 
HETATM   21  C   UNL     1      43.671  -9.714  10.282  1.00  0.00     0.184 C 
HETATM   22  C   UNL     1      43.112  -9.289   8.922  1.00  0.00     0.046 C 
BRANCH  21  23
HETATM   23  N   UNL     1      43.430 -11.164  10.488  1.00  0.00    -0.075 N 
HETATM   24  H   UNL     1      44.218 -11.642  10.942  1.00  0.00     0.274 HD
HETATM   25  H   UNL     1      42.588 -11.341  11.047  1.00  0.00     0.274 HD
HETATM   26  H   UNL     1      43.265 -11.644   9.576  1.00  0.00     0.274 HD
ENDBRANCH  21  23
ENDBRANCH  15  18
ENDBRANCH   1  14
TORSDOF 3
ENDMDL
MODEL 10
REMARK VINA RESULT:      -6.8      4.319      6.772
REMARK  3 active torsions:
REMARK  status: ('A' for Active; 'I' for Inactive)
REMARK    1  A    between atoms: N_1  and  C_5 
REMARK    2  A    between atoms: C_8  and  C_10 
REMARK       I    between atoms: C_10  and  N_12 
REMARK    3  A    between atoms: N_12  and  C_13 
ROOT
HETATM    1  C   UNL     1      41.177 -13.799   1.406  1.00  0.00     0.057 A 
HETATM    2  C   UNL     1      41.375 -12.628   0.665  1.00  0.00     0.043 A 
HETATM    3  C   UNL     1      40.805 -12.491  -0.612  1.00  0.00    -0.017 A 
HETATM    4  C   UNL     1      41.020 -11.280  -1.410  1.00  0.00     0.029 A 
HETATM    5  C   UNL     1      40.468 -11.188  -2.626  1.00  0.00     0.092 A 
HETATM    6  N   UNL     1      39.701 -12.199  -3.140  1.00  0.00    -0.333 N 
HETATM    7  C   UNL     1      39.428 -13.381  -2.488  1.00  0.00     0.256 A 
HETATM    8  O   UNL     1      38.735 -14.259  -2.984  1.00  0.00    -0.267 OA
HETATM    9  C   UNL     1      40.026 -13.533  -1.137  1.00  0.00     0.044 A 
HETATM   10  C   UNL     1      39.816 -14.706  -0.411  1.00  0.00     0.044 A 
HETATM   11  C   UNL     1      40.395 -14.835   0.849  1.00  0.00     0.061 A 
HETATM   12 CL   UNL     1      40.123 -16.301   1.730  1.00  0.00    -0.082 Cl
HETATM   13  H   UNL     1      39.293 -12.107  -4.065  1.00  0.00     0.168 HD
ENDROOT
BRANCH   1  14
HETATM   14  N   UNL     1      41.741 -14.014   2.688  1.00  0.00    -0.325 N 
HETATM   15  C   UNL     1      41.171 -13.807   3.920  1.00  0.00     0.226 C 
HETATM   16  O   UNL     1      40.005 -13.491   4.154  1.00  0.00    -0.273 OA
HETATM   17  H   UNL     1      42.683 -14.399   2.658  1.00  0.00     0.169 HD
BRANCH  15  18
HETATM   18  C   UNL     1      42.122 -14.127   5.076  1.00  0.00     0.080 C 
HETATM   19  C   UNL     1      43.045 -15.284   4.705  1.00  0.00     0.016 C 
HETATM   20  C   UNL     1      42.218 -16.546   4.974  1.00  0.00     0.033 C 
HETATM   21  C   UNL     1      41.166 -16.153   6.015  1.00  0.00     0.184 C 
HETATM   22  C   UNL     1      41.392 -14.669   6.309  1.00  0.00     0.046 C 
BRANCH  21  23
HETATM   23  N   UNL     1      39.806 -16.347   5.453  1.00  0.00    -0.075 N 
HETATM   24  H   UNL     1      39.432 -17.290   5.618  1.00  0.00     0.274 HD
HETATM   25  H   UNL     1      39.132 -15.669   5.830  1.00  0.00     0.274 HD
HETATM   26  H   UNL     1      39.808 -16.195   4.421  1.00  0.00     0.274 HD
ENDBRANCH  21  23
ENDBRANCH  15  18
ENDBRANCH   1  14
TORSDOF 3
ENDMDL
