MODEL 1
REMARK VINA RESULT:      -8.0      0.000      0.000
REMARK  7 active torsions:
REMARK  status: ('A' for Active; 'I' for Inactive)
REMARK    1  A    between atoms: C_5  and  N_6 
REMARK    2  A    between atoms: N_6  and  C_9 
REMARK    3  A    between atoms: C_9  and  C_10 
REMARK    4  A    between atoms: C_10  and  C_11 
REMARK    5  A    between atoms: C_10  and  C_13 
REMARK    6  A    between atoms: C_11  and  O_12 
REMARK    7  A    between atoms: C_13  and  C_14 
ROOT
HETATM    1  N   UNL     1      41.824 -16.021   4.083  1.00  0.00    -0.066 N 
HETATM    2  H   UNL     1      41.304 -16.916   4.037  1.00  0.00     0.278 HD
HETATM    3  H   UNL     1      41.655 -15.664   5.043  1.00  0.00     0.278 HD
ENDROOT
BRANCH   1   4
HETATM    4  C   UNL     1      43.236 -16.399   3.863  1.00  0.00     0.220 C 
HETATM    5  C   UNL     1      43.344 -17.823   3.410  1.00  0.00    -0.021 A 
HETATM    6  C   UNL     1      43.863 -18.650   4.420  1.00  0.00    -0.040 A 
HETATM    7  C   UNL     1      42.956 -18.346   2.183  1.00  0.00     0.010 A 
HETATM    8  C   UNL     1      44.049 -20.015   4.205  1.00  0.00    -0.055 A 
HETATM    9  C   UNL     1      44.146 -17.860   5.669  1.00  0.00     0.018 C 
HETATM   10  C   UNL     1      44.610 -20.929   5.253  1.00  0.00     0.049 C 
HETATM   11  C   UNL     1      43.647 -20.538   2.967  1.00  0.00     0.007 A 
HETATM   12  C   UNL     1      43.106 -19.714   1.969  1.00  0.00     0.001 A 
HETATM   13  C   UNL     1      44.084 -16.410   5.145  1.00  0.00     0.047 C 
HETATM   14  C   UNL     1      43.133 -18.119   6.778  1.00  0.00     0.015 C 
ENDBRANCH   1   4
BRANCH   1  15
HETATM   15  C   UNL     1      41.164 -15.117   3.106  1.00  0.00     0.240 C 
BRANCH  15  16
HETATM   16  C   UNL     1      40.927 -13.719   3.715  1.00  0.00     0.040 C 
BRANCH  16  17
HETATM   17  C   UNL     1      39.601 -13.133   3.205  1.00  0.00     0.170 C 
BRANCH  17  18
HETATM   18  O   UNL     1      38.838 -14.163   2.577  1.00  0.00    -0.400 OA
HETATM   19  H   UNL     1      37.904 -14.008   2.830  1.00  0.00     0.209 HD
ENDBRANCH  17  18
ENDBRANCH  16  17
BRANCH  16  20
HETATM   20  C   UNL     1      42.065 -12.702   3.460  1.00  0.00     0.067 C 
BRANCH  20  21
HETATM   21  C   UNL     1      42.975 -12.516   4.644  1.00  0.00     0.034 A 
HETATM   22  N   UNL     1      42.691 -13.278   5.738  1.00  0.00    -0.266 NA
HETATM   23  C   UNL     1      43.504 -13.118   6.812  1.00  0.00     0.117 A 
HETATM   24  C   UNL     1      44.556 -12.219   6.861  1.00  0.00     0.019 A 
HETATM   25  C   UNL     1      44.807 -11.439   5.740  1.00  0.00     0.003 A 
HETATM   26  C   UNL     1      44.009 -11.586   4.611  1.00  0.00     0.027 A 
ENDBRANCH  20  21
ENDBRANCH  16  20
ENDBRANCH  15  16
ENDBRANCH   1  15
TORSDOF 7
ENDMDL
MODEL 2
REMARK VINA RESULT:      -7.8      2.198      3.865
REMARK  7 active torsions:
REMARK  status: ('A' for Active; 'I' for Inactive)
REMARK    1  A    between atoms: C_5  and  N_6 
REMARK    2  A    between atoms: N_6  and  C_9 
REMARK    3  A    between atoms: C_9  and  C_10 
REMARK    4  A    between atoms: C_10  and  C_11 
REMARK    5  A    between atoms: C_10  and  C_13 
REMARK    6  A    between atoms: C_11  and  O_12 
REMARK    7  A    between atoms: C_13  and  C_14 
ROOT
HETATM    1  N   UNL     1      42.022 -13.470   4.221  1.00  0.00    -0.066 N 
HETATM    2  H   UNL     1      43.018 -13.666   4.012  1.00  0.00     0.278 HD
HETATM    3  H   UNL     1      41.651 -13.032   3.357  1.00  0.00     0.278 HD
ENDROOT
BRANCH   1   4
HETATM    4  C   UNL     1      41.427 -14.799   4.479  1.00  0.00     0.220 C 
HETATM    5  C   UNL     1      42.487 -15.803   4.817  1.00  0.00    -0.021 A 
HETATM    6  C   UNL     1      42.689 -16.716   3.769  1.00  0.00    -0.040 A 
HETATM    7  C   UNL     1      43.251 -15.859   5.976  1.00  0.00     0.010 A 
HETATM    8  C   UNL     1      43.632 -17.738   3.880  1.00  0.00    -0.055 A 
HETATM    9  C   UNL     1      41.787 -16.407   2.605  1.00  0.00     0.018 C 
HETATM   10  C   UNL     1      43.870 -18.739   2.789  1.00  0.00     0.049 C 
HETATM   11  C   UNL     1      44.405 -17.784   5.049  1.00  0.00     0.007 A 
HETATM   12  C   UNL     1      44.218 -16.856   6.084  1.00  0.00     0.001 A 
HETATM   13  C   UNL     1      40.771 -15.437   3.244  1.00  0.00     0.047 C 
HETATM   14  C   UNL     1      42.528 -15.780   1.430  1.00  0.00     0.015 C 
ENDBRANCH   1   4
BRANCH   1  15
HETATM   15  C   UNL     1      42.027 -12.464   5.314  1.00  0.00     0.240 C 
BRANCH  15  16
HETATM   16  C   UNL     1      43.385 -11.735   5.390  1.00  0.00     0.040 C 
BRANCH  16  17
HETATM   17  C   UNL     1      44.058 -11.716   4.009  1.00  0.00     0.170 C 
BRANCH  17  18
HETATM   18  O   UNL     1      43.344 -10.832   3.145  1.00  0.00    -0.400 OA
HETATM   19  H   UNL     1      43.728 -10.950   2.251  1.00  0.00     0.209 HD
ENDBRANCH  17  18
ENDBRANCH  16  17
BRANCH  16  20
HETATM   20  C   UNL     1      44.372 -12.315   6.430  1.00  0.00     0.067 C 
BRANCH  20  21
HETATM   21  C   UNL     1      44.829 -11.305   7.447  1.00  0.00     0.034 A 
HETATM   22  N   UNL     1      44.087 -11.231   8.589  1.00  0.00    -0.266 NA
HETATM   23  C   UNL     1      44.489 -10.323   9.512  1.00  0.00     0.117 A 
HETATM   24  C   UNL     1      45.564  -9.467   9.342  1.00  0.00     0.019 A 
HETATM   25  C   UNL     1      46.287  -9.548   8.158  1.00  0.00     0.003 A 
HETATM   26  C   UNL     1      45.920 -10.479   7.194  1.00  0.00     0.027 A 
ENDBRANCH  20  21
ENDBRANCH  16  20
ENDBRANCH  15  16
ENDBRANCH   1  15
TORSDOF 7
ENDMDL
MODEL 3
REMARK VINA RESULT:      -7.7      3.445      5.428
REMARK  7 active torsions:
REMARK  status: ('A' for Active; 'I' for Inactive)
REMARK    1  A    between atoms: C_5  and  N_6 
REMARK    2  A    between atoms: N_6  and  C_9 
REMARK    3  A    between atoms: C_9  and  C_10 
REMARK    4  A    between atoms: C_10  and  C_11 
REMARK    5  A    between atoms: C_10  and  C_13 
REMARK    6  A    between atoms: C_11  and  O_12 
REMARK    7  A    between atoms: C_13  and  C_14 
ROOT
HETATM    1  N   UNL     1      41.426 -14.330   3.283  1.00  0.00    -0.066 N 
HETATM    2  H   UNL     1      41.018 -15.258   3.070  1.00  0.00     0.278 HD
HETATM    3  H   UNL     1      40.864 -13.968   4.076  1.00  0.00     0.278 HD
ENDROOT
BRANCH   1   4
HETATM    4  C   UNL     1      42.824 -14.618   3.668  1.00  0.00     0.220 C 
HETATM    5  C   UNL     1      43.158 -16.060   3.429  1.00  0.00    -0.021 A 
HETATM    6  C   UNL     1      43.268 -16.773   4.635  1.00  0.00    -0.040 A 
HETATM    7  C   UNL     1      43.308 -16.695   2.203  1.00  0.00     0.010 A 
HETATM    8  C   UNL     1      43.577 -18.132   4.638  1.00  0.00    -0.055 A 
HETATM    9  C   UNL     1      43.003 -15.878   5.815  1.00  0.00     0.018 C 
HETATM   10  C   UNL     1      43.714 -18.926   5.903  1.00  0.00     0.049 C 
HETATM   11  C   UNL     1      43.719 -18.769   3.397  1.00  0.00     0.007 A 
HETATM   12  C   UNL     1      43.584 -18.060   2.194  1.00  0.00     0.001 A 
HETATM   13  C   UNL     1      43.096 -14.476   5.174  1.00  0.00     0.047 C 
HETATM   14  C   UNL     1      41.645 -16.131   6.459  1.00  0.00     0.015 C 
ENDBRANCH   1   4
BRANCH   1  15
HETATM   15  C   UNL     1      41.173 -13.490   2.084  1.00  0.00     0.240 C 
BRANCH  15  16
HETATM   16  C   UNL     1      40.167 -14.171   1.132  1.00  0.00     0.040 C 
BRANCH  16  17
HETATM   17  C   UNL     1      39.906 -15.618   1.579  1.00  0.00     0.170 C 
BRANCH  17  18
HETATM   18  O   UNL     1      39.010 -15.618   2.689  1.00  0.00    -0.400 OA
HETATM   19  H   UNL     1      39.061 -16.513   3.085  1.00  0.00     0.209 HD
ENDBRANCH  17  18
ENDBRANCH  16  17
BRANCH  16  20
HETATM   20  C   UNL     1      40.581 -14.164  -0.358  1.00  0.00     0.067 C 
BRANCH  20  21
HETATM   21  C   UNL     1      39.430 -13.913  -1.295  1.00  0.00     0.034 A 
HETATM   22  N   UNL     1      38.637 -12.847  -0.992  1.00  0.00    -0.266 NA
HETATM   23  C   UNL     1      37.596 -12.611  -1.829  1.00  0.00     0.117 A 
HETATM   24  C   UNL     1      37.288 -13.400  -2.925  1.00  0.00     0.019 A 
HETATM   25  C   UNL     1      38.100 -14.493  -3.196  1.00  0.00     0.003 A 
HETATM   26  C   UNL     1      39.189 -14.759  -2.373  1.00  0.00     0.027 A 
ENDBRANCH  20  21
ENDBRANCH  16  20
ENDBRANCH  15  16
ENDBRANCH   1  15
TORSDOF 7
ENDMDL
MODEL 4
REMARK VINA RESULT:      -7.7      2.640      4.267
REMARK  7 active torsions:
REMARK  status: ('A' for Active; 'I' for Inactive)
REMARK    1  A    between atoms: C_5  and  N_6 
REMARK    2  A    between atoms: N_6  and  C_9 
REMARK    3  A    between atoms: C_9  and  C_10 
REMARK    4  A    between atoms: C_10  and  C_11 
REMARK    5  A    between atoms: C_10  and  C_13 
REMARK    6  A    between atoms: C_11  and  O_12 
REMARK    7  A    between atoms: C_13  and  C_14 
ROOT
HETATM    1  N   UNL     1      41.677 -16.073   3.819  1.00  0.00    -0.066 N 
HETATM    2  H   UNL     1      41.244 -16.952   4.153  1.00  0.00     0.278 HD
HETATM    3  H   UNL     1      41.525 -15.393   4.587  1.00  0.00     0.278 HD
ENDROOT
BRANCH   1   4
HETATM    4  C   UNL     1      43.105 -16.408   3.636  1.00  0.00     0.220 C 
HETATM    5  C   UNL     1      43.274 -17.851   3.270  1.00  0.00    -0.021 A 
HETATM    6  C   UNL     1      43.811 -18.596   4.333  1.00  0.00    -0.040 A 
HETATM    7  C   UNL     1      42.923 -18.459   2.072  1.00  0.00     0.010 A 
HETATM    8  C   UNL     1      44.051 -19.964   4.201  1.00  0.00    -0.055 A 
HETATM    9  C   UNL     1      44.046 -17.724   5.537  1.00  0.00     0.018 C 
HETATM   10  C   UNL     1      44.633 -20.792   5.307  1.00  0.00     0.049 C 
HETATM   11  C   UNL     1      43.687 -20.573   2.991  1.00  0.00     0.007 A 
HETATM   12  C   UNL     1      43.128 -19.831   1.940  1.00  0.00     0.001 A 
HETATM   13  C   UNL     1      43.936 -16.310   4.926  1.00  0.00     0.047 C 
HETATM   14  C   UNL     1      43.029 -17.958   6.647  1.00  0.00     0.015 C 
ENDBRANCH   1   4
BRANCH   1  15
HETATM   15  C   UNL     1      40.884 -15.654   2.634  1.00  0.00     0.240 C 
BRANCH  15  16
HETATM   16  C   UNL     1      40.950 -14.125   2.435  1.00  0.00     0.040 C 
BRANCH  16  17
HETATM   17  C   UNL     1      41.028 -13.413   3.794  1.00  0.00     0.170 C 
BRANCH  17  18
HETATM   18  O   UNL     1      39.905 -13.788   4.591  1.00  0.00    -0.400 OA
HETATM   19  H   UNL     1      40.200 -14.540   5.148  1.00  0.00     0.209 HD
ENDBRANCH  17  18
ENDBRANCH  16  17
BRANCH  16  20
HETATM   20  C   UNL     1      39.781 -13.530   1.614  1.00  0.00     0.067 C 
BRANCH  20  21
HETATM   21  C   UNL     1      40.086 -13.406   0.145  1.00  0.00     0.034 A 
HETATM   22  N   UNL     1      40.742 -12.271  -0.233  1.00  0.00    -0.266 NA
HETATM   23  C   UNL     1      41.021 -12.148  -1.554  1.00  0.00     0.117 A 
HETATM   24  C   UNL     1      40.651 -13.074  -2.515  1.00  0.00     0.019 A 
HETATM   25  C   UNL     1      39.964 -14.208  -2.104  1.00  0.00     0.003 A 
HETATM   26  C   UNL     1      39.675 -14.383  -0.755  1.00  0.00     0.027 A 
ENDBRANCH  20  21
ENDBRANCH  16  20
ENDBRANCH  15  16
ENDBRANCH   1  15
TORSDOF 7
ENDMDL
MODEL 5
REMARK VINA RESULT:      -7.4      2.705      4.862
REMARK  7 active torsions:
REMARK  status: ('A' for Active; 'I' for Inactive)
REMARK    1  A    between atoms: C_5  and  N_6 
REMARK    2  A    between atoms: N_6  and  C_9 
REMARK    3  A    between atoms: C_9  and  C_10 
REMARK    4  A    between atoms: C_10  and  C_11 
REMARK    5  A    between atoms: C_10  and  C_13 
REMARK    6  A    between atoms: C_11  and  O_12 
REMARK    7  A    between atoms: C_13  and  C_14 
ROOT
HETATM    1  N   UNL     1      41.937 -11.977   3.315  1.00  0.00    -0.066 N 
HETATM    2  H   UNL     1      41.427 -12.693   2.766  1.00  0.00     0.278 HD
HETATM    3  H   UNL     1      41.312 -11.760   4.113  1.00  0.00     0.278 HD
ENDROOT
BRANCH   1   4
HETATM    4  C   UNL     1      43.182 -12.651   3.740  1.00  0.00     0.220 C 
HETATM    5  C   UNL     1      43.240 -14.052   3.209  1.00  0.00    -0.021 A 
HETATM    6  C   UNL     1      43.040 -15.000   4.226  1.00  0.00    -0.040 A 
HETATM    7  C   UNL     1      43.416 -14.442   1.887  1.00  0.00     0.010 A 
HETATM    8  C   UNL     1      43.058 -16.366   3.946  1.00  0.00    -0.055 A 
HETATM    9  C   UNL     1      42.811 -14.327   5.552  1.00  0.00     0.018 C 
HETATM   10  C   UNL     1      42.860 -17.410   5.005  1.00  0.00     0.049 C 
HETATM   11  C   UNL     1      43.228 -16.753   2.609  1.00  0.00     0.007 A 
HETATM   12  C   UNL     1      43.403 -15.803   1.592  1.00  0.00     0.001 A 
HETATM   13  C   UNL     1      43.276 -12.885   5.256  1.00  0.00     0.047 C 
HETATM   14  C   UNL     1      41.357 -14.386   6.006  1.00  0.00     0.015 C 
ENDBRANCH   1   4
BRANCH   1  15
HETATM   15  C   UNL     1      42.034 -10.784   2.435  1.00  0.00     0.240 C 
BRANCH  15  16
HETATM   16  C   UNL     1      41.254 -10.999   1.120  1.00  0.00     0.040 C 
BRANCH  16  17
HETATM   17  C   UNL     1      41.143  -9.678   0.344  1.00  0.00     0.170 C 
BRANCH  17  18
HETATM   18  O   UNL     1      42.447  -9.234  -0.027  1.00  0.00    -0.400 OA
HETATM   19  H   UNL     1      43.040  -9.464   0.719  1.00  0.00     0.209 HD
ENDBRANCH  17  18
ENDBRANCH  16  17
BRANCH  16  20
HETATM   20  C   UNL     1      39.843 -11.606   1.299  1.00  0.00     0.067 C 
BRANCH  20  21
HETATM   21  C   UNL     1      39.836 -13.111   1.298  1.00  0.00     0.034 A 
HETATM   22  N   UNL     1      39.711 -13.706   2.519  1.00  0.00    -0.266 NA
HETATM   23  C   UNL     1      39.705 -15.062   2.532  1.00  0.00     0.117 A 
HETATM   24  C   UNL     1      39.852 -15.849   1.401  1.00  0.00     0.019 A 
HETATM   25  C   UNL     1      40.001 -15.215   0.175  1.00  0.00     0.003 A 
HETATM   26  C   UNL     1      39.993 -13.826   0.116  1.00  0.00     0.027 A 
ENDBRANCH  20  21
ENDBRANCH  16  20
ENDBRANCH  15  16
ENDBRANCH   1  15
TORSDOF 7
ENDMDL
MODEL 6
REMARK VINA RESULT:      -7.3      1.789      3.511
REMARK  7 active torsions:
REMARK  status: ('A' for Active; 'I' for Inactive)
REMARK    1  A    between atoms: C_5  and  N_6 
REMARK    2  A    between atoms: N_6  and  C_9 
REMARK    3  A    between atoms: C_9  and  C_10 
REMARK    4  A    between atoms: C_10  and  C_11 
REMARK    5  A    between atoms: C_10  and  C_13 
REMARK    6  A    between atoms: C_11  and  O_12 
REMARK    7  A    between atoms: C_13  and  C_14 
ROOT
HETATM    1  N   UNL     1      42.104 -15.648   4.107  1.00  0.00    -0.066 N 
HETATM    2  H   UNL     1      41.769 -15.489   3.139  1.00  0.00     0.278 HD
HETATM    3  H   UNL     1      41.466 -16.368   4.494  1.00  0.00     0.278 HD
ENDROOT
BRANCH   1   4
HETATM    4  C   UNL     1      43.486 -16.147   3.946  1.00  0.00     0.220 C 
HETATM    5  C   UNL     1      43.490 -17.572   3.480  1.00  0.00    -0.021 A 
HETATM    6  C   UNL     1      43.887 -18.450   4.502  1.00  0.00    -0.040 A 
HETATM    7  C   UNL     1      43.114 -18.047   2.230  1.00  0.00     0.010 A 
HETATM    8  C   UNL     1      43.962 -19.824   4.278  1.00  0.00    -0.055 A 
HETATM    9  C   UNL     1      44.180 -17.699   5.773  1.00  0.00     0.018 C 
HETATM   10  C   UNL     1      44.392 -20.794   5.338  1.00  0.00     0.049 C 
HETATM   11  C   UNL     1      43.573 -20.298   3.016  1.00  0.00     0.007 A 
HETATM   12  C   UNL     1      43.153 -19.421   2.005  1.00  0.00     0.001 A 
HETATM   13  C   UNL     1      44.270 -16.244   5.265  1.00  0.00     0.047 C 
HETATM   14  C   UNL     1      43.098 -17.878   6.831  1.00  0.00     0.015 C 
ENDBRANCH   1   4
BRANCH   1  15
HETATM   15  C   UNL     1      41.885 -14.367   4.828  1.00  0.00     0.240 C 
BRANCH  15  16
HETATM   16  C   UNL     1      41.781 -13.186   3.841  1.00  0.00     0.040 C 
BRANCH  16  17
HETATM   17  C   UNL     1      40.310 -12.800   3.625  1.00  0.00     0.170 C 
BRANCH  17  18
HETATM   18  O   UNL     1      39.472 -13.890   4.009  1.00  0.00    -0.400 OA
HETATM   19  H   UNL     1      39.973 -14.400   4.680  1.00  0.00     0.209 HD
ENDBRANCH  17  18
ENDBRANCH  16  17
BRANCH  16  20
HETATM   20  C   UNL     1      42.450 -13.431   2.467  1.00  0.00     0.067 C 
BRANCH  20  21
HETATM   21  C   UNL     1      41.464 -13.713   1.366  1.00  0.00     0.034 A 
HETATM   22  N   UNL     1      40.903 -14.955   1.373  1.00  0.00    -0.266 NA
HETATM   23  C   UNL     1      40.013 -15.222   0.384  1.00  0.00     0.117 A 
HETATM   24  C   UNL     1      39.684 -14.331  -0.624  1.00  0.00     0.019 A 
HETATM   25  C   UNL     1      40.290 -13.081  -0.619  1.00  0.00     0.003 A 
HETATM   26  C   UNL     1      41.193 -12.761   0.388  1.00  0.00     0.027 A 
ENDBRANCH  20  21
ENDBRANCH  16  20
ENDBRANCH  15  16
ENDBRANCH   1  15
TORSDOF 7
ENDMDL
MODEL 7
REMARK VINA RESULT:      -7.3      2.010      3.431
REMARK  7 active torsions:
REMARK  status: ('A' for Active; 'I' for Inactive)
REMARK    1  A    between atoms: C_5  and  N_6 
REMARK    2  A    between atoms: N_6  and  C_9 
REMARK    3  A    between atoms: C_9  and  C_10 
REMARK    4  A    between atoms: C_10  and  C_11 
REMARK    5  A    between atoms: C_10  and  C_13 
REMARK    6  A    between atoms: C_11  and  O_12 
REMARK    7  A    between atoms: C_13  and  C_14 
ROOT
HETATM    1  N   UNL     1      41.615 -13.665   3.422  1.00  0.00    -0.066 N 
HETATM    2  H   UNL     1      42.596 -13.501   3.712  1.00  0.00     0.278 HD
HETATM    3  H   UNL     1      41.656 -13.763   2.391  1.00  0.00     0.278 HD
ENDROOT
BRANCH   1   4
HETATM    4  C   UNL     1      41.234 -14.924   4.095  1.00  0.00     0.220 C 
HETATM    5  C   UNL     1      42.381 -15.477   4.886  1.00  0.00    -0.021 A 
HETATM    6  C   UNL     1      42.926 -16.620   4.278  1.00  0.00    -0.040 A 
HETATM    7  C   UNL     1      42.924 -14.955   6.053  1.00  0.00     0.010 A 
HETATM    8  C   UNL     1      44.003 -17.293   4.854  1.00  0.00    -0.055 A 
HETATM    9  C   UNL     1      42.204 -16.946   2.999  1.00  0.00     0.018 C 
HETATM   10  C   UNL     1      44.608 -18.522   4.243  1.00  0.00     0.049 C 
HETATM   11  C   UNL     1      44.552 -16.756   6.027  1.00  0.00     0.007 A 
HETATM   12  C   UNL     1      44.021 -15.601   6.619  1.00  0.00     0.001 A 
HETATM   13  C   UNL     1      40.933 -16.080   3.127  1.00  0.00     0.047 C 
HETATM   14  C   UNL     1      43.016 -16.604   1.755  1.00  0.00     0.015 C 
ENDBRANCH   1   4
BRANCH   1  15
HETATM   15  C   UNL     1      40.878 -12.420   3.763  1.00  0.00     0.240 C 
BRANCH  15  16
HETATM   16  C   UNL     1      41.216 -11.949   5.193  1.00  0.00     0.040 C 
BRANCH  16  17
HETATM   17  C   UNL     1      39.929 -11.784   6.017  1.00  0.00     0.170 C 
BRANCH  17  18
HETATM   18  O   UNL     1      39.706 -12.964   6.789  1.00  0.00    -0.400 OA
HETATM   19  H   UNL     1      38.941 -12.772   7.372  1.00  0.00     0.209 HD
ENDBRANCH  17  18
ENDBRANCH  16  17
BRANCH  16  20
HETATM   20  C   UNL     1      42.038 -10.641   5.265  1.00  0.00     0.067 C 
BRANCH  20  21
HETATM   21  C   UNL     1      43.267 -10.756   6.126  1.00  0.00     0.034 A 
HETATM   22  N   UNL     1      43.268 -10.008   7.266  1.00  0.00    -0.266 NA
HETATM   23  C   UNL     1      44.371 -10.103   8.049  1.00  0.00     0.117 A 
HETATM   24  C   UNL     1      45.480 -10.872   7.737  1.00  0.00     0.019 A 
HETATM   25  C   UNL     1      45.461 -11.605   6.558  1.00  0.00     0.003 A 
HETATM   26  C   UNL     1      44.341 -11.551   5.736  1.00  0.00     0.027 A 
ENDBRANCH  20  21
ENDBRANCH  16  20
ENDBRANCH  15  16
ENDBRANCH   1  15
TORSDOF 7
ENDMDL
MODEL 8
REMARK VINA RESULT:      -7.2      3.215      5.245
REMARK  7 active torsions:
REMARK  status: ('A' for Active; 'I' for Inactive)
REMARK    1  A    between atoms: C_5  and  N_6 
REMARK    2  A    between atoms: N_6  and  C_9 
REMARK    3  A    between atoms: C_9  and  C_10 
REMARK    4  A    between atoms: C_10  and  C_11 
REMARK    5  A    between atoms: C_10  and  C_13 
REMARK    6  A    between atoms: C_11  and  O_12 
REMARK    7  A    between atoms: C_13  and  C_14 
ROOT
HETATM    1  N   UNL     1      43.928 -13.170   6.407  1.00  0.00    -0.066 N 
HETATM    2  H   UNL     1      44.638 -13.830   6.774  1.00  0.00     0.278 HD
HETATM    3  H   UNL     1      44.364 -12.752   5.564  1.00  0.00     0.278 HD
ENDROOT
BRANCH   1   4
HETATM    4  C   UNL     1      42.765 -14.021   6.078  1.00  0.00     0.220 C 
HETATM    5  C   UNL     1      43.207 -15.340   5.520  1.00  0.00    -0.021 A 
HETATM    6  C   UNL     1      42.955 -15.429   4.141  1.00  0.00    -0.040 A 
HETATM    7  C   UNL     1      43.837 -16.372   6.203  1.00  0.00     0.010 A 
HETATM    8  C   UNL     1      43.289 -16.578   3.424  1.00  0.00    -0.055 A 
HETATM    9  C   UNL     1      42.325 -14.163   3.625  1.00  0.00     0.018 C 
HETATM   10  C   UNL     1      43.027 -16.717   1.954  1.00  0.00     0.049 C 
HETATM   11  C   UNL     1      43.932 -17.613   4.118  1.00  0.00     0.007 A 
HETATM   12  C   UNL     1      44.204 -17.511   5.491  1.00  0.00     0.001 A 
HETATM   13  C   UNL     1      41.895 -13.470   4.936  1.00  0.00     0.047 C 
HETATM   14  C   UNL     1      43.289 -13.311   2.808  1.00  0.00     0.015 C 
ENDBRANCH   1   4
BRANCH   1  15
HETATM   15  C   UNL     1      43.775 -12.120   7.446  1.00  0.00     0.240 C 
BRANCH  15  16
HETATM   16  C   UNL     1      44.819 -10.999   7.260  1.00  0.00     0.040 C 
BRANCH  16  17
HETATM   17  C   UNL     1      45.803 -11.368   6.138  1.00  0.00     0.170 C 
BRANCH  17  18
HETATM   18  O   UNL     1      45.176 -11.167   4.872  1.00  0.00    -0.400 OA
HETATM   19  H   UNL     1      45.143 -10.197   4.731  1.00  0.00     0.209 HD
ENDBRANCH  17  18
ENDBRANCH  16  17
BRANCH  16  20
HETATM   20  C   UNL     1      45.615 -10.638   8.536  1.00  0.00     0.067 C 
BRANCH  20  21
HETATM   21  C   UNL     1      44.747 -10.134   9.658  1.00  0.00     0.034 A 
HETATM   22  N   UNL     1      44.418 -11.049  10.613  1.00  0.00    -0.266 NA
HETATM   23  C   UNL     1      43.634 -10.606  11.628  1.00  0.00     0.117 A 
HETATM   24  C   UNL     1      43.137  -9.317  11.719  1.00  0.00     0.019 A 
HETATM   25  C   UNL     1      43.470  -8.413  10.719  1.00  0.00     0.003 A 
HETATM   26  C   UNL     1      44.287  -8.821   9.670  1.00  0.00     0.027 A 
ENDBRANCH  20  21
ENDBRANCH  16  20
ENDBRANCH  15  16
ENDBRANCH   1  15
TORSDOF 7
ENDMDL
MODEL 9
REMARK VINA RESULT:      -7.0      1.584      2.221
REMARK  7 active torsions:
REMARK  status: ('A' for Active; 'I' for Inactive)
REMARK    1  A    between atoms: C_5  and  N_6 
REMARK    2  A    between atoms: N_6  and  C_9 
REMARK    3  A    between atoms: C_9  and  C_10 
REMARK    4  A    between atoms: C_10  and  C_11 
REMARK    5  A    between atoms: C_10  and  C_13 
REMARK    6  A    between atoms: C_11  and  O_12 
REMARK    7  A    between atoms: C_13  and  C_14 
ROOT
HETATM    1  N   UNL     1      42.302 -15.133   5.607  1.00  0.00    -0.066 N 
HETATM    2  H   UNL     1      41.790 -14.743   4.794  1.00  0.00     0.278 HD
HETATM    3  H   UNL     1      41.717 -15.923   5.936  1.00  0.00     0.278 HD
ENDROOT
BRANCH   1   4
HETATM    4  C   UNL     1      43.596 -15.582   5.050  1.00  0.00     0.220 C 
HETATM    5  C   UNL     1      43.388 -16.575   3.947  1.00  0.00    -0.021 A 
HETATM    6  C   UNL     1      43.744 -17.875   4.346  1.00  0.00    -0.040 A 
HETATM    7  C   UNL     1      42.868 -16.329   2.683  1.00  0.00     0.010 A 
HETATM    8  C   UNL     1      43.629 -18.951   3.467  1.00  0.00    -0.055 A 
HETATM    9  C   UNL     1      44.218 -17.888   5.774  1.00  0.00     0.018 C 
HETATM   10  C   UNL     1      44.008 -20.351   3.850  1.00  0.00     0.049 C 
HETATM   11  C   UNL     1      43.096 -18.697   2.195  1.00  0.00     0.007 A 
HETATM   12  C   UNL     1      42.718 -17.402   1.808  1.00  0.00     0.001 A 
HETATM   13  C   UNL     1      44.453 -16.386   6.041  1.00  0.00     0.047 C 
HETATM   14  C   UNL     1      43.200 -18.496   6.732  1.00  0.00     0.015 C 
ENDBRANCH   1   4
BRANCH   1  15
HETATM   15  C   UNL     1      42.300 -14.063   6.638  1.00  0.00     0.240 C 
BRANCH  15  16
HETATM   16  C   UNL     1      41.527 -12.821   6.148  1.00  0.00     0.040 C 
BRANCH  16  17
HETATM   17  C   UNL     1      40.392 -13.239   5.201  1.00  0.00     0.170 C 
BRANCH  17  18
HETATM   18  O   UNL     1      39.391 -13.939   5.941  1.00  0.00    -0.400 OA
HETATM   19  H   UNL     1      38.622 -13.333   6.007  1.00  0.00     0.209 HD
ENDBRANCH  17  18
ENDBRANCH  16  17
BRANCH  16  20
HETATM   20  C   UNL     1      42.401 -11.750   5.453  1.00  0.00     0.067 C 
BRANCH  20  21
HETATM   21  C   UNL     1      43.594 -11.331   6.269  1.00  0.00     0.034 A 
HETATM   22  N   UNL     1      44.813 -11.647   5.747  1.00  0.00    -0.266 NA
HETATM   23  C   UNL     1      45.896 -11.277   6.475  1.00  0.00     0.117 A 
HETATM   24  C   UNL     1      45.824 -10.642   7.704  1.00  0.00     0.019 A 
HETATM   25  C   UNL     1      44.568 -10.354   8.222  1.00  0.00     0.003 A 
HETATM   26  C   UNL     1      43.432 -10.700   7.499  1.00  0.00     0.027 A 
ENDBRANCH  20  21
ENDBRANCH  16  20
ENDBRANCH  15  16
ENDBRANCH   1  15
TORSDOF 7
ENDMDL
MODEL 10
REMARK VINA RESULT:      -6.9      2.903      4.815
REMARK  7 active torsions:
REMARK  status: ('A' for Active; 'I' for Inactive)
REMARK    1  A    between atoms: C_5  and  N_6 
REMARK    2  A    between atoms: N_6  and  C_9 
REMARK    3  A    between atoms: C_9  and  C_10 
REMARK    4  A    between atoms: C_10  and  C_11 
REMARK    5  A    between atoms: C_10  and  C_13 
REMARK    6  A    between atoms: C_11  and  O_12 
REMARK    7  A    between atoms: C_13  and  C_14 
ROOT
HETATM    1  N   UNL     1      41.313 -13.529   4.496  1.00  0.00    -0.066 N 
HETATM    2  H   UNL     1      40.875 -14.185   3.823  1.00  0.00     0.278 HD
HETATM    3  H   UNL     1      40.875 -13.754   5.409  1.00  0.00     0.278 HD
ENDROOT
BRANCH   1   4
HETATM    4  C   UNL     1      42.751 -13.866   4.462  1.00  0.00     0.220 C 
HETATM    5  C   UNL     1      42.992 -15.105   3.654  1.00  0.00    -0.021 A 
HETATM    6  C   UNL     1      43.328 -16.199   4.470  1.00  0.00    -0.040 A 
HETATM    7  C   UNL     1      42.872 -15.246   2.277  1.00  0.00     0.010 A 
HETATM    8  C   UNL     1      43.595 -17.450   3.917  1.00  0.00    -0.055 A 
HETATM    9  C   UNL     1      43.332 -15.805   5.922  1.00  0.00     0.018 C 
HETATM   10  C   UNL     1      43.967 -18.640   4.751  1.00  0.00     0.049 C 
HETATM   11  C   UNL     1      43.463 -17.588   2.527  1.00  0.00     0.007 A 
HETATM   12  C   UNL     1      43.105 -16.500   1.717  1.00  0.00     0.001 A 
HETATM   13  C   UNL     1      43.329 -14.264   5.830  1.00  0.00     0.047 C 
HETATM   14  C   UNL     1      42.128 -16.343   6.687  1.00  0.00     0.015 C 
ENDBRANCH   1   4
BRANCH   1  15
HETATM   15  C   UNL     1      40.885 -12.170   4.073  1.00  0.00     0.240 C 
BRANCH  15  16
HETATM   16  C   UNL     1      41.150 -11.948   2.569  1.00  0.00     0.040 C 
BRANCH  16  17
HETATM   17  C   UNL     1      42.068 -10.734   2.363  1.00  0.00     0.170 C 
BRANCH  17  18
HETATM   18  O   UNL     1      42.161  -9.997   3.583  1.00  0.00    -0.400 OA
HETATM   19  H   UNL     1      42.472 -10.630   4.264  1.00  0.00     0.209 HD
ENDBRANCH  17  18
ENDBRANCH  16  17
BRANCH  16  20
HETATM   20  C   UNL     1      39.876 -11.775   1.708  1.00  0.00     0.067 C 
BRANCH  20  21
HETATM   21  C   UNL     1      39.870 -12.635   0.473  1.00  0.00     0.034 A 
HETATM   22  N   UNL     1      39.849 -11.969  -0.716  1.00  0.00    -0.266 NA
HETATM   23  C   UNL     1      39.843 -12.734  -1.837  1.00  0.00     0.117 A 
HETATM   24  C   UNL     1      39.820 -14.118  -1.830  1.00  0.00     0.019 A 
HETATM   25  C   UNL     1      39.817 -14.770  -0.604  1.00  0.00     0.003 A 
HETATM   26  C   UNL     1      39.844 -14.023   0.569  1.00  0.00     0.027 A 
ENDBRANCH  20  21
ENDBRANCH  16  20
ENDBRANCH  15  16
ENDBRANCH   1  15
TORSDOF 7
ENDMDL
