MODEL 1
REMARK VINA RESULT:      -8.2      0.000      0.000
REMARK  3 active torsions:
REMARK  status: ('A' for Active; 'I' for Inactive)
REMARK    1  A    between atoms: C_5  and  C_6 
REMARK    2  A    between atoms: C_13  and  O_14 
REMARK    3  A    between atoms: C_26  and  O_27 
ROOT
HETATM    1  C   UNL     1      42.906 -14.607   6.688  1.00  0.00     0.021 C 
HETATM    2  C   UNL     1      42.559 -14.788   5.207  1.00  0.00     0.033 C 
HETATM    3  C   UNL     1      43.199 -13.676   4.358  1.00  0.00     0.289 C 
HETATM    4  N   UNL     1      42.821 -13.829   2.943  1.00  0.00     0.126 N 
HETATM    5  C   UNL     1      41.374 -13.683   2.778  1.00  0.00     0.458 C 
HETATM    6  N   UNL     1      40.733 -14.826   3.533  1.00  0.00    -0.033 N 
HETATM    7  H   UNL     1      39.716 -14.744   3.441  1.00  0.00     0.282 HD
HETATM    8  C   UNL     1      41.038 -14.705   5.014  1.00  0.00     0.251 C 
HETATM    9  C   UNL     1      43.325 -15.105   2.415  1.00  0.00     0.289 C 
HETATM   10  C   UNL     1      42.702 -16.286   3.178  1.00  0.00     0.033 C 
HETATM   11  C   UNL     1      43.199 -17.615   2.601  1.00  0.00     0.021 C 
HETATM   12  C   UNL     1      41.182 -16.181   3.024  1.00  0.00     0.251 C 
HETATM   13  C   UNL     1      43.064 -16.150   4.674  1.00  0.00     0.141 C 
ENDROOT
BRANCH   5  14
HETATM   14  C   UNL     1      40.909 -13.470   1.346  1.00  0.00     0.044 A 
HETATM   15  C   UNL     1      41.075 -12.251   0.690  1.00  0.00     0.137 A 
HETATM   16 CL   UNL     1      41.698 -10.833   1.442  1.00  0.00    -0.062 Cl
HETATM   17  N   UNL     1      40.709 -12.007  -0.584  1.00  0.00    -0.233 NA
HETATM   18  C   UNL     1      40.084 -12.964  -1.300  1.00  0.00     0.102 A 
HETATM   19  C   UNL     1      39.783 -14.205  -0.708  1.00  0.00    -0.004 A 
HETATM   20  C   UNL     1      39.713 -12.763  -2.642  1.00  0.00     0.097 A 
HETATM   21  C   UNL     1      40.197 -14.437   0.616  1.00  0.00     0.028 A 
HETATM   22  C   UNL     1      39.087 -15.189  -1.431  1.00  0.00     0.014 A 
HETATM   23  C   UNL     1      38.698 -14.955  -2.746  1.00  0.00     0.004 A 
HETATM   24  C   UNL     1      39.013 -13.745  -3.354  1.00  0.00     0.039 A 
BRANCH  20  25
HETATM   25  O   UNL     1      40.048 -11.541  -3.184  1.00  0.00    -0.354 OA
HETATM   26  C   UNL     1      38.988 -10.608  -3.351  1.00  0.00     0.210 C 
ENDBRANCH  20  25
ENDBRANCH   5  14
BRANCH  13  27
HETATM   27  O   UNL     1      42.449 -17.202   5.413  1.00  0.00    -0.394 OA
HETATM   28  H   UNL     1      42.712 -18.054   5.009  1.00  0.00     0.210 HD
ENDBRANCH  13  27
TORSDOF 3
ENDMDL
MODEL 2
REMARK VINA RESULT:      -8.1      3.599      6.955
REMARK  3 active torsions:
REMARK  status: ('A' for Active; 'I' for Inactive)
REMARK    1  A    between atoms: C_5  and  C_6 
REMARK    2  A    between atoms: C_13  and  O_14 
REMARK    3  A    between atoms: C_26  and  O_27 
ROOT
HETATM    1  C   UNL     1      41.228  -8.893   4.937  1.00  0.00     0.021 C 
HETATM    2  C   UNL     1      41.237 -10.375   4.549  1.00  0.00     0.033 C 
HETATM    3  C   UNL     1      41.204 -11.266   5.804  1.00  0.00     0.289 C 
HETATM    4  N   UNL     1      41.261 -12.688   5.423  1.00  0.00     0.126 N 
HETATM    5  C   UNL     1      42.523 -12.989   4.745  1.00  0.00     0.458 C 
HETATM    6  N   UNL     1      42.528 -12.188   3.462  1.00  0.00    -0.033 N 
HETATM    7  H   UNL     1      43.405 -12.375   2.969  1.00  0.00     0.282 HD
HETATM    8  C   UNL     1      42.521 -10.705   3.777  1.00  0.00     0.251 C 
HETATM    9  C   UNL     1      40.085 -13.049   4.619  1.00  0.00     0.289 C 
HETATM   10  C   UNL     1      40.055 -12.236   3.315  1.00  0.00     0.033 C 
HETATM   11  C   UNL     1      38.850 -12.641   2.461  1.00  0.00     0.021 C 
HETATM   12  C   UNL     1      41.357 -12.528   2.562  1.00  0.00     0.251 C 
HETATM   13  C   UNL     1      40.012 -10.733   3.674  1.00  0.00     0.141 C 
ENDROOT
BRANCH   5  14
HETATM   14  C   UNL     1      42.849 -14.470   4.622  1.00  0.00     0.044 A 
HETATM   15  C   UNL     1      43.181 -15.245   5.731  1.00  0.00     0.137 A 
HETATM   16 CL   UNL     1      43.382 -14.614   7.321  1.00  0.00    -0.062 Cl
HETATM   17  N   UNL     1      43.454 -16.565   5.693  1.00  0.00    -0.233 NA
HETATM   18  C   UNL     1      43.472 -17.215   4.511  1.00  0.00     0.102 A 
HETATM   19  C   UNL     1      43.240 -16.510   3.314  1.00  0.00    -0.004 A 
HETATM   20  C   UNL     1      43.721 -18.596   4.428  1.00  0.00     0.097 A 
HETATM   21  C   UNL     1      42.936 -15.139   3.390  1.00  0.00     0.028 A 
HETATM   22  C   UNL     1      43.306 -17.170   2.075  1.00  0.00     0.014 A 
HETATM   23  C   UNL     1      43.590 -18.530   2.015  1.00  0.00     0.004 A 
HETATM   24  C   UNL     1      43.794 -19.245   3.189  1.00  0.00     0.039 A 
BRANCH  20  25
HETATM   25  O   UNL     1      43.922 -19.246   5.626  1.00  0.00    -0.354 OA
HETATM   26  C   UNL     1      43.979 -20.666   5.578  1.00  0.00     0.210 C 
ENDBRANCH  20  25
ENDBRANCH   5  14
BRANCH  13  27
HETATM   27  O   UNL     1      40.043  -9.954   2.480  1.00  0.00    -0.394 OA
HETATM   28  H   UNL     1      40.853  -9.404   2.496  1.00  0.00     0.210 HD
ENDBRANCH  13  27
TORSDOF 3
ENDMDL
MODEL 3
REMARK VINA RESULT:      -8.0      4.628      6.905
REMARK  3 active torsions:
REMARK  status: ('A' for Active; 'I' for Inactive)
REMARK    1  A    between atoms: C_5  and  C_6 
REMARK    2  A    between atoms: C_13  and  O_14 
REMARK    3  A    between atoms: C_26  and  O_27 
ROOT
HETATM    1  C   UNL     1      41.035  -9.290   5.190  1.00  0.00     0.021 C 
HETATM    2  C   UNL     1      41.840 -10.591   5.266  1.00  0.00     0.033 C 
HETATM    3  C   UNL     1      42.109 -11.147   3.857  1.00  0.00     0.289 C 
HETATM    4  N   UNL     1      42.842 -12.422   3.940  1.00  0.00     0.126 N 
HETATM    5  C   UNL     1      42.037 -13.433   4.629  1.00  0.00     0.458 C 
HETATM    6  N   UNL     1      41.842 -12.942   6.046  1.00  0.00    -0.033 N 
HETATM    7  H   UNL     1      41.275 -13.630   6.550  1.00  0.00     0.282 HD
HETATM    8  C   UNL     1      41.046 -11.651   6.042  1.00  0.00     0.251 C 
HETATM    9  C   UNL     1      44.154 -12.217   4.571  1.00  0.00     0.289 C 
HETATM   10  C   UNL     1      43.985 -11.700   6.008  1.00  0.00     0.033 C 
HETATM   11  C   UNL     1      45.352 -11.524   6.676  1.00  0.00     0.021 C 
HETATM   12  C   UNL     1      43.155 -12.735   6.774  1.00  0.00     0.251 C 
HETATM   13  C   UNL     1      43.203 -10.368   5.962  1.00  0.00     0.141 C 
ENDROOT
BRANCH   5  14
HETATM   14  C   UNL     1      42.529 -14.864   4.468  1.00  0.00     0.044 A 
HETATM   15  C   UNL     1      42.827 -15.405   3.218  1.00  0.00     0.137 A 
HETATM   16 CL   UNL     1      42.561 -14.584   1.728  1.00  0.00    -0.062 Cl
HETATM   17  N   UNL     1      43.290 -16.654   3.012  1.00  0.00    -0.233 NA
HETATM   18  C   UNL     1      43.442 -17.497   4.053  1.00  0.00     0.102 A 
HETATM   19  C   UNL     1      43.086 -17.086   5.352  1.00  0.00    -0.004 A 
HETATM   20  C   UNL     1      43.951 -18.797   3.887  1.00  0.00     0.097 A 
HETATM   21  C   UNL     1      42.626 -15.769   5.538  1.00  0.00     0.028 A 
HETATM   22  C   UNL     1      43.194 -17.975   6.435  1.00  0.00     0.014 A 
HETATM   23  C   UNL     1      43.666 -19.269   6.241  1.00  0.00     0.004 A 
HETATM   24  C   UNL     1      44.049 -19.680   4.970  1.00  0.00     0.039 A 
BRANCH  20  25
HETATM   25  O   UNL     1      44.306 -19.146   2.602  1.00  0.00    -0.354 OA
HETATM   26  C   UNL     1      43.560 -20.196   2.000  1.00  0.00     0.210 C 
ENDBRANCH  20  25
ENDBRANCH   5  14
BRANCH  13  27
HETATM   27  O   UNL     1      42.982  -9.896   7.290  1.00  0.00    -0.394 OA
HETATM   28  H   UNL     1      42.041 -10.044   7.513  1.00  0.00     0.210 HD
ENDBRANCH  13  27
TORSDOF 3
ENDMDL
MODEL 4
REMARK VINA RESULT:      -7.9      3.669      7.556
REMARK  3 active torsions:
REMARK  status: ('A' for Active; 'I' for Inactive)
REMARK    1  A    between atoms: C_5  and  C_6 
REMARK    2  A    between atoms: C_13  and  O_14 
REMARK    3  A    between atoms: C_26  and  O_27 
ROOT
HETATM    1  C   UNL     1      40.014 -15.594   1.128  1.00  0.00     0.021 C 
HETATM    2  C   UNL     1      40.739 -15.115   2.390  1.00  0.00     0.033 C 
HETATM    3  C   UNL     1      39.871 -14.111   3.168  1.00  0.00     0.289 C 
HETATM    4  N   UNL     1      40.595 -13.620   4.354  1.00  0.00     0.126 N 
HETATM    5  C   UNL     1      41.800 -12.891   3.955  1.00  0.00     0.458 C 
HETATM    6  N   UNL     1      42.705 -13.890   3.269  1.00  0.00    -0.033 N 
HETATM    7  H   UNL     1      43.556 -13.404   2.972  1.00  0.00     0.282 HD
HETATM    8  C   UNL     1      42.043 -14.404   2.004  1.00  0.00     0.251 C 
HETATM    9  C   UNL     1      40.882 -14.730   5.273  1.00  0.00     0.289 C 
HETATM   10  C   UNL     1      41.786 -15.771   4.594  1.00  0.00     0.033 C 
HETATM   11  C   UNL     1      42.115 -16.908   5.566  1.00  0.00     0.021 C 
HETATM   12  C   UNL     1      43.071 -15.054   4.167  1.00  0.00     0.251 C 
HETATM   13  C   UNL     1      41.066 -16.298   3.332  1.00  0.00     0.141 C 
ENDROOT
BRANCH   5  14
HETATM   14  C   UNL     1      42.431 -12.046   5.051  1.00  0.00     0.044 A 
HETATM   15  C   UNL     1      41.690 -11.126   5.791  1.00  0.00     0.137 A 
HETATM   16 CL   UNL     1      40.039 -10.750   5.481  1.00  0.00    -0.062 Cl
HETATM   17  N   UNL     1      42.184 -10.367   6.790  1.00  0.00    -0.233 NA
HETATM   18  C   UNL     1      43.495 -10.429   7.098  1.00  0.00     0.102 A 
HETATM   19  C   UNL     1      44.357 -11.258   6.355  1.00  0.00    -0.004 A 
HETATM   20  C   UNL     1      44.046  -9.679   8.153  1.00  0.00     0.097 A 
HETATM   21  C   UNL     1      43.808 -12.053   5.333  1.00  0.00     0.028 A 
HETATM   22  C   UNL     1      45.733 -11.289   6.636  1.00  0.00     0.014 A 
HETATM   23  C   UNL     1      46.261 -10.511   7.661  1.00  0.00     0.004 A 
HETATM   24  C   UNL     1      45.419  -9.709   8.422  1.00  0.00     0.039 A 
BRANCH  20  25
HETATM   25  O   UNL     1      43.160  -8.898   8.864  1.00  0.00    -0.354 OA
HETATM   26  C   UNL     1      43.000  -9.213  10.242  1.00  0.00     0.210 C 
ENDBRANCH  20  25
ENDBRANCH   5  14
BRANCH  13  27
HETATM   27  O   UNL     1      41.910 -17.224   2.650  1.00  0.00    -0.394 OA
HETATM   28  H   UNL     1      42.253 -17.864   3.306  1.00  0.00     0.210 HD
ENDBRANCH  13  27
TORSDOF 3
ENDMDL
MODEL 5
REMARK VINA RESULT:      -7.5      3.507      6.555
REMARK  3 active torsions:
REMARK  status: ('A' for Active; 'I' for Inactive)
REMARK    1  A    between atoms: C_5  and  C_6 
REMARK    2  A    between atoms: C_13  and  O_14 
REMARK    3  A    between atoms: C_26  and  O_27 
ROOT
HETATM    1  C   UNL     1      40.253  -8.692   2.620  1.00  0.00     0.021 C 
HETATM    2  C   UNL     1      40.481 -10.127   3.104  1.00  0.00     0.033 C 
HETATM    3  C   UNL     1      41.985 -10.434   3.207  1.00  0.00     0.289 C 
HETATM    4  N   UNL     1      42.196 -11.830   3.628  1.00  0.00     0.126 N 
HETATM    5  C   UNL     1      41.661 -12.755   2.626  1.00  0.00     0.458 C 
HETATM    6  N   UNL     1      40.166 -12.528   2.580  1.00  0.00    -0.033 N 
HETATM    7  H   UNL     1      39.765 -13.159   1.880  1.00  0.00     0.282 HD
HETATM    8  C   UNL     1      39.870 -11.118   2.104  1.00  0.00     0.251 C 
HETATM    9  C   UNL     1      41.627 -12.053   4.965  1.00  0.00     0.289 C 
HETATM   10  C   UNL     1      40.109 -11.811   4.950  1.00  0.00     0.033 C 
HETATM   11  C   UNL     1      39.513 -12.080   6.336  1.00  0.00     0.021 C 
HETATM   12  C   UNL     1      39.501 -12.768   3.920  1.00  0.00     0.251 C 
HETATM   13  C   UNL     1      39.847 -10.357   4.497  1.00  0.00     0.141 C 
ENDROOT
BRANCH   5  14
HETATM   14  C   UNL     1      42.124 -14.196   2.771  1.00  0.00     0.044 A 
HETATM   15  C   UNL     1      41.826 -15.165   1.814  1.00  0.00     0.137 A 
HETATM   16 CL   UNL     1      40.815 -14.888   0.448  1.00  0.00    -0.062 Cl
HETATM   17  N   UNL     1      42.228 -16.451   1.871  1.00  0.00    -0.233 NA
HETATM   18  C   UNL     1      42.926 -16.892   2.937  1.00  0.00     0.102 A 
HETATM   19  C   UNL     1      43.206 -16.021   4.007  1.00  0.00    -0.004 A 
HETATM   20  C   UNL     1      43.392 -18.216   3.022  1.00  0.00     0.097 A 
HETATM   21  C   UNL     1      42.792 -14.680   3.908  1.00  0.00     0.028 A 
HETATM   22  C   UNL     1      43.889 -16.485   5.144  1.00  0.00     0.014 A 
HETATM   23  C   UNL     1      44.309 -17.809   5.222  1.00  0.00     0.004 A 
HETATM   24  C   UNL     1      44.066 -18.674   4.162  1.00  0.00     0.039 A 
BRANCH  20  25
HETATM   25  O   UNL     1      43.112 -19.025   1.943  1.00  0.00    -0.354 OA
HETATM   26  C   UNL     1      43.501 -20.388   2.051  1.00  0.00     0.210 C 
ENDBRANCH  20  25
ENDBRANCH   5  14
BRANCH  13  27
HETATM   27  O   UNL     1      38.443 -10.124   4.419  1.00  0.00    -0.394 OA
HETATM   28  H   UNL     1      38.221  -9.388   5.024  1.00  0.00     0.210 HD
ENDBRANCH  13  27
TORSDOF 3
ENDMDL
MODEL 6
REMARK VINA RESULT:      -7.2      4.143      6.147
REMARK  3 active torsions:
REMARK  status: ('A' for Active; 'I' for Inactive)
REMARK    1  A    between atoms: C_5  and  C_6 
REMARK    2  A    between atoms: C_13  and  O_14 
REMARK    3  A    between atoms: C_26  and  O_27 
ROOT
HETATM    1  C   UNL     1      42.969 -17.746   2.342  1.00  0.00     0.021 C 
HETATM    2  C   UNL     1      42.536 -16.652   3.323  1.00  0.00     0.033 C 
HETATM    3  C   UNL     1      41.038 -16.340   3.162  1.00  0.00     0.289 C 
HETATM    4  N   UNL     1      40.640 -15.254   4.076  1.00  0.00     0.126 N 
HETATM    5  C   UNL     1      41.350 -14.018   3.744  1.00  0.00     0.458 C 
HETATM    6  N   UNL     1      42.820 -14.283   3.987  1.00  0.00    -0.033 N 
HETATM    7  H   UNL     1      43.343 -13.433   3.755  1.00  0.00     0.282 HD
HETATM    8  C   UNL     1      43.315 -15.360   3.041  1.00  0.00     0.251 C 
HETATM    9  C   UNL     1      40.838 -15.664   5.473  1.00  0.00     0.289 C 
HETATM   10  C   UNL     1      42.323 -15.957   5.743  1.00  0.00     0.033 C 
HETATM   11  C   UNL     1      42.531 -16.347   7.209  1.00  0.00     0.021 C 
HETATM   12  C   UNL     1      43.109 -14.683   5.419  1.00  0.00     0.251 C 
HETATM   13  C   UNL     1      42.782 -17.083   4.789  1.00  0.00     0.141 C 
ENDROOT
BRANCH   5  14
HETATM   14  C   UNL     1      40.775 -12.758   4.374  1.00  0.00     0.044 A 
HETATM   15  C   UNL     1      39.573 -12.201   3.941  1.00  0.00     0.137 A 
HETATM   16 CL   UNL     1      38.676 -12.781   2.591  1.00  0.00    -0.062 Cl
HETATM   17  N   UNL     1      38.999 -11.104   4.474  1.00  0.00    -0.233 NA
HETATM   18  C   UNL     1      39.620 -10.431   5.464  1.00  0.00     0.102 A 
HETATM   19  C   UNL     1      40.884 -10.853   5.918  1.00  0.00    -0.004 A 
HETATM   20  C   UNL     1      39.042  -9.301   6.069  1.00  0.00     0.097 A 
HETATM   21  C   UNL     1      41.447 -12.013   5.358  1.00  0.00     0.028 A 
HETATM   22  C   UNL     1      41.561 -10.128   6.914  1.00  0.00     0.014 A 
HETATM   23  C   UNL     1      40.986  -8.991   7.473  1.00  0.00     0.004 A 
HETATM   24  C   UNL     1      39.726  -8.579   7.055  1.00  0.00     0.039 A 
BRANCH  20  25
HETATM   25  O   UNL     1      37.796  -8.939   5.605  1.00  0.00    -0.354 OA
HETATM   26  C   UNL     1      37.641  -7.590   5.184  1.00  0.00     0.210 C 
ENDBRANCH  20  25
ENDBRANCH   5  14
BRANCH  13  27
HETATM   27  O   UNL     1      44.173 -17.334   4.978  1.00  0.00    -0.394 OA
HETATM   28  H   UNL     1      44.674 -16.608   4.555  1.00  0.00     0.210 HD
ENDBRANCH  13  27
TORSDOF 3
ENDMDL
MODEL 7
REMARK VINA RESULT:      -7.1      2.320      2.657
REMARK  3 active torsions:
REMARK  status: ('A' for Active; 'I' for Inactive)
REMARK    1  A    between atoms: C_5  and  C_6 
REMARK    2  A    between atoms: C_13  and  O_14 
REMARK    3  A    between atoms: C_26  and  O_27 
ROOT
HETATM    1  C   UNL     1      43.404 -16.752   6.984  1.00  0.00     0.021 C 
HETATM    2  C   UNL     1      42.832 -16.189   5.679  1.00  0.00     0.033 C 
HETATM    3  C   UNL     1      43.042 -14.667   5.606  1.00  0.00     0.289 C 
HETATM    4  N   UNL     1      42.448 -14.126   4.371  1.00  0.00     0.126 N 
HETATM    5  C   UNL     1      40.999 -14.337   4.364  1.00  0.00     0.458 C 
HETATM    6  N   UNL     1      40.777 -15.833   4.343  1.00  0.00    -0.033 N 
HETATM    7  H   UNL     1      39.769 -16.009   4.344  1.00  0.00     0.282 HD
HETATM    8  C   UNL     1      41.322 -16.455   5.614  1.00  0.00     0.251 C 
HETATM    9  C   UNL     1      43.110 -14.701   3.192  1.00  0.00     0.289 C 
HETATM   10  C   UNL     1      42.915 -16.225   3.155  1.00  0.00     0.033 C 
HETATM   11  C   UNL     1      43.573 -16.816   1.904  1.00  0.00     0.021 C 
HETATM   12  C   UNL     1      41.408 -16.495   3.135  1.00  0.00     0.251 C 
HETATM   13  C   UNL     1      43.514 -16.828   4.446  1.00  0.00     0.141 C 
ENDROOT
BRANCH   5  14
HETATM   14  C   UNL     1      40.237 -13.523   3.328  1.00  0.00     0.044 A 
HETATM   15  C   UNL     1      39.449 -12.430   3.684  1.00  0.00     0.137 A 
HETATM   16 CL   UNL     1      39.145 -11.954   5.311  1.00  0.00    -0.062 Cl
HETATM   17  N   UNL     1      38.771 -11.655   2.814  1.00  0.00    -0.233 NA
HETATM   18  C   UNL     1      38.784 -11.950   1.498  1.00  0.00     0.102 A 
HETATM   19  C   UNL     1      39.474 -13.086   1.036  1.00  0.00    -0.004 A 
HETATM   20  C   UNL     1      38.117 -11.151   0.553  1.00  0.00     0.097 A 
HETATM   21  C   UNL     1      40.189 -13.863   1.966  1.00  0.00     0.028 A 
HETATM   22  C   UNL     1      39.450 -13.429  -0.327  1.00  0.00     0.014 A 
HETATM   23  C   UNL     1      38.754 -12.643  -1.239  1.00  0.00     0.004 A 
HETATM   24  C   UNL     1      38.091 -11.503  -0.802  1.00  0.00     0.039 A 
BRANCH  20  25
HETATM   25  O   UNL     1      37.473 -10.038   1.050  1.00  0.00    -0.354 OA
HETATM   26  C   UNL     1      37.895  -8.779   0.542  1.00  0.00     0.210 C 
ENDBRANCH  20  25
ENDBRANCH   5  14
BRANCH  13  27
HETATM   27  O   UNL     1      43.294 -18.236   4.464  1.00  0.00    -0.394 OA
HETATM   28  H   UNL     1      43.563 -18.576   5.341  1.00  0.00     0.210 HD
ENDBRANCH  13  27
TORSDOF 3
ENDMDL
MODEL 8
REMARK VINA RESULT:      -7.0      1.720      7.212
REMARK  3 active torsions:
REMARK  status: ('A' for Active; 'I' for Inactive)
REMARK    1  A    between atoms: C_5  and  C_6 
REMARK    2  A    between atoms: C_13  and  O_14 
REMARK    3  A    between atoms: C_26  and  O_27 
ROOT
HETATM    1  C   UNL     1      36.904 -10.598  -2.800  1.00  0.00     0.021 C 
HETATM    2  C   UNL     1      38.075 -11.298  -2.102  1.00  0.00     0.033 C 
HETATM    3  C   UNL     1      37.685 -12.728  -1.689  1.00  0.00     0.289 C 
HETATM    4  N   UNL     1      38.799 -13.377  -0.976  1.00  0.00     0.126 N 
HETATM    5  C   UNL     1      39.100 -12.663   0.266  1.00  0.00     0.458 C 
HETATM    6  N   UNL     1      39.573 -11.282  -0.129  1.00  0.00    -0.033 N 
HETATM    7  H   UNL     1      39.784 -10.757   0.724  1.00  0.00     0.282 HD
HETATM    8  C   UNL     1      38.455 -10.532  -0.828  1.00  0.00     0.251 C 
HETATM    9  C   UNL     1      39.969 -13.496  -1.858  1.00  0.00     0.289 C 
HETATM   10  C   UNL     1      40.461 -12.105  -2.290  1.00  0.00     0.033 C 
HETATM   11  C   UNL     1      41.703 -12.231  -3.178  1.00  0.00     0.021 C 
HETATM   12  C   UNL     1      40.799 -11.322  -1.018  1.00  0.00     0.251 C 
HETATM   13  C   UNL     1      39.310 -11.386  -3.029  1.00  0.00     0.141 C 
ENDROOT
BRANCH   5  14
HETATM   14  C   UNL     1      39.976 -13.425   1.249  1.00  0.00     0.044 A 
HETATM   15  C   UNL     1      39.972 -13.142   2.613  1.00  0.00     0.137 A 
HETATM   16 CL   UNL     1      39.091 -11.842   3.322  1.00  0.00    -0.062 Cl
HETATM   17  N   UNL     1      40.704 -13.796   3.537  1.00  0.00    -0.233 NA
HETATM   18  C   UNL     1      41.557 -14.768   3.155  1.00  0.00     0.102 A 
HETATM   19  C   UNL     1      41.710 -15.076   1.790  1.00  0.00    -0.004 A 
HETATM   20  C   UNL     1      42.316 -15.497   4.088  1.00  0.00     0.097 A 
HETATM   21  C   UNL     1      40.916 -14.391   0.853  1.00  0.00     0.028 A 
HETATM   22  C   UNL     1      42.634 -16.053   1.380  1.00  0.00     0.014 A 
HETATM   23  C   UNL     1      43.401 -16.736   2.318  1.00  0.00     0.004 A 
HETATM   24  C   UNL     1      43.241 -16.463   3.671  1.00  0.00     0.039 A 
BRANCH  20  25
HETATM   25  O   UNL     1      42.117 -15.174   5.412  1.00  0.00    -0.354 OA
HETATM   26  C   UNL     1      41.865 -16.256   6.300  1.00  0.00     0.210 C 
ENDBRANCH  20  25
ENDBRANCH   5  14
BRANCH  13  27
HETATM   27  O   UNL     1      39.722 -10.069  -3.390  1.00  0.00    -0.394 OA
HETATM   28  H   UNL     1      39.666  -9.988  -4.364  1.00  0.00     0.210 HD
ENDBRANCH  13  27
TORSDOF 3
ENDMDL
MODEL 9
REMARK VINA RESULT:      -7.0     15.800     17.100
REMARK  3 active torsions:
REMARK  status: ('A' for Active; 'I' for Inactive)
REMARK    1  A    between atoms: C_5  and  C_6 
REMARK    2  A    between atoms: C_13  and  O_14 
REMARK    3  A    between atoms: C_26  and  O_27 
ROOT
HETATM    1  C   UNL     1      40.660 -31.758   5.803  1.00  0.00     0.021 C 
HETATM    2  C   UNL     1      41.445 -31.565   4.502  1.00  0.00     0.033 C 
HETATM    3  C   UNL     1      42.930 -31.914   4.706  1.00  0.00     0.289 C 
HETATM    4  N   UNL     1      43.687 -31.680   3.464  1.00  0.00     0.126 N 
HETATM    5  C   UNL     1      43.650 -30.263   3.099  1.00  0.00     0.458 C 
HETATM    6  N   UNL     1      42.204 -29.927   2.805  1.00  0.00    -0.033 N 
HETATM    7  H   UNL     1      42.148 -28.936   2.553  1.00  0.00     0.282 HD
HETATM    8  C   UNL     1      41.368 -30.097   4.059  1.00  0.00     0.251 C 
HETATM    9  C   UNL     1      43.191 -32.554   2.391  1.00  0.00     0.289 C 
HETATM   10  C   UNL     1      41.717 -32.246   2.085  1.00  0.00     0.033 C 
HETATM   11  C   UNL     1      41.214 -33.132   0.941  1.00  0.00     0.021 C 
HETATM   12  C   UNL     1      41.629 -30.770   1.685  1.00  0.00     0.251 C 
HETATM   13  C   UNL     1      40.891 -32.465   3.372  1.00  0.00     0.141 C 
ENDROOT
BRANCH   5  14
HETATM   14  C   UNL     1      44.670 -29.842   2.052  1.00  0.00     0.044 A 
HETATM   15  C   UNL     1      46.039 -29.858   2.309  1.00  0.00     0.137 A 
HETATM   16 CL   UNL     1      46.724 -30.224   3.847  1.00  0.00    -0.062 Cl
HETATM   17  N   UNL     1      46.993 -29.523   1.418  1.00  0.00    -0.233 NA
HETATM   18  C   UNL     1      46.645 -29.084   0.191  1.00  0.00     0.102 A 
HETATM   19  C   UNL     1      45.286 -28.942  -0.148  1.00  0.00    -0.004 A 
HETATM   20  C   UNL     1      47.607 -28.754  -0.780  1.00  0.00     0.097 A 
HETATM   21  C   UNL     1      44.314 -29.320   0.796  1.00  0.00     0.028 A 
HETATM   22  C   UNL     1      44.915 -28.437  -1.406  1.00  0.00     0.014 A 
HETATM   23  C   UNL     1      45.885 -28.083  -2.338  1.00  0.00     0.004 A 
HETATM   24  C   UNL     1      47.230 -28.244  -2.029  1.00  0.00     0.039 A 
BRANCH  20  25
HETATM   25  O   UNL     1      48.923 -28.929  -0.409  1.00  0.00    -0.354 OA
HETATM   26  C   UNL     1      49.637 -29.966  -1.071  1.00  0.00     0.210 C 
ENDBRANCH  20  25
ENDBRANCH   5  14
BRANCH  13  27
HETATM   27  O   UNL     1      39.527 -32.130   3.130  1.00  0.00    -0.394 OA
HETATM   28  H   UNL     1      38.973 -32.889   3.402  1.00  0.00     0.210 HD
ENDBRANCH  13  27
TORSDOF 3
ENDMDL
MODEL 10
REMARK VINA RESULT:      -7.0      3.961      8.051
REMARK  3 active torsions:
REMARK  status: ('A' for Active; 'I' for Inactive)
REMARK    1  A    between atoms: C_5  and  C_6 
REMARK    2  A    between atoms: C_13  and  O_14 
REMARK    3  A    between atoms: C_26  and  O_27 
ROOT
HETATM    1  C   UNL     1      40.135 -15.928   1.495  1.00  0.00     0.021 C 
HETATM    2  C   UNL     1      40.691 -14.697   2.217  1.00  0.00     0.033 C 
HETATM    3  C   UNL     1      42.118 -14.965   2.727  1.00  0.00     0.289 C 
HETATM    4  N   UNL     1      42.628 -13.794   3.462  1.00  0.00     0.126 N 
HETATM    5  C   UNL     1      41.813 -13.539   4.651  1.00  0.00     0.458 C 
HETATM    6  N   UNL     1      40.427 -13.183   4.160  1.00  0.00    -0.033 N 
HETATM    7  H   UNL     1      39.832 -13.006   4.974  1.00  0.00     0.282 HD
HETATM    8  C   UNL     1      39.816 -14.366   3.433  1.00  0.00     0.251 C 
HETATM    9  C   UNL     1      42.710 -12.628   2.571  1.00  0.00     0.289 C 
HETATM   10  C   UNL     1      41.316 -12.255   2.042  1.00  0.00     0.033 C 
HETATM   11  C   UNL     1      41.399 -11.017   1.145  1.00  0.00     0.021 C 
HETATM   12  C   UNL     1      40.426 -11.968   3.256  1.00  0.00     0.251 C 
HETATM   13  C   UNL     1      40.740 -13.469   1.278  1.00  0.00     0.141 C 
ENDROOT
BRANCH   5  14
HETATM   14  C   UNL     1      42.436 -12.593   5.666  1.00  0.00     0.044 A 
HETATM   15  C   UNL     1      43.407 -13.019   6.572  1.00  0.00     0.137 A 
HETATM   16 CL   UNL     1      43.917 -14.656   6.735  1.00  0.00    -0.062 Cl
HETATM   17  N   UNL     1      44.015 -12.226   7.476  1.00  0.00    -0.233 NA
HETATM   18  C   UNL     1      43.655 -10.931   7.588  1.00  0.00     0.102 A 
HETATM   19  C   UNL     1      42.620 -10.415   6.785  1.00  0.00    -0.004 A 
HETATM   20  C   UNL     1      44.285 -10.061   8.495  1.00  0.00     0.097 A 
HETATM   21  C   UNL     1      42.020 -11.261   5.835  1.00  0.00     0.028 A 
HETATM   22  C   UNL     1      42.204  -9.080   6.930  1.00  0.00     0.014 A 
HETATM   23  C   UNL     1      42.818  -8.248   7.860  1.00  0.00     0.004 A 
HETATM   24  C   UNL     1      43.860  -8.735   8.640  1.00  0.00     0.039 A 
BRANCH  20  25
HETATM   25  O   UNL     1      45.305 -10.606   9.244  1.00  0.00    -0.354 OA
HETATM   26  C   UNL     1      45.417 -10.158  10.589  1.00  0.00     0.210 C 
ENDBRANCH  20  25
ENDBRANCH   5  14
BRANCH  13  27
HETATM   27  O   UNL     1      39.421 -13.169   0.826  1.00  0.00    -0.394 OA
HETATM   28  H   UNL     1      38.835 -13.120   1.608  1.00  0.00     0.210 HD
ENDBRANCH  13  27
TORSDOF 3
ENDMDL
