MODEL 1
REMARK VINA RESULT:      -8.1      0.000      0.000
REMARK  11 active torsions:
REMARK  status: ('A' for Active; 'I' for Inactive)
REMARK    1  A    between atoms: O_2  and  C_3 
REMARK    2  A    between atoms: C_6  and  C_7 
REMARK    3  A    between atoms: C_7  and  S_8 
REMARK    4  A    between atoms: C_7  and  C_22 
REMARK    5  A    between atoms: S_8  and  C_9 
REMARK    6  A    between atoms: C_12  and  C_13 
REMARK    7  A    between atoms: C_22  and  C_23 
REMARK       I    between atoms: C_23  and  N_24 
REMARK    8  A    between atoms: N_24  and  C_25 
REMARK    9  A    between atoms: C_25  and  C_26 
REMARK   10  A    between atoms: C_26  and  C_27 
REMARK   11  A    between atoms: C_27  and  N_28 
ROOT
HETATM    1  C   UNL     1      42.422 -10.999   5.278  1.00  0.00     0.097 C 
ENDROOT
BRANCH   1   2
HETATM    2  C   UNL     1      43.180 -10.621   6.544  1.00  0.00    -0.043 A 
HETATM    3  C   UNL     1      42.584  -9.873   7.573  1.00  0.00     0.011 A 
HETATM    4  C   UNL     1      43.280  -9.610   8.755  1.00  0.00     0.037 A 
HETATM    5  C   UNL     1      44.563 -10.118   8.943  1.00  0.00     0.068 A 
HETATM    6  C   UNL     1      45.181 -10.835   7.922  1.00  0.00     0.037 A 
HETATM    7  C   UNL     1      44.494 -11.086   6.731  1.00  0.00     0.011 A 
BRANCH   5   8
HETATM    8  O   UNL     1      45.161  -9.832  10.138  1.00  0.00    -0.356 OA
HETATM    9  C   UNL     1      44.267  -9.262  11.094  1.00  0.00     0.210 C 
ENDBRANCH   5   8
ENDBRANCH   1   2
BRANCH   1  10
HETATM   10  S   UNL     1      41.097 -12.236   5.624  1.00  0.00    -0.080 SA
BRANCH  10  11
HETATM   11  C   UNL     1      41.930 -13.732   5.713  1.00  0.00     0.190 A 
HETATM   12  N   UNL     1      42.653 -14.181   6.705  1.00  0.00    -0.122 NA
HETATM   13  N   UNL     1      43.158 -15.397   6.327  1.00  0.00    -0.129 NA
HETATM   14  C   UNL     1      42.773 -15.650   5.084  1.00  0.00     0.162 A 
HETATM   15  N   UNL     1      41.991 -14.598   4.665  1.00  0.00    -0.317 N 
HETATM   16  H   UNL     1      41.532 -14.492   3.773  1.00  0.00     0.169 HD
BRANCH  14  17
HETATM   17  C   UNL     1      43.110 -16.836   4.297  1.00  0.00     0.012 A 
HETATM   18  C   UNL     1      42.498 -17.026   3.046  1.00  0.00     0.017 A 
HETATM   19  C   UNL     1      42.779 -18.151   2.266  1.00  0.00     0.025 A 
HETATM   20  C   UNL     1      43.675 -19.107   2.733  1.00  0.00     0.034 A 
HETATM   21 CL   UNL     1      44.018 -20.498   1.783  1.00  0.00    -0.084 Cl
HETATM   22  C   UNL     1      44.292 -18.942   3.972  1.00  0.00     0.025 A 
HETATM   23  C   UNL     1      44.013 -17.812   4.750  1.00  0.00     0.017 A 
ENDBRANCH  14  17
ENDBRANCH  10  11
ENDBRANCH   1  10
BRANCH   1  24
HETATM   24  C   UNL     1      43.411 -11.299   4.146  1.00  0.00     0.123 C 
BRANCH  24  25
HETATM   25  C   UNL     1      42.735 -11.492   2.809  1.00  0.00     0.219 C 
HETATM   26  N   UNL     1      42.250 -10.341   2.241  1.00  0.00    -0.361 N 
HETATM   27  H   UNL     1      42.613  -9.451   2.592  1.00  0.00     0.162 HD
HETATM   28  O   UNL     1      42.605 -12.591   2.268  1.00  0.00    -0.274 OA
BRANCH  26  29
HETATM   29  C   UNL     1      41.433 -10.312   1.052  1.00  0.00     0.124 C 
BRANCH  29  30
HETATM   30  C   UNL     1      39.948 -10.083   1.316  1.00  0.00     0.047 C 
BRANCH  30  31
HETATM   31  C   UNL     1      39.080 -11.320   1.550  1.00  0.00     0.236 C 
BRANCH  31  32
HETATM   32  N   UNL     1      39.690 -12.603   1.057  1.00  0.00    -0.067 N 
HETATM   33  H   UNL     1      40.710 -12.411   0.940  1.00  0.00     0.280 HD
HETATM   34  C   UNL     1      39.519 -13.806   1.965  1.00  0.00     0.261 C 
HETATM   35  C   UNL     1      40.222 -15.022   1.350  1.00  0.00     0.195 C 
HETATM   36  O   UNL     1      39.712 -15.302   0.042  1.00  0.00    -0.388 OA
HETATM   37  C   UNL     1      39.931 -14.203  -0.849  1.00  0.00     0.195 C 
HETATM   38  C   UNL     1      39.213 -12.944  -0.352  1.00  0.00     0.261 C 
ENDBRANCH  31  32
ENDBRANCH  30  31
ENDBRANCH  29  30
ENDBRANCH  26  29
ENDBRANCH  24  25
ENDBRANCH   1  24
TORSDOF 11
ENDMDL
MODEL 2
REMARK VINA RESULT:      -8.0      3.522      6.816
REMARK  11 active torsions:
REMARK  status: ('A' for Active; 'I' for Inactive)
REMARK    1  A    between atoms: O_2  and  C_3 
REMARK    2  A    between atoms: C_6  and  C_7 
REMARK    3  A    between atoms: C_7  and  S_8 
REMARK    4  A    between atoms: C_7  and  C_22 
REMARK    5  A    between atoms: S_8  and  C_9 
REMARK    6  A    between atoms: C_12  and  C_13 
REMARK    7  A    between atoms: C_22  and  C_23 
REMARK       I    between atoms: C_23  and  N_24 
REMARK    8  A    between atoms: N_24  and  C_25 
REMARK    9  A    between atoms: C_25  and  C_26 
REMARK   10  A    between atoms: C_26  and  C_27 
REMARK   11  A    between atoms: C_27  and  N_28 
ROOT
HETATM    1  C   UNL     1      42.138 -15.476   2.910  1.00  0.00     0.097 C 
ENDROOT
BRANCH   1   2
HETATM    2  C   UNL     1      42.904 -16.729   3.314  1.00  0.00    -0.043 A 
HETATM    3  C   UNL     1      43.476 -16.874   4.589  1.00  0.00     0.011 A 
HETATM    4  C   UNL     1      44.105 -18.067   4.954  1.00  0.00     0.037 A 
HETATM    5  C   UNL     1      44.140 -19.142   4.069  1.00  0.00     0.068 A 
HETATM    6  C   UNL     1      43.606 -19.006   2.791  1.00  0.00     0.037 A 
HETATM    7  C   UNL     1      42.992 -17.808   2.416  1.00  0.00     0.011 A 
BRANCH   5   8
HETATM    8  O   UNL     1      44.754 -20.277   4.518  1.00  0.00    -0.356 OA
HETATM    9  C   UNL     1      44.016 -20.954   5.535  1.00  0.00     0.210 C 
ENDBRANCH   5   8
ENDBRANCH   1   2
BRANCH   1  10
HETATM   10  S   UNL     1      40.598 -15.273   3.906  1.00  0.00    -0.080 SA
BRANCH  10  11
HETATM   11  C   UNL     1      40.907 -13.899   4.885  1.00  0.00     0.190 A 
HETATM   12  N   UNL     1      40.040 -13.027   5.327  1.00  0.00    -0.122 NA
HETATM   13  N   UNL     1      40.734 -12.081   6.035  1.00  0.00    -0.129 NA
HETATM   14  C   UNL     1      42.027 -12.366   5.971  1.00  0.00     0.162 A 
HETATM   15  N   UNL     1      42.166 -13.522   5.238  1.00  0.00    -0.317 N 
HETATM   16  H   UNL     1      43.021 -14.010   5.018  1.00  0.00     0.169 HD
BRANCH  14  17
HETATM   17  C   UNL     1      43.114 -11.599   6.579  1.00  0.00     0.012 A 
HETATM   18  C   UNL     1      42.817 -10.399   7.247  1.00  0.00     0.017 A 
HETATM   19  C   UNL     1      43.824  -9.627   7.831  1.00  0.00     0.025 A 
HETATM   20  C   UNL     1      45.148 -10.045   7.748  1.00  0.00     0.034 A 
HETATM   21 CL   UNL     1      46.394  -9.095   8.456  1.00  0.00    -0.084 Cl
HETATM   22  C   UNL     1      45.468 -11.230   7.088  1.00  0.00     0.025 A 
HETATM   23  C   UNL     1      44.457 -12.004   6.507  1.00  0.00     0.017 A 
ENDBRANCH  14  17
ENDBRANCH  10  11
ENDBRANCH   1  10
BRANCH   1  24
HETATM   24  C   UNL     1      42.026 -15.399   1.384  1.00  0.00     0.123 C 
BRANCH  24  25
HETATM   25  C   UNL     1      41.033 -14.360   0.917  1.00  0.00     0.219 C 
HETATM   26  N   UNL     1      41.461 -13.063   1.043  1.00  0.00    -0.361 N 
HETATM   27  H   UNL     1      42.466 -12.905   1.157  1.00  0.00     0.162 HD
HETATM   28  O   UNL     1      39.918 -14.639   0.476  1.00  0.00    -0.274 OA
BRANCH  26  29
HETATM   29  C   UNL     1      40.622 -11.912   0.811  1.00  0.00     0.124 C 
BRANCH  29  30
HETATM   30  C   UNL     1      40.968 -11.128  -0.452  1.00  0.00     0.047 C 
BRANCH  30  31
HETATM   31  C   UNL     1      40.948 -11.891  -1.777  1.00  0.00     0.236 C 
BRANCH  31  32
HETATM   32  N   UNL     1      39.740 -12.768  -1.964  1.00  0.00    -0.067 N 
HETATM   33  H   UNL     1      39.521 -13.162  -1.023  1.00  0.00     0.280 HD
HETATM   34  C   UNL     1      38.504 -12.078  -2.508  1.00  0.00     0.261 C 
HETATM   35  C   UNL     1      37.352 -13.086  -2.608  1.00  0.00     0.195 C 
HETATM   36  O   UNL     1      37.713 -14.198  -3.435  1.00  0.00    -0.388 OA
HETATM   37  C   UNL     1      38.836 -14.905  -2.897  1.00  0.00     0.195 C 
HETATM   38  C   UNL     1      40.066 -13.994  -2.813  1.00  0.00     0.261 C 
ENDBRANCH  31  32
ENDBRANCH  30  31
ENDBRANCH  29  30
ENDBRANCH  26  29
ENDBRANCH  24  25
ENDBRANCH   1  24
TORSDOF 11
ENDMDL
MODEL 3
REMARK VINA RESULT:      -8.0      3.293      6.897
REMARK  11 active torsions:
REMARK  status: ('A' for Active; 'I' for Inactive)
REMARK    1  A    between atoms: O_2  and  C_3 
REMARK    2  A    between atoms: C_6  and  C_7 
REMARK    3  A    between atoms: C_7  and  S_8 
REMARK    4  A    between atoms: C_7  and  C_22 
REMARK    5  A    between atoms: S_8  and  C_9 
REMARK    6  A    between atoms: C_12  and  C_13 
REMARK    7  A    between atoms: C_22  and  C_23 
REMARK       I    between atoms: C_23  and  N_24 
REMARK    8  A    between atoms: N_24  and  C_25 
REMARK    9  A    between atoms: C_25  and  C_26 
REMARK   10  A    between atoms: C_26  and  C_27 
REMARK   11  A    between atoms: C_27  and  N_28 
ROOT
HETATM    1  C   UNL     1      41.838 -15.189   3.195  1.00  0.00     0.097 C 
ENDROOT
BRANCH   1   2
HETATM    2  C   UNL     1      42.538 -16.492   3.561  1.00  0.00    -0.043 A 
HETATM    3  C   UNL     1      42.908 -17.436   2.589  1.00  0.00     0.011 A 
HETATM    4  C   UNL     1      43.617 -18.585   2.949  1.00  0.00     0.037 A 
HETATM    5  C   UNL     1      43.999 -18.789   4.272  1.00  0.00     0.068 A 
HETATM    6  C   UNL     1      43.614 -17.880   5.253  1.00  0.00     0.037 A 
HETATM    7  C   UNL     1      42.890 -16.738   4.900  1.00  0.00     0.011 A 
BRANCH   5   8
HETATM    8  O   UNL     1      44.711 -19.927   4.530  1.00  0.00    -0.356 OA
HETATM    9  C   UNL     1      43.976 -20.896   5.276  1.00  0.00     0.210 C 
ENDBRANCH   5   8
ENDBRANCH   1   2
BRANCH   1  10
HETATM   10  S   UNL     1      42.933 -14.088   2.199  1.00  0.00    -0.080 SA
BRANCH  10  11
HETATM   11  C   UNL     1      43.154 -12.706   3.189  1.00  0.00     0.190 A 
HETATM   12  N   UNL     1      42.970 -11.454   2.859  1.00  0.00    -0.122 NA
HETATM   13  N   UNL     1      43.303 -10.690   3.947  1.00  0.00    -0.129 NA
HETATM   14  C   UNL     1      43.733 -11.490   4.913  1.00  0.00     0.162 A 
HETATM   15  N   UNL     1      43.653 -12.784   4.453  1.00  0.00    -0.317 N 
HETATM   16  H   UNL     1      43.892 -13.628   4.951  1.00  0.00     0.169 HD
BRANCH  14  17
HETATM   17  C   UNL     1      44.201 -11.076   6.236  1.00  0.00     0.012 A 
HETATM   18  C   UNL     1      43.273 -10.578   7.166  1.00  0.00     0.017 A 
HETATM   19  C   UNL     1      43.677 -10.160   8.437  1.00  0.00     0.025 A 
HETATM   20  C   UNL     1      45.020 -10.229   8.791  1.00  0.00     0.034 A 
HETATM   21 CL   UNL     1      45.525  -9.706  10.349  1.00  0.00    -0.084 Cl
HETATM   22  C   UNL     1      45.959 -10.716   7.884  1.00  0.00     0.025 A 
HETATM   23  C   UNL     1      45.552 -11.140   6.613  1.00  0.00     0.017 A 
ENDBRANCH  14  17
ENDBRANCH  10  11
ENDBRANCH   1  10
BRANCH   1  24
HETATM   24  C   UNL     1      41.153 -14.597   4.432  1.00  0.00     0.123 C 
BRANCH  24  25
HETATM   25  C   UNL     1      40.151 -13.520   4.092  1.00  0.00     0.219 C 
HETATM   26  N   UNL     1      39.401 -13.769   2.970  1.00  0.00    -0.361 N 
HETATM   27  H   UNL     1      39.363 -14.734   2.631  1.00  0.00     0.162 HD
HETATM   28  O   UNL     1      40.019 -12.486   4.747  1.00  0.00    -0.274 OA
BRANCH  26  29
HETATM   29  C   UNL     1      38.502 -12.811   2.373  1.00  0.00     0.124 C 
BRANCH  29  30
HETATM   30  C   UNL     1      39.153 -11.904   1.332  1.00  0.00     0.047 C 
BRANCH  30  31
HETATM   31  C   UNL     1      38.398 -11.692   0.019  1.00  0.00     0.236 C 
BRANCH  31  32
HETATM   32  N   UNL     1      38.589 -12.794  -0.986  1.00  0.00    -0.067 N 
HETATM   33  H   UNL     1      38.539 -13.687  -0.448  1.00  0.00     0.280 HD
HETATM   34  C   UNL     1      37.574 -12.841  -2.112  1.00  0.00     0.261 C 
HETATM   35  C   UNL     1      37.875 -14.032  -3.029  1.00  0.00     0.195 C 
HETATM   36  O   UNL     1      39.205 -13.952  -3.554  1.00  0.00    -0.388 OA
HETATM   37  C   UNL     1      40.181 -13.980  -2.506  1.00  0.00     0.195 C 
HETATM   38  C   UNL     1      40.003 -12.787  -1.562  1.00  0.00     0.261 C 
ENDBRANCH  31  32
ENDBRANCH  30  31
ENDBRANCH  29  30
ENDBRANCH  26  29
ENDBRANCH  24  25
ENDBRANCH   1  24
TORSDOF 11
ENDMDL
MODEL 4
REMARK VINA RESULT:      -7.8      3.757      7.732
REMARK  11 active torsions:
REMARK  status: ('A' for Active; 'I' for Inactive)
REMARK    1  A    between atoms: O_2  and  C_3 
REMARK    2  A    between atoms: C_6  and  C_7 
REMARK    3  A    between atoms: C_7  and  S_8 
REMARK    4  A    between atoms: C_7  and  C_22 
REMARK    5  A    between atoms: S_8  and  C_9 
REMARK    6  A    between atoms: C_12  and  C_13 
REMARK    7  A    between atoms: C_22  and  C_23 
REMARK       I    between atoms: C_23  and  N_24 
REMARK    8  A    between atoms: N_24  and  C_25 
REMARK    9  A    between atoms: C_25  and  C_26 
REMARK   10  A    between atoms: C_26  and  C_27 
REMARK   11  A    between atoms: C_27  and  N_28 
ROOT
HETATM    1  C   UNL     1      42.821 -14.891   5.101  1.00  0.00     0.097 C 
ENDROOT
BRANCH   1   2
HETATM    2  C   UNL     1      43.167 -16.176   4.359  1.00  0.00    -0.043 A 
HETATM    3  C   UNL     1      43.691 -17.299   5.019  1.00  0.00     0.011 A 
HETATM    4  C   UNL     1      43.925 -18.487   4.323  1.00  0.00     0.037 A 
HETATM    5  C   UNL     1      43.605 -18.584   2.971  1.00  0.00     0.068 A 
HETATM    6  C   UNL     1      43.114 -17.472   2.293  1.00  0.00     0.037 A 
HETATM    7  C   UNL     1      42.895 -16.276   2.983  1.00  0.00     0.011 A 
BRANCH   5   8
HETATM    8  O   UNL     1      43.844 -19.791   2.376  1.00  0.00    -0.356 OA
HETATM    9  C   UNL     1      43.912 -20.874   3.303  1.00  0.00     0.210 C 
ENDBRANCH   5   8
ENDBRANCH   1   2
BRANCH   1  10
HETATM   10  S   UNL     1      43.787 -14.731   6.665  1.00  0.00    -0.080 SA
BRANCH  10  11
HETATM   11  C   UNL     1      44.028 -13.042   6.840  1.00  0.00     0.190 A 
HETATM   12  N   UNL     1      44.778 -12.266   6.101  1.00  0.00    -0.122 NA
HETATM   13  N   UNL     1      44.702 -11.003   6.626  1.00  0.00    -0.129 NA
HETATM   14  C   UNL     1      43.942 -11.038   7.711  1.00  0.00     0.162 A 
HETATM   15  N   UNL     1      43.501 -12.331   7.873  1.00  0.00    -0.317 N 
HETATM   16  H   UNL     1      42.894 -12.686   8.596  1.00  0.00     0.169 HD
BRANCH  14  17
HETATM   17  C   UNL     1      43.617  -9.905   8.578  1.00  0.00     0.012 A 
HETATM   18  C   UNL     1      43.852 -10.009   9.959  1.00  0.00     0.017 A 
HETATM   19  C   UNL     1      43.546  -8.957  10.827  1.00  0.00     0.025 A 
HETATM   20  C   UNL     1      42.992  -7.786  10.321  1.00  0.00     0.034 A 
HETATM   21 CL   UNL     1      42.603  -6.492  11.384  1.00  0.00    -0.084 Cl
HETATM   22  C   UNL     1      42.747  -7.660   8.955  1.00  0.00     0.025 A 
HETATM   23  C   UNL     1      43.058  -8.713   8.086  1.00  0.00     0.017 A 
ENDBRANCH  14  17
ENDBRANCH  10  11
ENDBRANCH   1  10
BRANCH   1  24
HETATM   24  C   UNL     1      41.299 -14.721   5.173  1.00  0.00     0.123 C 
BRANCH  24  25
HETATM   25  C   UNL     1      40.822 -13.426   4.559  1.00  0.00     0.219 C 
HETATM   26  N   UNL     1      39.744 -13.552   3.720  1.00  0.00    -0.361 N 
HETATM   27  H   UNL     1      39.187 -14.408   3.791  1.00  0.00     0.162 HD
HETATM   28  O   UNL     1      41.360 -12.338   4.770  1.00  0.00    -0.274 OA
BRANCH  26  29
HETATM   29  C   UNL     1      39.226 -12.478   2.907  1.00  0.00     0.124 C 
BRANCH  29  30
HETATM   30  C   UNL     1      39.364 -12.707   1.404  1.00  0.00     0.047 C 
BRANCH  30  31
HETATM   31  C   UNL     1      40.781 -12.844   0.845  1.00  0.00     0.236 C 
BRANCH  31  32
HETATM   32  N   UNL     1      40.835 -13.175  -0.621  1.00  0.00    -0.067 N 
HETATM   33  H   UNL     1      41.715 -13.718  -0.762  1.00  0.00     0.280 HD
HETATM   34  C   UNL     1      39.669 -13.984  -1.157  1.00  0.00     0.261 C 
HETATM   35  C   UNL     1      39.883 -14.274  -2.647  1.00  0.00     0.195 C 
HETATM   36  O   UNL     1      40.035 -13.059  -3.389  1.00  0.00    -0.388 OA
HETATM   37  C   UNL     1      41.176 -12.316  -2.944  1.00  0.00     0.195 C 
HETATM   38  C   UNL     1      41.031 -11.923  -1.470  1.00  0.00     0.261 C 
ENDBRANCH  31  32
ENDBRANCH  30  31
ENDBRANCH  29  30
ENDBRANCH  26  29
ENDBRANCH  24  25
ENDBRANCH   1  24
TORSDOF 11
ENDMDL
MODEL 5
REMARK VINA RESULT:      -7.7      3.342      7.323
REMARK  11 active torsions:
REMARK  status: ('A' for Active; 'I' for Inactive)
REMARK    1  A    between atoms: O_2  and  C_3 
REMARK    2  A    between atoms: C_6  and  C_7 
REMARK    3  A    between atoms: C_7  and  S_8 
REMARK    4  A    between atoms: C_7  and  C_22 
REMARK    5  A    between atoms: S_8  and  C_9 
REMARK    6  A    between atoms: C_12  and  C_13 
REMARK    7  A    between atoms: C_22  and  C_23 
REMARK       I    between atoms: C_23  and  N_24 
REMARK    8  A    between atoms: N_24  and  C_25 
REMARK    9  A    between atoms: C_25  and  C_26 
REMARK   10  A    between atoms: C_26  and  C_27 
REMARK   11  A    between atoms: C_27  and  N_28 
ROOT
HETATM    1  C   UNL     1      42.431 -15.434   2.543  1.00  0.00     0.097 C 
ENDROOT
BRANCH   1   2
HETATM    2  C   UNL     1      43.102 -16.682   3.105  1.00  0.00    -0.043 A 
HETATM    3  C   UNL     1      43.571 -16.743   4.428  1.00  0.00     0.011 A 
HETATM    4  C   UNL     1      44.111 -17.927   4.935  1.00  0.00     0.037 A 
HETATM    5  C   UNL     1      44.157 -19.073   4.146  1.00  0.00     0.068 A 
HETATM    6  C   UNL     1      43.726 -19.023   2.824  1.00  0.00     0.037 A 
HETATM    7  C   UNL     1      43.201 -17.835   2.307  1.00  0.00     0.011 A 
BRANCH   5   8
HETATM    8  O   UNL     1      44.679 -20.192   4.731  1.00  0.00    -0.356 OA
HETATM    9  C   UNL     1      43.845 -20.736   5.754  1.00  0.00     0.210 C 
ENDBRANCH   5   8
ENDBRANCH   1   2
BRANCH   1  10
HETATM   10  S   UNL     1      41.322 -14.642   3.787  1.00  0.00    -0.080 SA
BRANCH  10  11
HETATM   11  C   UNL     1      42.174 -13.236   4.276  1.00  0.00     0.190 A 
HETATM   12  N   UNL     1      42.639 -12.283   3.511  1.00  0.00    -0.122 NA
HETATM   13  N   UNL     1      43.280 -11.384   4.322  1.00  0.00    -0.129 NA
HETATM   14  C   UNL     1      43.239 -11.830   5.569  1.00  0.00     0.162 A 
HETATM   15  N   UNL     1      42.542 -13.016   5.567  1.00  0.00    -0.317 N 
HETATM   16  H   UNL     1      42.323 -13.600   6.360  1.00  0.00     0.169 HD
BRANCH  14  17
HETATM   17  C   UNL     1      43.821 -11.178   6.742  1.00  0.00     0.012 A 
HETATM   18  C   UNL     1      45.197 -11.313   6.990  1.00  0.00     0.017 A 
HETATM   19  C   UNL     1      45.794 -10.718   8.105  1.00  0.00     0.025 A 
HETATM   20  C   UNL     1      45.016  -9.983   8.993  1.00  0.00     0.034 A 
HETATM   21 CL   UNL     1      45.741  -9.257  10.371  1.00  0.00    -0.084 Cl
HETATM   22  C   UNL     1      43.647  -9.838   8.770  1.00  0.00     0.025 A 
HETATM   23  C   UNL     1      43.052 -10.431   7.649  1.00  0.00     0.017 A 
ENDBRANCH  14  17
ENDBRANCH  10  11
ENDBRANCH   1  10
BRANCH   1  24
HETATM   24  C   UNL     1      41.860 -15.728   1.151  1.00  0.00     0.123 C 
BRANCH  24  25
HETATM   25  C   UNL     1      40.933 -14.644   0.654  1.00  0.00     0.219 C 
HETATM   26  N   UNL     1      41.518 -13.411   0.513  1.00  0.00    -0.361 N 
HETATM   27  H   UNL     1      42.540 -13.374   0.472  1.00  0.00     0.162 HD
HETATM   28  O   UNL     1      39.741 -14.832   0.409  1.00  0.00    -0.274 OA
BRANCH  26  29
HETATM   29  C   UNL     1      40.788 -12.204   0.208  1.00  0.00     0.124 C 
BRANCH  29  30
HETATM   30  C   UNL     1      39.929 -11.682   1.356  1.00  0.00     0.047 C 
BRANCH  30  31
HETATM   31  C   UNL     1      40.118 -10.220   1.762  1.00  0.00     0.236 C 
BRANCH  31  32
HETATM   32  N   UNL     1      40.486 -10.024   3.207  1.00  0.00    -0.067 N 
HETATM   33  H   UNL     1      41.332 -10.614   3.372  1.00  0.00     0.280 HD
HETATM   34  C   UNL     1      40.794  -8.598   3.621  1.00  0.00     0.261 C 
HETATM   35  C   UNL     1      41.186  -8.564   5.103  1.00  0.00     0.195 C 
HETATM   36  O   UNL     1      40.147  -9.112   5.922  1.00  0.00    -0.388 OA
HETATM   37  C   UNL     1      39.894 -10.483   5.593  1.00  0.00     0.195 C 
HETATM   38  C   UNL     1      39.433 -10.619   4.137  1.00  0.00     0.261 C 
ENDBRANCH  31  32
ENDBRANCH  30  31
ENDBRANCH  29  30
ENDBRANCH  26  29
ENDBRANCH  24  25
ENDBRANCH   1  24
TORSDOF 11
ENDMDL
MODEL 6
REMARK VINA RESULT:      -7.6      3.394      7.043
REMARK  11 active torsions:
REMARK  status: ('A' for Active; 'I' for Inactive)
REMARK    1  A    between atoms: O_2  and  C_3 
REMARK    2  A    between atoms: C_6  and  C_7 
REMARK    3  A    between atoms: C_7  and  S_8 
REMARK    4  A    between atoms: C_7  and  C_22 
REMARK    5  A    between atoms: S_8  and  C_9 
REMARK    6  A    between atoms: C_12  and  C_13 
REMARK    7  A    between atoms: C_22  and  C_23 
REMARK       I    between atoms: C_23  and  N_24 
REMARK    8  A    between atoms: N_24  and  C_25 
REMARK    9  A    between atoms: C_25  and  C_26 
REMARK   10  A    between atoms: C_26  and  C_27 
REMARK   11  A    between atoms: C_27  and  N_28 
ROOT
HETATM    1  C   UNL     1      41.129 -14.871   2.190  1.00  0.00     0.097 C 
ENDROOT
BRANCH   1   2
HETATM    2  C   UNL     1      42.028 -15.921   2.831  1.00  0.00    -0.043 A 
HETATM    3  C   UNL     1      42.068 -16.120   4.221  1.00  0.00     0.011 A 
HETATM    4  C   UNL     1      42.843 -17.143   4.770  1.00  0.00     0.037 A 
HETATM    5  C   UNL     1      43.559 -18.004   3.942  1.00  0.00     0.068 A 
HETATM    6  C   UNL     1      43.557 -17.803   2.565  1.00  0.00     0.037 A 
HETATM    7  C   UNL     1      42.795 -16.770   2.013  1.00  0.00     0.011 A 
BRANCH   5   8
HETATM    8  O   UNL     1      44.271 -18.991   4.564  1.00  0.00    -0.356 OA
HETATM    9  C   UNL     1      43.982 -20.296   4.064  1.00  0.00     0.210 C 
ENDBRANCH   5   8
ENDBRANCH   1   2
BRANCH   1  10
HETATM   10  S   UNL     1      40.288 -13.832   3.462  1.00  0.00    -0.080 SA
BRANCH  10  11
HETATM   11  C   UNL     1      41.487 -12.706   3.946  1.00  0.00     0.190 A 
HETATM   12  N   UNL     1      42.213 -11.938   3.176  1.00  0.00    -0.122 NA
HETATM   13  N   UNL     1      43.063 -11.232   3.986  1.00  0.00    -0.129 NA
HETATM   14  C   UNL     1      42.875 -11.618   5.240  1.00  0.00     0.162 A 
HETATM   15  N   UNL     1      41.875 -12.564   5.242  1.00  0.00    -0.317 N 
HETATM   16  H   UNL     1      41.487 -13.044   6.040  1.00  0.00     0.169 HD
BRANCH  14  17
HETATM   17  C   UNL     1      43.592 -11.124   6.415  1.00  0.00     0.012 A 
HETATM   18  C   UNL     1      42.915 -10.310   7.339  1.00  0.00     0.017 A 
HETATM   19  C   UNL     1      43.563  -9.804   8.470  1.00  0.00     0.025 A 
HETATM   20  C   UNL     1      44.904 -10.104   8.687  1.00  0.00     0.034 A 
HETATM   21 CL   UNL     1      45.710  -9.477  10.069  1.00  0.00    -0.084 Cl
HETATM   22  C   UNL     1      45.597 -10.907   7.782  1.00  0.00     0.025 A 
HETATM   23  C   UNL     1      44.945 -11.416   6.653  1.00  0.00     0.017 A 
ENDBRANCH  14  17
ENDBRANCH  10  11
ENDBRANCH   1  10
BRANCH   1  24
HETATM   24  C   UNL     1      40.267 -15.514   1.098  1.00  0.00     0.123 C 
BRANCH  24  25
HETATM   25  C   UNL     1      40.062 -14.614  -0.097  1.00  0.00     0.219 C 
HETATM   26  N   UNL     1      39.123 -15.058  -0.994  1.00  0.00    -0.361 N 
HETATM   27  H   UNL     1      38.458 -15.766  -0.671  1.00  0.00     0.162 HD
HETATM   28  O   UNL     1      40.692 -13.571  -0.276  1.00  0.00    -0.274 OA
BRANCH  26  29
HETATM   29  C   UNL     1      38.881 -14.443  -2.277  1.00  0.00     0.124 C 
BRANCH  29  30
HETATM   30  C   UNL     1      37.796 -13.370  -2.264  1.00  0.00     0.047 C 
BRANCH  30  31
HETATM   31  C   UNL     1      38.254 -11.912  -2.322  1.00  0.00     0.236 C 
BRANCH  31  32
HETATM   32  N   UNL     1      38.825 -11.394  -1.030  1.00  0.00    -0.067 N 
HETATM   33  H   UNL     1      39.587 -12.055  -0.766  1.00  0.00     0.280 HD
HETATM   34  C   UNL     1      39.390  -9.987  -1.078  1.00  0.00     0.261 C 
HETATM   35  C   UNL     1      39.965  -9.615   0.295  1.00  0.00     0.195 C 
HETATM   36  O   UNL     1      38.966  -9.722   1.315  1.00  0.00    -0.388 OA
HETATM   37  C   UNL     1      38.473 -11.062   1.423  1.00  0.00     0.195 C 
HETATM   38  C   UNL     1      37.819 -11.511   0.112  1.00  0.00     0.261 C 
ENDBRANCH  31  32
ENDBRANCH  30  31
ENDBRANCH  29  30
ENDBRANCH  26  29
ENDBRANCH  24  25
ENDBRANCH   1  24
TORSDOF 11
ENDMDL
MODEL 7
REMARK VINA RESULT:      -7.6      2.176      7.071
REMARK  11 active torsions:
REMARK  status: ('A' for Active; 'I' for Inactive)
REMARK    1  A    between atoms: O_2  and  C_3 
REMARK    2  A    between atoms: C_6  and  C_7 
REMARK    3  A    between atoms: C_7  and  S_8 
REMARK    4  A    between atoms: C_7  and  C_22 
REMARK    5  A    between atoms: S_8  and  C_9 
REMARK    6  A    between atoms: C_12  and  C_13 
REMARK    7  A    between atoms: C_22  and  C_23 
REMARK       I    between atoms: C_23  and  N_24 
REMARK    8  A    between atoms: N_24  and  C_25 
REMARK    9  A    between atoms: C_25  and  C_26 
REMARK   10  A    between atoms: C_26  and  C_27 
REMARK   11  A    between atoms: C_27  and  N_28 
ROOT
HETATM    1  C   UNL     1      40.721 -11.393   4.497  1.00  0.00     0.097 C 
ENDROOT
BRANCH   1   2
HETATM    2  C   UNL     1      40.626 -11.883   3.057  1.00  0.00    -0.043 A 
HETATM    3  C   UNL     1      39.800 -12.958   2.690  1.00  0.00     0.011 A 
HETATM    4  C   UNL     1      39.676 -13.332   1.350  1.00  0.00     0.037 A 
HETATM    5  C   UNL     1      40.343 -12.620   0.357  1.00  0.00     0.068 A 
HETATM    6  C   UNL     1      41.191 -11.573   0.705  1.00  0.00     0.037 A 
HETATM    7  C   UNL     1      41.331 -11.206   2.046  1.00  0.00     0.011 A 
BRANCH   5   8
HETATM    8  O   UNL     1      40.146 -13.041  -0.929  1.00  0.00    -0.356 OA
HETATM    9  C   UNL     1      39.715 -14.399  -1.019  1.00  0.00     0.210 C 
ENDBRANCH   5   8
ENDBRANCH   1   2
BRANCH   1  10
HETATM   10  S   UNL     1      42.428 -11.588   5.169  1.00  0.00    -0.080 SA
BRANCH  10  11
HETATM   11  C   UNL     1      42.602 -13.279   5.394  1.00  0.00     0.190 A 
HETATM   12  N   UNL     1      42.612 -13.933   6.526  1.00  0.00    -0.122 NA
HETATM   13  N   UNL     1      42.812 -15.257   6.233  1.00  0.00    -0.129 NA
HETATM   14  C   UNL     1      42.971 -15.383   4.923  1.00  0.00     0.162 A 
HETATM   15  N   UNL     1      42.846 -14.133   4.363  1.00  0.00    -0.317 N 
HETATM   16  H   UNL     1      42.900 -13.891   3.385  1.00  0.00     0.169 HD
BRANCH  14  17
HETATM   17  C   UNL     1      43.224 -16.628   4.198  1.00  0.00     0.012 A 
HETATM   18  C   UNL     1      42.562 -16.859   2.981  1.00  0.00     0.017 A 
HETATM   19  C   UNL     1      42.763 -18.039   2.260  1.00  0.00     0.025 A 
HETATM   20  C   UNL     1      43.629 -19.009   2.753  1.00  0.00     0.034 A 
HETATM   21 CL   UNL     1      43.874 -20.467   1.877  1.00  0.00    -0.084 Cl
HETATM   22  C   UNL     1      44.296 -18.804   3.960  1.00  0.00     0.025 A 
HETATM   23  C   UNL     1      44.096 -17.619   4.679  1.00  0.00     0.017 A 
ENDBRANCH  14  17
ENDBRANCH  10  11
ENDBRANCH   1  10
BRANCH   1  24
HETATM   24  C   UNL     1      39.554 -11.953   5.319  1.00  0.00     0.123 C 
BRANCH  24  25
HETATM   25  C   UNL     1      38.995 -10.953   6.304  1.00  0.00     0.219 C 
HETATM   26  N   UNL     1      39.590 -10.974   7.540  1.00  0.00    -0.361 N 
HETATM   27  H   UNL     1      40.505 -11.425   7.617  1.00  0.00     0.162 HD
HETATM   28  O   UNL     1      38.067 -10.188   6.040  1.00  0.00    -0.274 OA
BRANCH  26  29
HETATM   29  C   UNL     1      39.113 -10.222   8.676  1.00  0.00     0.124 C 
BRANCH  29  30
HETATM   30  C   UNL     1      40.126  -9.232   9.243  1.00  0.00     0.047 C 
BRANCH  30  31
HETATM   31  C   UNL     1      41.437  -9.057   8.476  1.00  0.00     0.236 C 
BRANCH  31  32
HETATM   32  N   UNL     1      42.596  -9.822   9.054  1.00  0.00    -0.067 N 
HETATM   33  H   UNL     1      42.384 -10.831   8.891  1.00  0.00     0.280 HD
HETATM   34  C   UNL     1      43.956  -9.504   8.462  1.00  0.00     0.261 C 
HETATM   35  C   UNL     1      45.024 -10.385   9.121  1.00  0.00     0.195 C 
HETATM   36  O   UNL     1      45.038 -10.199  10.541  1.00  0.00    -0.388 OA
HETATM   37  C   UNL     1      43.782 -10.565  11.126  1.00  0.00     0.195 C 
HETATM   38  C   UNL     1      42.648  -9.694  10.573  1.00  0.00     0.261 C 
ENDBRANCH  31  32
ENDBRANCH  30  31
ENDBRANCH  29  30
ENDBRANCH  26  29
ENDBRANCH  24  25
ENDBRANCH   1  24
TORSDOF 11
ENDMDL
MODEL 8
REMARK VINA RESULT:      -7.5      3.485      7.914
REMARK  11 active torsions:
REMARK  status: ('A' for Active; 'I' for Inactive)
REMARK    1  A    between atoms: O_2  and  C_3 
REMARK    2  A    between atoms: C_6  and  C_7 
REMARK    3  A    between atoms: C_7  and  S_8 
REMARK    4  A    between atoms: C_7  and  C_22 
REMARK    5  A    between atoms: S_8  and  C_9 
REMARK    6  A    between atoms: C_12  and  C_13 
REMARK    7  A    between atoms: C_22  and  C_23 
REMARK       I    between atoms: C_23  and  N_24 
REMARK    8  A    between atoms: N_24  and  C_25 
REMARK    9  A    between atoms: C_25  and  C_26 
REMARK   10  A    between atoms: C_26  and  C_27 
REMARK   11  A    between atoms: C_27  and  N_28 
ROOT
HETATM    1  C   UNL     1      42.032 -15.288   2.914  1.00  0.00     0.097 C 
ENDROOT
BRANCH   1   2
HETATM    2  C   UNL     1      42.783 -16.588   3.180  1.00  0.00    -0.043 A 
HETATM    3  C   UNL     1      43.579 -16.766   4.323  1.00  0.00     0.011 A 
HETATM    4  C   UNL     1      44.191 -17.996   4.577  1.00  0.00     0.037 A 
HETATM    5  C   UNL     1      43.988 -19.073   3.718  1.00  0.00     0.068 A 
HETATM    6  C   UNL     1      43.227 -18.906   2.564  1.00  0.00     0.037 A 
HETATM    7  C   UNL     1      42.627 -17.672   2.298  1.00  0.00     0.011 A 
BRANCH   5   8
HETATM    8  O   UNL     1      44.605 -20.244   4.056  1.00  0.00    -0.356 OA
HETATM    9  C   UNL     1      44.108 -20.815   5.266  1.00  0.00     0.210 C 
ENDBRANCH   5   8
ENDBRANCH   1   2
BRANCH   1  10
HETATM   10  S   UNL     1      40.252 -15.598   2.539  1.00  0.00    -0.080 SA
BRANCH  10  11
HETATM   11  C   UNL     1      39.667 -14.081   1.994  1.00  0.00     0.190 A 
HETATM   12  N   UNL     1      39.096 -13.146   2.708  1.00  0.00    -0.122 NA
HETATM   13  N   UNL     1      38.757 -12.129   1.856  1.00  0.00    -0.129 NA
HETATM   14  C   UNL     1      39.084 -12.482   0.621  1.00  0.00     0.162 A 
HETATM   15  N   UNL     1      39.664 -13.728   0.680  1.00  0.00    -0.317 N 
HETATM   16  H   UNL     1      40.034 -14.270  -0.087  1.00  0.00     0.169 HD
BRANCH  14  17
HETATM   17  C   UNL     1      38.877 -11.688  -0.591  1.00  0.00     0.012 A 
HETATM   18  C   UNL     1      37.694 -11.858  -1.328  1.00  0.00     0.017 A 
HETATM   19  C   UNL     1      37.459 -11.131  -2.499  1.00  0.00     0.025 A 
HETATM   20  C   UNL     1      38.413 -10.224  -2.949  1.00  0.00     0.034 A 
HETATM   21 CL   UNL     1      38.136  -9.334  -4.393  1.00  0.00    -0.084 Cl
HETATM   22  C   UNL     1      39.596 -10.041  -2.236  1.00  0.00     0.025 A 
HETATM   23  C   UNL     1      39.827 -10.767  -1.061  1.00  0.00     0.017 A 
ENDBRANCH  14  17
ENDBRANCH  10  11
ENDBRANCH   1  10
BRANCH   1  24
HETATM   24  C   UNL     1      42.832 -14.411   1.944  1.00  0.00     0.123 C 
BRANCH  24  25
HETATM   25  C   UNL     1      42.938 -12.975   2.400  1.00  0.00     0.219 C 
HETATM   26  N   UNL     1      43.845 -12.759   3.406  1.00  0.00    -0.361 N 
HETATM   27  H   UNL     1      44.555 -13.479   3.566  1.00  0.00     0.162 HD
HETATM   28  O   UNL     1      42.257 -12.063   1.929  1.00  0.00    -0.274 OA
BRANCH  26  29
HETATM   29  C   UNL     1      43.995 -11.502   4.099  1.00  0.00     0.124 C 
BRANCH  29  30
HETATM   30  C   UNL     1      44.159 -11.635   5.610  1.00  0.00     0.047 C 
BRANCH  30  31
HETATM   31  C   UNL     1      42.907 -11.454   6.469  1.00  0.00     0.236 C 
BRANCH  31  32
HETATM   32  N   UNL     1      42.177 -12.734   6.772  1.00  0.00    -0.067 N 
HETATM   33  H   UNL     1      41.797 -12.627   7.738  1.00  0.00     0.280 HD
HETATM   34  C   UNL     1      41.039 -13.081   5.832  1.00  0.00     0.261 C 
HETATM   35  C   UNL     1      40.372 -14.384   6.289  1.00  0.00     0.195 C 
HETATM   36  O   UNL     1      41.322 -15.454   6.346  1.00  0.00    -0.388 OA
HETATM   37  C   UNL     1      42.366 -15.174   7.284  1.00  0.00     0.195 C 
HETATM   38  C   UNL     1      43.139 -13.913   6.881  1.00  0.00     0.261 C 
ENDBRANCH  31  32
ENDBRANCH  30  31
ENDBRANCH  29  30
ENDBRANCH  26  29
ENDBRANCH  24  25
ENDBRANCH   1  24
TORSDOF 11
ENDMDL
MODEL 9
REMARK VINA RESULT:      -7.5      3.869      7.747
REMARK  11 active torsions:
REMARK  status: ('A' for Active; 'I' for Inactive)
REMARK    1  A    between atoms: O_2  and  C_3 
REMARK    2  A    between atoms: C_6  and  C_7 
REMARK    3  A    between atoms: C_7  and  S_8 
REMARK    4  A    between atoms: C_7  and  C_22 
REMARK    5  A    between atoms: S_8  and  C_9 
REMARK    6  A    between atoms: C_12  and  C_13 
REMARK    7  A    between atoms: C_22  and  C_23 
REMARK       I    between atoms: C_23  and  N_24 
REMARK    8  A    between atoms: N_24  and  C_25 
REMARK    9  A    between atoms: C_25  and  C_26 
REMARK   10  A    between atoms: C_26  and  C_27 
REMARK   11  A    between atoms: C_27  and  N_28 
ROOT
HETATM    1  C   UNL     1      42.855 -13.713   5.593  1.00  0.00     0.097 C 
ENDROOT
BRANCH   1   2
HETATM    2  C   UNL     1      43.204 -15.097   5.059  1.00  0.00    -0.043 A 
HETATM    3  C   UNL     1      43.819 -16.072   5.862  1.00  0.00     0.011 A 
HETATM    4  C   UNL     1      44.055 -17.356   5.365  1.00  0.00     0.037 A 
HETATM    5  C   UNL     1      43.648 -17.696   4.077  1.00  0.00     0.068 A 
HETATM    6  C   UNL     1      43.066 -16.734   3.256  1.00  0.00     0.037 A 
HETATM    7  C   UNL     1      42.844 -15.444   3.745  1.00  0.00     0.011 A 
BRANCH   5   8
HETATM    8  O   UNL     1      43.897 -18.981   3.681  1.00  0.00    -0.356 OA
HETATM    9  C   UNL     1      43.452 -19.259   2.354  1.00  0.00     0.210 C 
ENDBRANCH   5   8
ENDBRANCH   1   2
BRANCH   1  10
HETATM   10  S   UNL     1      44.291 -12.938   6.456  1.00  0.00    -0.080 SA
BRANCH  10  11
HETATM   11  C   UNL     1      43.638 -11.523   7.170  1.00  0.00     0.190 A 
HETATM   12  N   UNL     1      43.016 -10.543   6.568  1.00  0.00    -0.122 NA
HETATM   13  N   UNL     1      42.705  -9.608   7.520  1.00  0.00    -0.129 NA
HETATM   14  C   UNL     1      43.187 -10.012   8.687  1.00  0.00     0.162 A 
HETATM   15  N   UNL     1      43.794 -11.232   8.491  1.00  0.00    -0.317 N 
HETATM   16  H   UNL     1      44.245 -11.811   9.182  1.00  0.00     0.169 HD
BRANCH  14  17
HETATM   17  C   UNL     1      43.088  -9.298   9.959  1.00  0.00     0.012 A 
HETATM   18  C   UNL     1      42.918  -7.903   9.952  1.00  0.00     0.017 A 
HETATM   19  C   UNL     1      42.831  -7.178  11.143  1.00  0.00     0.025 A 
HETATM   20  C   UNL     1      42.919  -7.842  12.362  1.00  0.00     0.034 A 
HETATM   21 CL   UNL     1      42.822  -6.955  13.831  1.00  0.00    -0.084 Cl
HETATM   22  C   UNL     1      43.090  -9.225  12.395  1.00  0.00     0.025 A 
HETATM   23  C   UNL     1      43.173  -9.950  11.200  1.00  0.00     0.017 A 
ENDBRANCH  14  17
ENDBRANCH  10  11
ENDBRANCH   1  10
BRANCH   1  24
HETATM   24  C   UNL     1      41.511 -13.759   6.328  1.00  0.00     0.123 C 
BRANCH  24  25
HETATM   25  C   UNL     1      40.443 -12.930   5.654  1.00  0.00     0.219 C 
HETATM   26  N   UNL     1      40.903 -12.100   4.663  1.00  0.00    -0.361 N 
HETATM   27  H   UNL     1      41.827 -12.299   4.270  1.00  0.00     0.162 HD
HETATM   28  O   UNL     1      39.254 -12.971   5.970  1.00  0.00    -0.274 OA
BRANCH  26  29
HETATM   29  C   UNL     1      40.089 -11.110   4.001  1.00  0.00     0.124 C 
BRANCH  29  30
HETATM   30  C   UNL     1      40.283 -11.049   2.488  1.00  0.00     0.047 C 
BRANCH  30  31
HETATM   31  C   UNL     1      41.496 -11.777   1.908  1.00  0.00     0.236 C 
BRANCH  31  32
HETATM   32  N   UNL     1      41.152 -12.874   0.939  1.00  0.00    -0.067 N 
HETATM   33  H   UNL     1      42.062 -13.283   0.632  1.00  0.00     0.280 HD
HETATM   34  C   UNL     1      40.273 -13.983   1.485  1.00  0.00     0.261 C 
HETATM   35  C   UNL     1      40.041 -15.039   0.398  1.00  0.00     0.195 C 
HETATM   36  O   UNL     1      39.448 -14.456  -0.767  1.00  0.00    -0.388 OA
HETATM   37  C   UNL     1      40.299 -13.455  -1.338  1.00  0.00     0.195 C 
HETATM   38  C   UNL     1      40.545 -12.314  -0.345  1.00  0.00     0.261 C 
ENDBRANCH  31  32
ENDBRANCH  30  31
ENDBRANCH  29  30
ENDBRANCH  26  29
ENDBRANCH  24  25
ENDBRANCH   1  24
TORSDOF 11
ENDMDL
MODEL 10
REMARK VINA RESULT:      -7.3      3.714      8.153
REMARK  11 active torsions:
REMARK  status: ('A' for Active; 'I' for Inactive)
REMARK    1  A    between atoms: O_2  and  C_3 
REMARK    2  A    between atoms: C_6  and  C_7 
REMARK    3  A    between atoms: C_7  and  S_8 
REMARK    4  A    between atoms: C_7  and  C_22 
REMARK    5  A    between atoms: S_8  and  C_9 
REMARK    6  A    between atoms: C_12  and  C_13 
REMARK    7  A    between atoms: C_22  and  C_23 
REMARK       I    between atoms: C_23  and  N_24 
REMARK    8  A    between atoms: N_24  and  C_25 
REMARK    9  A    between atoms: C_25  and  C_26 
REMARK   10  A    between atoms: C_26  and  C_27 
REMARK   11  A    between atoms: C_27  and  N_28 
ROOT
HETATM    1  C   UNL     1      42.083 -14.709   2.437  1.00  0.00     0.097 C 
ENDROOT
BRANCH   1   2
HETATM    2  C   UNL     1      42.769 -15.960   2.970  1.00  0.00    -0.043 A 
HETATM    3  C   UNL     1      43.286 -16.027   4.275  1.00  0.00     0.011 A 
HETATM    4  C   UNL     1      43.840 -17.214   4.759  1.00  0.00     0.037 A 
HETATM    5  C   UNL     1      43.852 -18.359   3.966  1.00  0.00     0.068 A 
HETATM    6  C   UNL     1      43.373 -18.303   2.660  1.00  0.00     0.037 A 
HETATM    7  C   UNL     1      42.833 -17.112   2.166  1.00  0.00     0.011 A 
BRANCH   5   8
HETATM    8  O   UNL     1      44.391 -19.481   4.529  1.00  0.00    -0.356 OA
HETATM    9  C   UNL     1      43.953 -20.690   3.908  1.00  0.00     0.210 C 
ENDBRANCH   5   8
ENDBRANCH   1   2
BRANCH   1  10
HETATM   10  S   UNL     1      41.125 -15.063   0.900  1.00  0.00    -0.080 SA
BRANCH  10  11
HETATM   11  C   UNL     1      40.604 -13.520   0.363  1.00  0.00     0.190 A 
HETATM   12  N   UNL     1      39.493 -12.904   0.674  1.00  0.00    -0.122 NA
HETATM   13  N   UNL     1      39.477 -11.718  -0.012  1.00  0.00    -0.129 NA
HETATM   14  C   UNL     1      40.560 -11.652  -0.773  1.00  0.00     0.162 A 
HETATM   15  N   UNL     1      41.296 -12.794  -0.556  1.00  0.00    -0.317 N 
HETATM   16  H   UNL     1      42.181 -13.042  -0.972  1.00  0.00     0.169 HD
BRANCH  14  17
HETATM   17  C   UNL     1      40.918 -10.558  -1.676  1.00  0.00     0.012 A 
HETATM   18  C   UNL     1      40.496 -10.608  -3.015  1.00  0.00     0.017 A 
HETATM   19  C   UNL     1      40.826  -9.592  -3.916  1.00  0.00     0.025 A 
HETATM   20  C   UNL     1      41.590  -8.512  -3.488  1.00  0.00     0.034 A 
HETATM   21 CL   UNL     1      42.008  -7.265  -4.593  1.00  0.00    -0.084 Cl
HETATM   22  C   UNL     1      42.023  -8.442  -2.165  1.00  0.00     0.025 A 
HETATM   23  C   UNL     1      41.688  -9.459  -1.262  1.00  0.00     0.017 A 
ENDBRANCH  14  17
ENDBRANCH  10  11
ENDBRANCH   1  10
BRANCH   1  24
HETATM   24  C   UNL     1      43.071 -13.537   2.417  1.00  0.00     0.123 C 
BRANCH  24  25
HETATM   25  C   UNL     1      42.428 -12.218   2.776  1.00  0.00     0.219 C 
HETATM   26  N   UNL     1      41.197 -12.325   3.373  1.00  0.00    -0.361 N 
HETATM   27  H   UNL     1      40.945 -13.230   3.778  1.00  0.00     0.162 HD
HETATM   28  O   UNL     1      42.946 -11.126   2.541  1.00  0.00    -0.274 OA
BRANCH  26  29
HETATM   29  C   UNL     1      40.339 -11.200   3.654  1.00  0.00     0.124 C 
BRANCH  29  30
HETATM   30  C   UNL     1      40.596 -10.535   5.003  1.00  0.00     0.047 C 
BRANCH  30  31
HETATM   31  C   UNL     1      40.646 -11.444   6.232  1.00  0.00     0.236 C 
BRANCH  31  32
HETATM   32  N   UNL     1      42.036 -11.741   6.722  1.00  0.00    -0.067 N 
HETATM   33  H   UNL     1      41.997 -11.670   7.762  1.00  0.00     0.280 HD
HETATM   34  C   UNL     1      42.590 -13.102   6.344  1.00  0.00     0.261 C 
HETATM   35  C   UNL     1      43.992 -13.273   6.942  1.00  0.00     0.195 C 
HETATM   36  O   UNL     1      44.870 -12.231   6.499  1.00  0.00    -0.388 OA
HETATM   37  C   UNL     1      44.398 -10.943   6.911  1.00  0.00     0.195 C 
HETATM   38  C   UNL     1      43.019 -10.648   6.312  1.00  0.00     0.261 C 
ENDBRANCH  31  32
ENDBRANCH  30  31
ENDBRANCH  29  30
ENDBRANCH  26  29
ENDBRANCH  24  25
ENDBRANCH   1  24
TORSDOF 11
ENDMDL
