MODEL 1
REMARK VINA RESULT:      -9.0      0.000      0.000
REMARK  8 active torsions:
REMARK  status: ('A' for Active; 'I' for Inactive)
REMARK    1  A    between atoms: C_2  and  C_3 
REMARK    2  A    between atoms: C_6  and  C_7 
REMARK    3  A    between atoms: C_11  and  C_12 
REMARK    4  A    between atoms: C_12  and  C_13 
REMARK    5  A    between atoms: C_13  and  C_14 
REMARK    6  A    between atoms: C_14  and  O_15 
REMARK    7  A    between atoms: C_20  and  C_21 
REMARK       I    between atoms: C_21  and  N_22 
REMARK    8  A    between atoms: N_22  and  C_23 
ROOT
HETATM    1  C   UNL     1      41.784 -13.623   2.661  1.00  0.00     0.202 C 
HETATM    2  N   UNL     1      40.859 -13.355   1.560  1.00  0.00    -0.083 N 
HETATM    3  C   UNL     1      39.539 -13.054   1.735  1.00  0.00     0.726 A 
HETATM    4  N   UNL     1      38.983 -12.849   0.568  1.00  0.00    -0.046 NA
HETATM    5  C   UNL     1      40.037 -12.990  -0.306  1.00  0.00     0.166 A 
HETATM    6  N   UNL     1      41.220 -13.281   0.261  1.00  0.00    -0.140 NA
HETATM    7  N   UNL     1      39.047 -12.961   2.984  1.00  0.00    -0.192 N 
HETATM    8  C   UNL     1      39.866 -12.913   4.113  1.00  0.00     0.037 C 
HETATM    9  C   UNL     1      39.171 -12.538   5.400  1.00  0.00     0.070 C 
HETATM   10  C   UNL     1      41.192 -13.197   4.009  1.00  0.00     0.062 C 
HETATM   11  H   UNL     1      38.098 -12.611   3.093  1.00  0.00     0.184 HD
ENDROOT
BRANCH  10  12
HETATM   12  C   UNL     1      42.117 -12.947   5.162  1.00  0.00     0.256 C 
HETATM   13  N   UNL     1      42.568 -11.651   5.289  1.00  0.00    -0.323 N 
HETATM   14  H   UNL     1      42.272 -10.964   4.611  1.00  0.00     0.169 HD
HETATM   15  O   UNL     1      42.375 -13.864   5.937  1.00  0.00    -0.267 OA
BRANCH  13  16
HETATM   16  C   UNL     1      43.441 -11.134   6.271  1.00  0.00     0.035 A 
HETATM   17  C   UNL     1      44.813 -11.384   6.309  1.00  0.00     0.031 A 
HETATM   18  C   UNL     1      45.610 -10.810   7.307  1.00  0.00     0.026 A 
HETATM   19  C   UNL     1      45.032  -9.998   8.278  1.00  0.00     0.034 A 
HETATM   20 CL   UNL     1      46.012  -9.298   9.507  1.00  0.00    -0.084 Cl
HETATM   21  C   UNL     1      43.664  -9.746   8.257  1.00  0.00     0.026 A 
HETATM   22  C   UNL     1      42.873 -10.304   7.249  1.00  0.00     0.031 A 
ENDBRANCH  13  16
ENDBRANCH  10  12
BRANCH   1  23
HETATM   23  C   UNL     1      42.184 -15.099   2.637  1.00  0.00    -0.028 A 
HETATM   24  C   UNL     1      43.232 -15.529   1.805  1.00  0.00     0.010 A 
HETATM   25  C   UNL     1      43.717 -16.836   1.893  1.00  0.00     0.007 A 
HETATM   26  C   UNL     1      43.154 -17.744   2.796  1.00  0.00    -0.059 A 
HETATM   27  C   UNL     1      42.068 -17.339   3.580  1.00  0.00     0.007 A 
HETATM   28  C   UNL     1      41.582 -16.035   3.496  1.00  0.00     0.010 A 
BRANCH  26  29
HETATM   29  C   UNL     1      43.729 -19.129   2.958  1.00  0.00     0.034 C 
HETATM   30  C   UNL     1      43.220 -20.073   1.877  1.00  0.00     0.010 C 
ENDBRANCH  26  29
ENDBRANCH   1  23
BRANCH   5  31
HETATM   31  C   UNL     1      39.885 -12.776  -1.767  1.00  0.00     0.085 C 
BRANCH  31  32
HETATM   32  C   UNL     1      39.948 -14.073  -2.572  1.00  0.00     0.034 C 
BRANCH  32  33
HETATM   33  C   UNL     1      38.578 -14.557  -3.032  1.00  0.00     0.164 C 
BRANCH  33  34
HETATM   34  O   UNL     1      38.397 -15.917  -2.652  1.00  0.00    -0.401 OA
HETATM   35  H   UNL     1      38.010 -15.926  -1.760  1.00  0.00     0.209 HD
ENDBRANCH  33  34
ENDBRANCH  32  33
ENDBRANCH  31  32
ENDBRANCH   5  31
TORSDOF 8
ENDMDL
MODEL 2
REMARK VINA RESULT:      -8.2      3.375      7.348
REMARK  8 active torsions:
REMARK  status: ('A' for Active; 'I' for Inactive)
REMARK    1  A    between atoms: C_2  and  C_3 
REMARK    2  A    between atoms: C_6  and  C_7 
REMARK    3  A    between atoms: C_11  and  C_12 
REMARK    4  A    between atoms: C_12  and  C_13 
REMARK    5  A    between atoms: C_13  and  C_14 
REMARK    6  A    between atoms: C_14  and  O_15 
REMARK    7  A    between atoms: C_20  and  C_21 
REMARK       I    between atoms: C_21  and  N_22 
REMARK    8  A    between atoms: N_22  and  C_23 
ROOT
HETATM    1  C   UNL     1      40.709 -13.068   4.562  1.00  0.00     0.202 C 
HETATM    2  N   UNL     1      39.970 -11.827   4.333  1.00  0.00    -0.083 N 
HETATM    3  C   UNL     1      39.611 -11.375   3.096  1.00  0.00     0.726 A 
HETATM    4  N   UNL     1      38.946 -10.254   3.220  1.00  0.00    -0.046 NA
HETATM    5  C   UNL     1      38.881 -10.083   4.585  1.00  0.00     0.166 A 
HETATM    6  N   UNL     1      39.480 -11.039   5.314  1.00  0.00    -0.140 NA
HETATM    7  N   UNL     1      39.915 -12.115   2.014  1.00  0.00    -0.192 N 
HETATM    8  C   UNL     1      40.358 -13.434   2.106  1.00  0.00     0.037 C 
HETATM    9  C   UNL     1      40.392 -14.196   0.802  1.00  0.00     0.070 C 
HETATM   10  C   UNL     1      40.728 -13.950   3.308  1.00  0.00     0.062 C 
HETATM   11  H   UNL     1      39.526 -11.824   1.119  1.00  0.00     0.184 HD
ENDROOT
BRANCH  10  12
HETATM   12  C   UNL     1      41.004 -15.417   3.456  1.00  0.00     0.256 C 
HETATM   13  N   UNL     1      42.317 -15.793   3.276  1.00  0.00    -0.323 N 
HETATM   14  H   UNL     1      42.999 -15.085   3.048  1.00  0.00     0.169 HD
HETATM   15  O   UNL     1      40.088 -16.172   3.768  1.00  0.00    -0.267 OA
BRANCH  13  16
HETATM   16  C   UNL     1      42.859 -17.094   3.354  1.00  0.00     0.035 A 
HETATM   17  C   UNL     1      43.542 -17.594   4.464  1.00  0.00     0.031 A 
HETATM   18  C   UNL     1      44.026 -18.908   4.464  1.00  0.00     0.026 A 
HETATM   19  C   UNL     1      43.841 -19.719   3.349  1.00  0.00     0.034 A 
HETATM   20 CL   UNL     1      44.442 -21.331   3.349  1.00  0.00    -0.084 Cl
HETATM   21  C   UNL     1      43.169 -19.232   2.232  1.00  0.00     0.026 A 
HETATM   22  C   UNL     1      42.670 -17.927   2.240  1.00  0.00     0.031 A 
ENDBRANCH  13  16
ENDBRANCH  10  12
BRANCH   1  23
HETATM   23  C   UNL     1      42.115 -12.734   5.064  1.00  0.00    -0.028 A 
HETATM   24  C   UNL     1      42.939 -11.873   4.321  1.00  0.00     0.010 A 
HETATM   25  C   UNL     1      44.156 -11.429   4.845  1.00  0.00     0.007 A 
HETATM   26  C   UNL     1      44.582 -11.849   6.109  1.00  0.00    -0.059 A 
HETATM   27  C   UNL     1      43.794 -12.757   6.825  1.00  0.00     0.007 A 
HETATM   28  C   UNL     1      42.579 -13.203   6.306  1.00  0.00     0.010 A 
BRANCH  26  29
HETATM   29  C   UNL     1      45.851 -11.305   6.717  1.00  0.00     0.034 C 
HETATM   30  C   UNL     1      45.556 -10.400   7.905  1.00  0.00     0.010 C 
ENDBRANCH  26  29
ENDBRANCH   1  23
BRANCH   5  31
HETATM   31  C   UNL     1      38.148  -8.951   5.204  1.00  0.00     0.085 C 
BRANCH  31  32
HETATM   32  C   UNL     1      39.074  -7.872   5.763  1.00  0.00     0.034 C 
BRANCH  32  33
HETATM   33  C   UNL     1      39.078  -7.819   7.287  1.00  0.00     0.164 C 
BRANCH  33  34
HETATM   34  O   UNL     1      38.939  -9.135   7.812  1.00  0.00    -0.401 OA
HETATM   35  H   UNL     1      38.789  -9.738   7.064  1.00  0.00     0.209 HD
ENDBRANCH  33  34
ENDBRANCH  32  33
ENDBRANCH  31  32
ENDBRANCH   5  31
TORSDOF 8
ENDMDL
MODEL 3
REMARK VINA RESULT:      -8.1      3.741      8.059
REMARK  8 active torsions:
REMARK  status: ('A' for Active; 'I' for Inactive)
REMARK    1  A    between atoms: C_2  and  C_3 
REMARK    2  A    between atoms: C_6  and  C_7 
REMARK    3  A    between atoms: C_11  and  C_12 
REMARK    4  A    between atoms: C_12  and  C_13 
REMARK    5  A    between atoms: C_13  and  C_14 
REMARK    6  A    between atoms: C_14  and  O_15 
REMARK    7  A    between atoms: C_20  and  C_21 
REMARK       I    between atoms: C_21  and  N_22 
REMARK    8  A    between atoms: N_22  and  C_23 
ROOT
HETATM    1  C   UNL     1      41.238 -12.970   3.335  1.00  0.00     0.202 C 
HETATM    2  N   UNL     1      42.248 -12.423   4.240  1.00  0.00    -0.083 N 
HETATM    3  C   UNL     1      43.056 -11.368   3.926  1.00  0.00     0.726 A 
HETATM    4  N   UNL     1      43.837 -11.102   4.943  1.00  0.00    -0.046 NA
HETATM    5  C   UNL     1      43.426 -12.010   5.893  1.00  0.00     0.166 A 
HETATM    6  N   UNL     1      42.433 -12.832   5.513  1.00  0.00    -0.140 NA
HETATM    7  N   UNL     1      42.908 -10.761   2.734  1.00  0.00    -0.192 N 
HETATM    8  C   UNL     1      41.813 -10.993   1.903  1.00  0.00     0.037 C 
HETATM    9  C   UNL     1      41.669 -10.037   0.742  1.00  0.00     0.070 C 
HETATM   10  C   UNL     1      40.965 -12.025   2.160  1.00  0.00     0.062 C 
HETATM   11  H   UNL     1      43.429  -9.901   2.574  1.00  0.00     0.184 HD
ENDROOT
BRANCH  10  12
HETATM   12  C   UNL     1      39.676 -12.158   1.404  1.00  0.00     0.256 C 
HETATM   13  N   UNL     1      39.793 -12.170   0.032  1.00  0.00    -0.323 N 
HETATM   14  H   UNL     1      40.710 -12.078  -0.379  1.00  0.00     0.169 HD
HETATM   15  O   UNL     1      38.626 -12.296   2.026  1.00  0.00    -0.267 OA
BRANCH  13  16
HETATM   16  C   UNL     1      38.757 -12.282  -0.920  1.00  0.00     0.035 A 
HETATM   17  C   UNL     1      38.464 -13.450  -1.627  1.00  0.00     0.031 A 
HETATM   18  C   UNL     1      37.400 -13.478  -2.536  1.00  0.00     0.026 A 
HETATM   19  C   UNL     1      36.638 -12.335  -2.754  1.00  0.00     0.034 A 
HETATM   20 CL   UNL     1      35.335 -12.370  -3.876  1.00  0.00    -0.084 Cl
HETATM   21  C   UNL     1      36.923 -11.161  -2.063  1.00  0.00     0.026 A 
HETATM   22  C   UNL     1      37.973 -11.139  -1.140  1.00  0.00     0.031 A 
ENDBRANCH  13  16
ENDBRANCH  10  12
BRANCH   1  23
HETATM   23  C   UNL     1      41.672 -14.364   2.877  1.00  0.00    -0.028 A 
HETATM   24  C   UNL     1      42.807 -14.512   2.062  1.00  0.00     0.010 A 
HETATM   25  C   UNL     1      43.311 -15.783   1.773  1.00  0.00     0.007 A 
HETATM   26  C   UNL     1      42.682 -16.928   2.273  1.00  0.00    -0.059 A 
HETATM   27  C   UNL     1      41.514 -16.787   3.031  1.00  0.00     0.007 A 
HETATM   28  C   UNL     1      41.009 -15.521   3.322  1.00  0.00     0.010 A 
BRANCH  26  29
HETATM   29  C   UNL     1      43.270 -18.298   2.037  1.00  0.00     0.034 C 
HETATM   30  C   UNL     1      44.096 -18.760   3.229  1.00  0.00     0.010 C 
ENDBRANCH  26  29
ENDBRANCH   1  23
BRANCH   5  31
HETATM   31  C   UNL     1      44.001 -12.035   7.261  1.00  0.00     0.085 C 
BRANCH  31  32
HETATM   32  C   UNL     1      45.283 -11.212   7.386  1.00  0.00     0.034 C 
BRANCH  32  33
HETATM   33  C   UNL     1      45.400 -10.487   8.721  1.00  0.00     0.164 C 
BRANCH  33  34
HETATM   34  O   UNL     1      44.375 -10.935   9.601  1.00  0.00    -0.401 OA
HETATM   35  H   UNL     1      44.775 -11.565  10.225  1.00  0.00     0.209 HD
ENDBRANCH  33  34
ENDBRANCH  32  33
ENDBRANCH  31  32
ENDBRANCH   5  31
TORSDOF 8
ENDMDL
MODEL 4
REMARK VINA RESULT:      -7.7      3.648      6.455
REMARK  8 active torsions:
REMARK  status: ('A' for Active; 'I' for Inactive)
REMARK    1  A    between atoms: C_2  and  C_3 
REMARK    2  A    between atoms: C_6  and  C_7 
REMARK    3  A    between atoms: C_11  and  C_12 
REMARK    4  A    between atoms: C_12  and  C_13 
REMARK    5  A    between atoms: C_13  and  C_14 
REMARK    6  A    between atoms: C_14  and  O_15 
REMARK    7  A    between atoms: C_20  and  C_21 
REMARK       I    between atoms: C_21  and  N_22 
REMARK    8  A    between atoms: N_22  and  C_23 
ROOT
HETATM    1  C   UNL     1      41.279 -14.819   5.199  1.00  0.00     0.202 C 
HETATM    2  N   UNL     1      42.292 -15.806   5.570  1.00  0.00    -0.083 N 
HETATM    3  C   UNL     1      43.516 -15.482   6.082  1.00  0.00     0.726 A 
HETATM    4  N   UNL     1      44.186 -16.579   6.331  1.00  0.00    -0.046 NA
HETATM    5  C   UNL     1      43.292 -17.570   5.994  1.00  0.00     0.166 A 
HETATM    6  N   UNL     1      42.102 -17.143   5.540  1.00  0.00    -0.140 NA
HETATM    7  N   UNL     1      43.815 -14.187   6.295  1.00  0.00    -0.192 N 
HETATM    8  C   UNL     1      42.855 -13.177   6.253  1.00  0.00     0.037 C 
HETATM    9  C   UNL     1      43.306 -11.835   6.778  1.00  0.00     0.070 C 
HETATM   10  C   UNL     1      41.614 -13.432   5.759  1.00  0.00     0.062 C 
HETATM   11  H   UNL     1      44.677 -13.978   6.794  1.00  0.00     0.184 HD
ENDROOT
BRANCH  10  12
HETATM   12  C   UNL     1      40.515 -12.421   5.901  1.00  0.00     0.256 C 
HETATM   13  N   UNL     1      40.669 -11.271   5.159  1.00  0.00    -0.323 N 
HETATM   14  H   UNL     1      41.494 -11.168   4.588  1.00  0.00     0.169 HD
HETATM   15  O   UNL     1      39.544 -12.683   6.606  1.00  0.00    -0.267 OA
BRANCH  13  16
HETATM   16  C   UNL     1      39.799 -10.161   5.099  1.00  0.00     0.035 A 
HETATM   17  C   UNL     1      38.880  -9.939   4.072  1.00  0.00     0.031 A 
HETATM   18  C   UNL     1      38.037  -8.822   4.105  1.00  0.00     0.026 A 
HETATM   19  C   UNL     1      38.123  -7.916   5.157  1.00  0.00     0.034 A 
HETATM   20 CL   UNL     1      37.090  -6.540   5.194  1.00  0.00    -0.084 Cl
HETATM   21  C   UNL     1      39.039  -8.119   6.184  1.00  0.00     0.026 A 
HETATM   22  C   UNL     1      39.867  -9.245   6.160  1.00  0.00     0.031 A 
ENDBRANCH  13  16
ENDBRANCH  10  12
BRANCH   1  23
HETATM   23  C   UNL     1      41.115 -14.811   3.678  1.00  0.00    -0.028 A 
HETATM   24  C   UNL     1      40.191 -15.676   3.067  1.00  0.00     0.010 A 
HETATM   25  C   UNL     1      39.912 -15.567   1.703  1.00  0.00     0.007 A 
HETATM   26  C   UNL     1      40.561 -14.607   0.918  1.00  0.00    -0.059 A 
HETATM   27  C   UNL     1      41.528 -13.787   1.509  1.00  0.00     0.007 A 
HETATM   28  C   UNL     1      41.810 -13.893   2.871  1.00  0.00     0.010 A 
BRANCH  26  29
HETATM   29  C   UNL     1      40.200 -14.426  -0.535  1.00  0.00     0.034 C 
HETATM   30  C   UNL     1      39.335 -13.191  -0.743  1.00  0.00     0.010 C 
ENDBRANCH  26  29
ENDBRANCH   1  23
BRANCH   5  31
HETATM   31  C   UNL     1      43.604 -19.009   6.178  1.00  0.00     0.085 C 
BRANCH  31  32
HETATM   32  C   UNL     1      44.201 -19.657   4.930  1.00  0.00     0.034 C 
BRANCH  32  33
HETATM   33  C   UNL     1      43.959 -21.161   4.862  1.00  0.00     0.164 C 
BRANCH  33  34
HETATM   34  O   UNL     1      44.047 -21.600   3.511  1.00  0.00    -0.401 OA
HETATM   35  H   UNL     1      43.410 -22.325   3.394  1.00  0.00     0.209 HD
ENDBRANCH  33  34
ENDBRANCH  32  33
ENDBRANCH  31  32
ENDBRANCH   5  31
TORSDOF 8
ENDMDL
MODEL 5
REMARK VINA RESULT:      -7.6      3.743      6.680
REMARK  8 active torsions:
REMARK  status: ('A' for Active; 'I' for Inactive)
REMARK    1  A    between atoms: C_2  and  C_3 
REMARK    2  A    between atoms: C_6  and  C_7 
REMARK    3  A    between atoms: C_11  and  C_12 
REMARK    4  A    between atoms: C_12  and  C_13 
REMARK    5  A    between atoms: C_13  and  C_14 
REMARK    6  A    between atoms: C_14  and  O_15 
REMARK    7  A    between atoms: C_20  and  C_21 
REMARK       I    between atoms: C_21  and  N_22 
REMARK    8  A    between atoms: N_22  and  C_23 
ROOT
HETATM    1  C   UNL     1      40.613 -12.806   3.985  1.00  0.00     0.202 C 
HETATM    2  N   UNL     1      39.897 -11.664   3.419  1.00  0.00    -0.083 N 
HETATM    3  C   UNL     1      39.724 -11.465   2.078  1.00  0.00     0.726 A 
HETATM    4  N   UNL     1      39.029 -10.372   1.888  1.00  0.00    -0.046 NA
HETATM    5  C   UNL     1      38.752  -9.955   3.171  1.00  0.00     0.166 A 
HETATM    6  N   UNL     1      39.248 -10.732   4.149  1.00  0.00    -0.140 NA
HETATM    7  N   UNL     1      40.204 -12.378   1.213  1.00  0.00    -0.192 N 
HETATM    8  C   UNL     1      40.651 -13.636   1.619  1.00  0.00     0.037 C 
HETATM    9  C   UNL     1      40.898 -14.623   0.503  1.00  0.00     0.070 C 
HETATM   10  C   UNL     1      40.840 -13.902   2.939  1.00  0.00     0.062 C 
HETATM   11  H   UNL     1      39.953 -12.276   0.233  1.00  0.00     0.184 HD
ENDROOT
BRANCH  10  12
HETATM   12  C   UNL     1      41.115 -15.302   3.401  1.00  0.00     0.256 C 
HETATM   13  N   UNL     1      42.440 -15.599   3.634  1.00  0.00    -0.323 N 
HETATM   14  H   UNL     1      43.135 -14.885   3.473  1.00  0.00     0.169 HD
HETATM   15  O   UNL     1      40.175 -16.069   3.590  1.00  0.00    -0.267 OA
BRANCH  13  16
HETATM   16  C   UNL     1      42.984 -16.827   4.070  1.00  0.00     0.035 A 
HETATM   17  C   UNL     1      43.136 -17.184   5.411  1.00  0.00     0.031 A 
HETATM   18  C   UNL     1      43.664 -18.435   5.754  1.00  0.00     0.026 A 
HETATM   19  C   UNL     1      44.056 -19.323   4.758  1.00  0.00     0.034 A 
HETATM   20 CL   UNL     1      44.710 -20.857   5.182  1.00  0.00    -0.084 Cl
HETATM   21  C   UNL     1      43.918 -18.977   3.417  1.00  0.00     0.026 A 
HETATM   22  C   UNL     1      43.373 -17.737   3.076  1.00  0.00     0.031 A 
ENDBRANCH  13  16
ENDBRANCH  10  12
BRANCH   1  23
HETATM   23  C   UNL     1      41.919 -12.321   4.618  1.00  0.00    -0.028 A 
HETATM   24  C   UNL     1      42.123 -12.461   6.001  1.00  0.00     0.010 A 
HETATM   25  C   UNL     1      43.368 -12.176   6.566  1.00  0.00     0.007 A 
HETATM   26  C   UNL     1      44.426 -11.728   5.768  1.00  0.00    -0.059 A 
HETATM   27  C   UNL     1      44.208 -11.526   4.400  1.00  0.00     0.007 A 
HETATM   28  C   UNL     1      42.967 -11.810   3.832  1.00  0.00     0.010 A 
BRANCH  26  29
HETATM   29  C   UNL     1      45.797 -11.502   6.357  1.00  0.00     0.034 C 
HETATM   30  C   UNL     1      45.738 -10.574   7.563  1.00  0.00     0.010 C 
ENDBRANCH  26  29
ENDBRANCH   1  23
BRANCH   5  31
HETATM   31  C   UNL     1      37.912  -8.763   3.448  1.00  0.00     0.085 C 
BRANCH  31  32
HETATM   32  C   UNL     1      37.715  -7.872   2.223  1.00  0.00     0.034 C 
BRANCH  32  33
HETATM   33  C   UNL     1      36.276  -7.860   1.718  1.00  0.00     0.164 C 
BRANCH  33  34
HETATM   34  O   UNL     1      35.566  -6.785   2.324  1.00  0.00    -0.401 OA
HETATM   35  H   UNL     1      34.645  -7.073   2.450  1.00  0.00     0.209 HD
ENDBRANCH  33  34
ENDBRANCH  32  33
ENDBRANCH  31  32
ENDBRANCH   5  31
TORSDOF 8
ENDMDL
MODEL 6
REMARK VINA RESULT:      -7.6      4.182      6.951
REMARK  8 active torsions:
REMARK  status: ('A' for Active; 'I' for Inactive)
REMARK    1  A    between atoms: C_2  and  C_3 
REMARK    2  A    between atoms: C_6  and  C_7 
REMARK    3  A    between atoms: C_11  and  C_12 
REMARK    4  A    between atoms: C_12  and  C_13 
REMARK    5  A    between atoms: C_13  and  C_14 
REMARK    6  A    between atoms: C_14  and  O_15 
REMARK    7  A    between atoms: C_20  and  C_21 
REMARK       I    between atoms: C_21  and  N_22 
REMARK    8  A    between atoms: N_22  and  C_23 
ROOT
HETATM    1  C   UNL     1      41.040 -12.206   0.054  1.00  0.00     0.202 C 
HETATM    2  N   UNL     1      41.347 -10.804  -0.228  1.00  0.00    -0.083 N 
HETATM    3  C   UNL     1      41.238  -9.802   0.694  1.00  0.00     0.726 A 
HETATM    4  N   UNL     1      41.600  -8.669   0.149  1.00  0.00    -0.046 NA
HETATM    5  C   UNL     1      41.977  -9.044  -1.121  1.00  0.00     0.166 A 
HETATM    6  N   UNL     1      41.859 -10.354  -1.394  1.00  0.00    -0.140 NA
HETATM    7  N   UNL     1      40.859 -10.106   1.950  1.00  0.00    -0.192 N 
HETATM    8  C   UNL     1      40.811 -11.417   2.424  1.00  0.00     0.037 C 
HETATM    9  C   UNL     1      40.631 -11.557   3.917  1.00  0.00     0.070 C 
HETATM   10  C   UNL     1      40.917 -12.462   1.560  1.00  0.00     0.062 C 
HETATM   11  H   UNL     1      40.909  -9.368   2.649  1.00  0.00     0.184 HD
ENDROOT
BRANCH  10  12
HETATM   12  C   UNL     1      41.077 -13.862   2.074  1.00  0.00     0.256 C 
HETATM   13  N   UNL     1      42.375 -14.262   2.308  1.00  0.00    -0.323 N 
HETATM   14  H   UNL     1      43.126 -13.617   2.113  1.00  0.00     0.169 HD
HETATM   15  O   UNL     1      40.077 -14.536   2.302  1.00  0.00    -0.267 OA
BRANCH  13  16
HETATM   16  C   UNL     1      42.817 -15.514   2.787  1.00  0.00     0.035 A 
HETATM   17  C   UNL     1      43.010 -16.638   1.982  1.00  0.00     0.031 A 
HETATM   18  C   UNL     1      43.476 -17.835   2.538  1.00  0.00     0.026 A 
HETATM   19  C   UNL     1      43.734 -17.916   3.903  1.00  0.00     0.034 A 
HETATM   20 CL   UNL     1      44.300 -19.390   4.585  1.00  0.00    -0.084 Cl
HETATM   21  C   UNL     1      43.538 -16.806   4.719  1.00  0.00     0.026 A 
HETATM   22  C   UNL     1      43.092 -15.606   4.160  1.00  0.00     0.031 A 
ENDBRANCH  13  16
ENDBRANCH  10  12
BRANCH   1  23
HETATM   23  C   UNL     1      39.781 -12.611  -0.713  1.00  0.00    -0.028 A 
HETATM   24  C   UNL     1      38.635 -11.800  -0.660  1.00  0.00     0.010 A 
HETATM   25  C   UNL     1      37.537 -12.067  -1.482  1.00  0.00     0.007 A 
HETATM   26  C   UNL     1      37.554 -13.158  -2.358  1.00  0.00    -0.059 A 
HETATM   27  C   UNL     1      38.667 -14.006  -2.368  1.00  0.00     0.007 A 
HETATM   28  C   UNL     1      39.764 -13.742  -1.549  1.00  0.00     0.010 A 
BRANCH  26  29
HETATM   29  C   UNL     1      36.409 -13.402  -3.310  1.00  0.00     0.034 C 
HETATM   30  C   UNL     1      35.565 -12.148  -3.495  1.00  0.00     0.010 C 
ENDBRANCH  26  29
ENDBRANCH   1  23
BRANCH   5  31
HETATM   31  C   UNL     1      42.532  -8.074  -2.098  1.00  0.00     0.085 C 
BRANCH  31  32
HETATM   32  C   UNL     1      43.260  -6.906  -1.434  1.00  0.00     0.034 C 
BRANCH  32  33
HETATM   33  C   UNL     1      42.837  -5.548  -1.983  1.00  0.00     0.164 C 
BRANCH  33  34
HETATM   34  O   UNL     1      43.143  -5.477  -3.372  1.00  0.00    -0.401 OA
HETATM   35  H   UNL     1      42.351  -5.754  -3.864  1.00  0.00     0.209 HD
ENDBRANCH  33  34
ENDBRANCH  32  33
ENDBRANCH  31  32
ENDBRANCH   5  31
TORSDOF 8
ENDMDL
MODEL 7
REMARK VINA RESULT:      -7.6      4.436      7.817
REMARK  8 active torsions:
REMARK  status: ('A' for Active; 'I' for Inactive)
REMARK    1  A    between atoms: C_2  and  C_3 
REMARK    2  A    between atoms: C_6  and  C_7 
REMARK    3  A    between atoms: C_11  and  C_12 
REMARK    4  A    between atoms: C_12  and  C_13 
REMARK    5  A    between atoms: C_13  and  C_14 
REMARK    6  A    between atoms: C_14  and  O_15 
REMARK    7  A    between atoms: C_20  and  C_21 
REMARK       I    between atoms: C_21  and  N_22 
REMARK    8  A    between atoms: N_22  and  C_23 
ROOT
HETATM    1  C   UNL     1      38.535 -11.042  -1.016  1.00  0.00     0.202 C 
HETATM    2  N   UNL     1      37.313 -10.784  -1.778  1.00  0.00    -0.083 N 
HETATM    3  C   UNL     1      36.844 -11.608  -2.762  1.00  0.00     0.726 A 
HETATM    4  N   UNL     1      35.727 -11.120  -3.239  1.00  0.00    -0.046 NA
HETATM    5  C   UNL     1      35.524 -10.000  -2.465  1.00  0.00     0.166 A 
HETATM    6  N   UNL     1      36.464  -9.763  -1.535  1.00  0.00    -0.140 NA
HETATM    7  N   UNL     1      37.512 -12.743  -3.040  1.00  0.00    -0.192 N 
HETATM    8  C   UNL     1      38.516 -13.246  -2.213  1.00  0.00     0.037 C 
HETATM    9  C   UNL     1      38.966 -14.653  -2.527  1.00  0.00     0.070 C 
HETATM   10  C   UNL     1      39.025 -12.480  -1.211  1.00  0.00     0.062 C 
HETATM   11  H   UNL     1      37.077 -13.400  -3.683  1.00  0.00     0.184 HD
ENDROOT
BRANCH  10  12
HETATM   12  C   UNL     1      39.948 -13.078  -0.190  1.00  0.00     0.256 C 
HETATM   13  N   UNL     1      39.343 -13.858   0.770  1.00  0.00    -0.323 N 
HETATM   14  H   UNL     1      38.340 -13.970   0.745  1.00  0.00     0.169 HD
HETATM   15  O   UNL     1      41.158 -12.890  -0.290  1.00  0.00    -0.267 OA
BRANCH  13  16
HETATM   16  C   UNL     1      39.960 -14.537   1.843  1.00  0.00     0.035 A 
HETATM   17  C   UNL     1      40.486 -15.827   1.756  1.00  0.00     0.031 A 
HETATM   18  C   UNL     1      41.104 -16.416   2.865  1.00  0.00     0.026 A 
HETATM   19  C   UNL     1      41.182 -15.723   4.069  1.00  0.00     0.034 A 
HETATM   20 CL   UNL     1      41.937 -16.451   5.433  1.00  0.00    -0.084 Cl
HETATM   21  C   UNL     1      40.655 -14.439   4.174  1.00  0.00     0.026 A 
HETATM   22  C   UNL     1      40.056 -13.845   3.060  1.00  0.00     0.031 A 
ENDBRANCH  13  16
ENDBRANCH  10  12
BRANCH   1  23
HETATM   23  C   UNL     1      39.594 -10.006  -1.395  1.00  0.00    -0.028 A 
HETATM   24  C   UNL     1      40.109  -9.139  -0.417  1.00  0.00     0.010 A 
HETATM   25  C   UNL     1      41.190  -8.303  -0.708  1.00  0.00     0.007 A 
HETATM   26  C   UNL     1      41.764  -8.301  -1.984  1.00  0.00    -0.059 A 
HETATM   27  C   UNL     1      41.213  -9.116  -2.979  1.00  0.00     0.007 A 
HETATM   28  C   UNL     1      40.134  -9.951  -2.692  1.00  0.00     0.010 A 
BRANCH  26  29
HETATM   29  C   UNL     1      42.985  -7.466  -2.280  1.00  0.00     0.034 C 
HETATM   30  C   UNL     1      43.306  -6.522  -1.129  1.00  0.00     0.010 C 
ENDBRANCH  26  29
ENDBRANCH   1  23
BRANCH   5  31
HETATM   31  C   UNL     1      34.316  -9.149  -2.612  1.00  0.00     0.085 C 
BRANCH  31  32
HETATM   32  C   UNL     1      33.015  -9.906  -2.347  1.00  0.00     0.034 C 
BRANCH  32  33
HETATM   33  C   UNL     1      32.391 -10.483  -3.613  1.00  0.00     0.164 C 
BRANCH  33  34
HETATM   34  O   UNL     1      32.882 -11.801  -3.832  1.00  0.00    -0.401 OA
HETATM   35  H   UNL     1      32.237 -12.424  -3.457  1.00  0.00     0.209 HD
ENDBRANCH  33  34
ENDBRANCH  32  33
ENDBRANCH  31  32
ENDBRANCH   5  31
TORSDOF 8
ENDMDL
MODEL 8
REMARK VINA RESULT:      -7.5     11.741     16.192
REMARK  8 active torsions:
REMARK  status: ('A' for Active; 'I' for Inactive)
REMARK    1  A    between atoms: C_2  and  C_3 
REMARK    2  A    between atoms: C_6  and  C_7 
REMARK    3  A    between atoms: C_11  and  C_12 
REMARK    4  A    between atoms: C_12  and  C_13 
REMARK    5  A    between atoms: C_13  and  C_14 
REMARK    6  A    between atoms: C_14  and  O_15 
REMARK    7  A    between atoms: C_20  and  C_21 
REMARK       I    between atoms: C_21  and  N_22 
REMARK    8  A    between atoms: N_22  and  C_23 
ROOT
HETATM    1  C   UNL     1      40.781  -6.955  16.714  1.00  0.00     0.202 C 
HETATM    2  N   UNL     1      41.525  -7.133  17.961  1.00  0.00    -0.083 N 
HETATM    3  C   UNL     1      42.060  -6.101  18.678  1.00  0.00     0.726 A 
HETATM    4  N   UNL     1      42.645  -6.575  19.749  1.00  0.00    -0.046 NA
HETATM    5  C   UNL     1      42.393  -7.926  19.665  1.00  0.00     0.166 A 
HETATM    6  N   UNL     1      41.687  -8.315  18.591  1.00  0.00    -0.140 NA
HETATM    7  N   UNL     1      41.876  -4.839  18.249  1.00  0.00    -0.192 N 
HETATM    8  C   UNL     1      40.961  -4.511  17.248  1.00  0.00     0.037 C 
HETATM    9  C   UNL     1      40.687  -3.036  17.081  1.00  0.00     0.070 C 
HETATM   10  C   UNL     1      40.388  -5.490  16.498  1.00  0.00     0.062 C 
HETATM   11  H   UNL     1      42.170  -4.083  18.864  1.00  0.00     0.184 HD
ENDROOT
BRANCH  10  12
HETATM   12  C   UNL     1      39.255  -5.172  15.568  1.00  0.00     0.256 C 
HETATM   13  N   UNL     1      39.620  -4.647  14.348  1.00  0.00    -0.323 N 
HETATM   14  H   UNL     1      40.599  -4.496  14.156  1.00  0.00     0.169 HD
HETATM   15  O   UNL     1      38.105  -5.434  15.910  1.00  0.00    -0.267 OA
BRANCH  13  16
HETATM   16  C   UNL     1      38.772  -4.257  13.289  1.00  0.00     0.035 A 
HETATM   17  C   UNL     1      38.135  -3.017  13.210  1.00  0.00     0.031 A 
HETATM   18  C   UNL     1      37.329  -2.705  12.109  1.00  0.00     0.026 A 
HETATM   19  C   UNL     1      37.144  -3.637  11.093  1.00  0.00     0.034 A 
HETATM   20 CL   UNL     1      36.148  -3.253   9.744  1.00  0.00    -0.084 Cl
HETATM   21  C   UNL     1      37.765  -4.880  11.162  1.00  0.00     0.026 A 
HETATM   22  C   UNL     1      38.586  -5.184  12.252  1.00  0.00     0.031 A 
ENDBRANCH  13  16
ENDBRANCH  10  12
BRANCH   1  23
HETATM   23  C   UNL     1      41.601  -7.519  15.552  1.00  0.00    -0.028 A 
HETATM   24  C   UNL     1      41.178  -8.687  14.897  1.00  0.00     0.010 A 
HETATM   25  C   UNL     1      41.821  -9.121  13.734  1.00  0.00     0.007 A 
HETATM   26  C   UNL     1      42.909  -8.410  13.216  1.00  0.00    -0.059 A 
HETATM   27  C   UNL     1      43.373  -7.282  13.901  1.00  0.00     0.007 A 
HETATM   28  C   UNL     1      42.734  -6.846  15.061  1.00  0.00     0.010 A 
BRANCH  26  29
HETATM   29  C   UNL     1      43.551  -8.823  11.914  1.00  0.00     0.034 C 
HETATM   30  C   UNL     1      43.397 -10.317  11.668  1.00  0.00     0.010 C 
ENDBRANCH  26  29
ENDBRANCH   1  23
BRANCH   5  31
HETATM   31  C   UNL     1      42.823  -8.875  20.723  1.00  0.00     0.085 C 
BRANCH  31  32
HETATM   32  C   UNL     1      41.714  -9.196  21.725  1.00  0.00     0.034 C 
BRANCH  32  33
HETATM   33  C   UNL     1      40.601 -10.052  21.131  1.00  0.00     0.164 C 
BRANCH  33  34
HETATM   34  O   UNL     1      41.163 -11.044  20.279  1.00  0.00    -0.401 OA
HETATM   35  H   UNL     1      41.072 -11.903  20.725  1.00  0.00     0.209 HD
ENDBRANCH  33  34
ENDBRANCH  32  33
ENDBRANCH  31  32
ENDBRANCH   5  31
TORSDOF 8
ENDMDL
MODEL 9
REMARK VINA RESULT:      -7.3     16.538     20.295
REMARK  8 active torsions:
REMARK  status: ('A' for Active; 'I' for Inactive)
REMARK    1  A    between atoms: C_2  and  C_3 
REMARK    2  A    between atoms: C_6  and  C_7 
REMARK    3  A    between atoms: C_11  and  C_12 
REMARK    4  A    between atoms: C_12  and  C_13 
REMARK    5  A    between atoms: C_13  and  C_14 
REMARK    6  A    between atoms: C_14  and  O_15 
REMARK    7  A    between atoms: C_20  and  C_21 
REMARK       I    between atoms: C_21  and  N_22 
REMARK    8  A    between atoms: N_22  and  C_23 
ROOT
HETATM    1  C   UNL     1      47.442 -30.851  -0.360  1.00  0.00     0.202 C 
HETATM    2  N   UNL     1      47.792 -30.325   0.960  1.00  0.00    -0.083 N 
HETATM    3  C   UNL     1      47.483 -29.063   1.380  1.00  0.00     0.726 A 
HETATM    4  N   UNL     1      47.910 -28.898   2.606  1.00  0.00    -0.046 NA
HETATM    5  C   UNL     1      48.441 -30.129   2.917  1.00  0.00     0.166 A 
HETATM    6  N   UNL     1      48.372 -31.049   1.941  1.00  0.00    -0.140 NA
HETATM    7  N   UNL     1      46.788 -28.251   0.562  1.00  0.00    -0.192 N 
HETATM    8  C   UNL     1      46.154 -28.711  -0.593  1.00  0.00     0.037 C 
HETATM    9  C   UNL     1      45.203 -27.733  -1.240  1.00  0.00     0.070 C 
HETATM   10  C   UNL     1      46.414 -29.960  -1.064  1.00  0.00     0.062 C 
HETATM   11  H   UNL     1      46.459 -27.367   0.942  1.00  0.00     0.184 HD
ENDROOT
BRANCH  10  12
HETATM   12  C   UNL     1      45.589 -30.541  -2.175  1.00  0.00     0.256 C 
HETATM   13  N   UNL     1      46.044 -30.280  -3.449  1.00  0.00    -0.323 N 
HETATM   14  H   UNL     1      46.874 -29.718  -3.563  1.00  0.00     0.169 HD
HETATM   15  O   UNL     1      44.615 -31.236  -1.900  1.00  0.00    -0.267 OA
BRANCH  13  16
HETATM   16  C   UNL     1      45.471 -30.696  -4.670  1.00  0.00     0.035 A 
HETATM   17  C   UNL     1      44.232 -30.261  -5.143  1.00  0.00     0.031 A 
HETATM   18  C   UNL     1      43.751 -30.707  -6.380  1.00  0.00     0.026 A 
HETATM   19  C   UNL     1      44.499 -31.601  -7.138  1.00  0.00     0.034 A 
HETATM   20 CL   UNL     1      43.903 -32.153  -8.654  1.00  0.00    -0.084 Cl
HETATM   21  C   UNL     1      45.732 -32.050  -6.675  1.00  0.00     0.026 A 
HETATM   22  C   UNL     1      46.221 -31.590  -5.450  1.00  0.00     0.031 A 
ENDBRANCH  13  16
ENDBRANCH  10  12
BRANCH   1  23
HETATM   23  C   UNL     1      48.717 -31.038  -1.183  1.00  0.00    -0.028 A 
HETATM   24  C   UNL     1      49.696 -30.029  -1.200  1.00  0.00     0.010 A 
HETATM   25  C   UNL     1      50.933 -30.251  -1.811  1.00  0.00     0.007 A 
HETATM   26  C   UNL     1      51.210 -31.474  -2.431  1.00  0.00    -0.059 A 
HETATM   27  C   UNL     1      50.215 -32.457  -2.472  1.00  0.00     0.007 A 
HETATM   28  C   UNL     1      48.980 -32.239  -1.864  1.00  0.00     0.010 A 
BRANCH  26  29
HETATM   29  C   UNL     1      52.573 -31.752  -3.015  1.00  0.00     0.034 C 
HETATM   30  C   UNL     1      53.481 -32.440  -2.004  1.00  0.00     0.010 C 
ENDBRANCH  26  29
ENDBRANCH   1  23
BRANCH   5  31
HETATM   31  C   UNL     1      48.995 -30.433   4.260  1.00  0.00     0.085 C 
BRANCH  31  32
HETATM   32  C   UNL     1      50.521 -30.356   4.309  1.00  0.00     0.034 C 
BRANCH  32  33
HETATM   33  C   UNL     1      51.140 -31.364   5.271  1.00  0.00     0.164 C 
BRANCH  33  34
HETATM   34  O   UNL     1      52.182 -30.740   6.014  1.00  0.00    -0.401 OA
HETATM   35  H   UNL     1      53.028 -31.099   5.695  1.00  0.00     0.209 HD
ENDBRANCH  33  34
ENDBRANCH  32  33
ENDBRANCH  31  32
ENDBRANCH   5  31
TORSDOF 8
ENDMDL
MODEL 10
REMARK VINA RESULT:      -7.3     16.878     19.320
REMARK  8 active torsions:
REMARK  status: ('A' for Active; 'I' for Inactive)
REMARK    1  A    between atoms: C_2  and  C_3 
REMARK    2  A    between atoms: C_6  and  C_7 
REMARK    3  A    between atoms: C_11  and  C_12 
REMARK    4  A    between atoms: C_12  and  C_13 
REMARK    5  A    between atoms: C_13  and  C_14 
REMARK    6  A    between atoms: C_14  and  O_15 
REMARK    7  A    between atoms: C_20  and  C_21 
REMARK       I    between atoms: C_21  and  N_22 
REMARK    8  A    between atoms: N_22  and  C_23 
ROOT
HETATM    1  C   UNL     1      46.918 -30.883   1.305  1.00  0.00     0.202 C 
HETATM    2  N   UNL     1      45.618 -30.387   1.758  1.00  0.00    -0.083 N 
HETATM    3  C   UNL     1      45.071 -29.206   1.345  1.00  0.00     0.726 A 
HETATM    4  N   UNL     1      43.899 -29.052   1.908  1.00  0.00    -0.046 NA
HETATM    5  C   UNL     1      43.749 -30.212   2.633  1.00  0.00     0.166 A 
HETATM    6  N   UNL     1      44.774 -31.077   2.555  1.00  0.00    -0.140 NA
HETATM    7  N   UNL     1      45.733 -28.456   0.445  1.00  0.00    -0.192 N 
HETATM    8  C   UNL     1      46.829 -28.935  -0.273  1.00  0.00     0.037 C 
HETATM    9  C   UNL     1      47.277 -28.065  -1.423  1.00  0.00     0.070 C 
HETATM   10  C   UNL     1      47.420 -30.107   0.083  1.00  0.00     0.062 C 
HETATM   11  H   UNL     1      45.250 -27.648   0.057  1.00  0.00     0.184 HD
ENDROOT
BRANCH  10  12
HETATM   12  C   UNL     1      48.457 -30.735  -0.801  1.00  0.00     0.256 C 
HETATM   13  N   UNL     1      49.753 -30.652  -0.343  1.00  0.00    -0.323 N 
HETATM   14  H   UNL     1      49.932 -30.176   0.529  1.00  0.00     0.169 HD
HETATM   15  O   UNL     1      48.104 -31.314  -1.824  1.00  0.00    -0.267 OA
BRANCH  13  16
HETATM   16  C   UNL     1      50.920 -31.150  -0.963  1.00  0.00     0.035 A 
HETATM   17  C   UNL     1      51.392 -30.719  -2.204  1.00  0.00     0.031 A 
HETATM   18  C   UNL     1      52.574 -31.249  -2.735  1.00  0.00     0.026 A 
HETATM   19  C   UNL     1      53.276 -32.224  -2.033  1.00  0.00     0.034 A 
HETATM   20 CL   UNL     1      54.725 -32.880  -2.690  1.00  0.00    -0.084 Cl
HETATM   21  C   UNL     1      52.813 -32.670  -0.799  1.00  0.00     0.026 A 
HETATM   22  C   UNL     1      51.644 -32.125  -0.261  1.00  0.00     0.031 A 
ENDBRANCH  13  16
ENDBRANCH  10  12
BRANCH   1  23
HETATM   23  C   UNL     1      47.908 -30.843   2.471  1.00  0.00    -0.028 A 
HETATM   24  C   UNL     1      48.523 -32.028   2.909  1.00  0.00     0.010 A 
HETATM   25  C   UNL     1      49.547 -31.986   3.858  1.00  0.00     0.007 A 
HETATM   26  C   UNL     1      49.964 -30.766   4.401  1.00  0.00    -0.059 A 
HETATM   27  C   UNL     1      49.310 -29.591   4.014  1.00  0.00     0.007 A 
HETATM   28  C   UNL     1      48.288 -29.628   3.068  1.00  0.00     0.010 A 
BRANCH  26  29
HETATM   29  C   UNL     1      51.128 -30.704   5.359  1.00  0.00     0.034 C 
HETATM   30  C   UNL     1      51.513 -32.091   5.855  1.00  0.00     0.010 C 
ENDBRANCH  26  29
ENDBRANCH   1  23
BRANCH   5  31
HETATM   31  C   UNL     1      42.513 -30.509   3.399  1.00  0.00     0.085 C 
BRANCH  31  32
HETATM   32  C   UNL     1      41.375 -31.029   2.521  1.00  0.00     0.034 C 
BRANCH  32  33
HETATM   33  C   UNL     1      40.337 -31.829   3.300  1.00  0.00     0.164 C 
BRANCH  33  34
HETATM   34  O   UNL     1      39.949 -31.107   4.463  1.00  0.00    -0.401 OA
HETATM   35  H   UNL     1      39.105 -30.665   4.269  1.00  0.00     0.209 HD
ENDBRANCH  33  34
ENDBRANCH  32  33
ENDBRANCH  31  32
ENDBRANCH   5  31
TORSDOF 8
ENDMDL
