MODEL 1
REMARK VINA RESULT:      -8.7      0.000      0.000
REMARK  6 active torsions:
REMARK  status: ('A' for Active; 'I' for Inactive)
REMARK    1  A    between atoms: C_2  and  C_3 
REMARK    2  A    between atoms: C_7  and  C_8 
REMARK       I    between atoms: C_8  and  N_9 
REMARK    3  A    between atoms: N_9  and  C_10 
REMARK    4  A    between atoms: C_10  and  C_11 
REMARK    5  A    between atoms: C_11  and  N_12 
REMARK    6  A    between atoms: C_15  and  C_16 
ROOT
HETATM    1  C   UNL     1      43.184 -11.855   6.305  1.00  0.00     0.150 C 
ENDROOT
BRANCH   1   2
HETATM    2  N   UNL     1      43.167 -11.166   7.571  1.00  0.00    -0.354 N 
HETATM    3  C   UNL     1      44.306 -11.009   8.339  1.00  0.00     0.272 C 
HETATM    4  O   UNL     1      45.420 -11.300   7.906  1.00  0.00    -0.266 OA
HETATM    5  H   UNL     1      42.301 -11.009   8.092  1.00  0.00     0.162 HD
BRANCH   3   6
HETATM    6  C   UNL     1      44.030 -10.467   9.680  1.00  0.00     0.152 A 
HETATM    7  N   UNL     1      43.903 -11.308  10.728  1.00  0.00    -0.169 NA
HETATM    8  N   UNL     1      43.670 -10.500  11.773  1.00  0.00    -0.281 N 
HETATM    9  C   UNL     1      43.631  -9.174  11.445  1.00  0.00     0.036 A 
HETATM   10  H   UNL     1      43.543 -10.916  12.691  1.00  0.00     0.189 HD
HETATM   11  C   UNL     1      43.862  -9.108  10.083  1.00  0.00    -0.002 A 
HETATM   12  C   UNL     1      43.926  -7.882   9.245  1.00  0.00     0.053 C 
BRANCH   9  13
HETATM   13  C   UNL     1      43.379  -8.119  12.468  1.00  0.00     0.055 C 
HETATM   14  C   UNL     1      42.508  -8.636  13.602  1.00  0.00     0.011 C 
ENDBRANCH   9  13
ENDBRANCH   3   6
ENDBRANCH   1   2
BRANCH   1  15
HETATM   15  C   UNL     1      41.872 -12.609   6.012  1.00  0.00     0.254 C 
BRANCH  15  16
HETATM   16  N   UNL     1      41.903 -14.018   6.577  1.00  0.00    -0.069 N 
HETATM   17  H   UNL     1      41.988 -13.948   7.600  1.00  0.00     0.280 HD
HETATM   18  C   UNL     1      43.022 -14.886   6.039  1.00  0.00     0.244 C 
HETATM   19  C   UNL     1      42.456 -15.500   4.755  1.00  0.00     0.046 C 
HETATM   20  C   UNL     1      40.930 -15.464   4.916  1.00  0.00     0.039 C 
HETATM   21  C   UNL     1      40.658 -14.814   6.261  1.00  0.00     0.235 C 
BRANCH  19  22
HETATM   22  C   UNL     1      43.043 -16.867   4.470  1.00  0.00    -0.046 A 
HETATM   23  C   UNL     1      43.332 -17.292   3.153  1.00  0.00    -0.055 A 
HETATM   24  C   UNL     1      43.043 -16.441   1.944  1.00  0.00     0.049 C 
HETATM   25  C   UNL     1      43.902 -18.560   2.946  1.00  0.00     0.007 A 
HETATM   26  C   UNL     1      44.191 -19.402   4.017  1.00  0.00     0.001 A 
HETATM   27  C   UNL     1      43.913 -18.991   5.313  1.00  0.00     0.001 A 
HETATM   28  C   UNL     1      43.344 -17.738   5.539  1.00  0.00     0.008 A 
ENDBRANCH  19  22
ENDBRANCH  15  16
ENDBRANCH   1  15
TORSDOF 6
ENDMDL
MODEL 2
REMARK VINA RESULT:      -8.4      2.449      3.565
REMARK  6 active torsions:
REMARK  status: ('A' for Active; 'I' for Inactive)
REMARK    1  A    between atoms: C_2  and  C_3 
REMARK    2  A    between atoms: C_7  and  C_8 
REMARK       I    between atoms: C_8  and  N_9 
REMARK    3  A    between atoms: N_9  and  C_10 
REMARK    4  A    between atoms: C_10  and  C_11 
REMARK    5  A    between atoms: C_11  and  N_12 
REMARK    6  A    between atoms: C_15  and  C_16 
ROOT
HETATM    1  C   UNL     1      41.153 -13.415   4.654  1.00  0.00     0.150 C 
ENDROOT
BRANCH   1   2
HETATM    2  N   UNL     1      42.132 -12.806   5.519  1.00  0.00    -0.354 N 
HETATM    3  C   UNL     1      42.280 -11.435   5.612  1.00  0.00     0.272 C 
HETATM    4  O   UNL     1      41.476 -10.664   5.092  1.00  0.00    -0.266 OA
HETATM    5  H   UNL     1      42.933 -13.327   5.883  1.00  0.00     0.162 HD
BRANCH   3   6
HETATM    6  C   UNL     1      43.467 -11.033   6.385  1.00  0.00     0.152 A 
HETATM    7  N   UNL     1      44.675 -11.547   6.070  1.00  0.00    -0.169 NA
HETATM    8  N   UNL     1      45.515 -10.974   6.946  1.00  0.00    -0.281 N 
HETATM    9  C   UNL     1      44.903 -10.120   7.819  1.00  0.00     0.036 A 
HETATM   10  H   UNL     1      46.502 -11.209   6.898  1.00  0.00     0.189 HD
HETATM   11  C   UNL     1      43.560 -10.128   7.486  1.00  0.00    -0.002 A 
HETATM   12  C   UNL     1      42.472  -9.354   8.137  1.00  0.00     0.053 C 
BRANCH   9  13
HETATM   13  C   UNL     1      45.666  -9.390   8.870  1.00  0.00     0.055 C 
HETATM   14  C   UNL     1      45.288  -9.863  10.265  1.00  0.00     0.011 C 
ENDBRANCH   9  13
ENDBRANCH   3   6
ENDBRANCH   1   2
BRANCH   1  15
HETATM   15  C   UNL     1      41.657 -13.599   3.209  1.00  0.00     0.254 C 
BRANCH  15  16
HETATM   16  N   UNL     1      41.243 -14.947   2.644  1.00  0.00    -0.069 N 
HETATM   17  H   UNL     1      40.222 -14.940   2.521  1.00  0.00     0.280 HD
HETATM   18  C   UNL     1      41.638 -16.135   3.498  1.00  0.00     0.244 C 
HETATM   19  C   UNL     1      43.064 -16.476   3.054  1.00  0.00     0.046 C 
HETATM   20  C   UNL     1      43.202 -15.916   1.632  1.00  0.00     0.039 C 
HETATM   21  C   UNL     1      41.877 -15.250   1.306  1.00  0.00     0.235 C 
BRANCH  19  22
HETATM   22  C   UNL     1      43.365 -17.954   3.199  1.00  0.00    -0.046 A 
HETATM   23  C   UNL     1      43.903 -18.489   4.392  1.00  0.00    -0.055 A 
HETATM   24  C   UNL     1      44.251 -17.632   5.582  1.00  0.00     0.049 C 
HETATM   25  C   UNL     1      44.140 -19.872   4.484  1.00  0.00     0.007 A 
HETATM   26  C   UNL     1      43.847 -20.723   3.421  1.00  0.00     0.001 A 
HETATM   27  C   UNL     1      43.317 -20.206   2.248  1.00  0.00     0.001 A 
HETATM   28  C   UNL     1      43.079 -18.836   2.136  1.00  0.00     0.008 A 
ENDBRANCH  19  22
ENDBRANCH  15  16
ENDBRANCH   1  15
TORSDOF 6
ENDMDL
MODEL 3
REMARK VINA RESULT:      -8.3      4.336      7.195
REMARK  6 active torsions:
REMARK  status: ('A' for Active; 'I' for Inactive)
REMARK    1  A    between atoms: C_2  and  C_3 
REMARK    2  A    between atoms: C_7  and  C_8 
REMARK       I    between atoms: C_8  and  N_9 
REMARK    3  A    between atoms: N_9  and  C_10 
REMARK    4  A    between atoms: C_10  and  C_11 
REMARK    5  A    between atoms: C_11  and  N_12 
REMARK    6  A    between atoms: C_15  and  C_16 
ROOT
HETATM    1  C   UNL     1      42.261 -13.245   6.052  1.00  0.00     0.150 C 
ENDROOT
BRANCH   1   2
HETATM    2  N   UNL     1      41.907 -13.102   4.662  1.00  0.00    -0.354 N 
HETATM    3  C   UNL     1      40.592 -13.102   4.235  1.00  0.00     0.272 C 
HETATM    4  O   UNL     1      39.656 -13.054   5.031  1.00  0.00    -0.266 OA
HETATM    5  H   UNL     1      42.578 -13.273   3.911  1.00  0.00     0.162 HD
BRANCH   3   6
HETATM    6  C   UNL     1      40.461 -13.155   2.769  1.00  0.00     0.152 A 
HETATM    7  N   UNL     1      40.624 -12.029   2.042  1.00  0.00    -0.169 NA
HETATM    8  N   UNL     1      40.450 -12.428   0.773  1.00  0.00    -0.281 N 
HETATM    9  C   UNL     1      40.173 -13.760   0.648  1.00  0.00     0.036 A 
HETATM   10  H   UNL     1      40.533 -11.739   0.031  1.00  0.00     0.189 HD
HETATM   11  C   UNL     1      40.171 -14.275   1.932  1.00  0.00    -0.002 A 
HETATM   12  C   UNL     1      39.927 -15.685   2.330  1.00  0.00     0.053 C 
BRANCH   9  13
HETATM   13  C   UNL     1      39.944 -14.393  -0.682  1.00  0.00     0.055 C 
HETATM   14  C   UNL     1      40.206 -13.417  -1.818  1.00  0.00     0.011 C 
ENDBRANCH   9  13
ENDBRANCH   3   6
ENDBRANCH   1   2
BRANCH   1  15
HETATM   15  C   UNL     1      43.625 -13.934   6.258  1.00  0.00     0.254 C 
BRANCH  15  16
HETATM   16  N   UNL     1      43.462 -15.332   6.830  1.00  0.00    -0.069 N 
HETATM   17  H   UNL     1      43.755 -15.307   7.816  1.00  0.00     0.280 HD
HETATM   18  C   UNL     1      44.244 -16.405   6.100  1.00  0.00     0.244 C 
HETATM   19  C   UNL     1      43.323 -16.851   4.960  1.00  0.00     0.046 C 
HETATM   20  C   UNL     1      41.900 -16.493   5.412  1.00  0.00     0.039 C 
HETATM   21  C   UNL     1      42.038 -15.835   6.773  1.00  0.00     0.235 C 
BRANCH  19  22
HETATM   22  C   UNL     1      43.538 -18.304   4.591  1.00  0.00    -0.046 A 
HETATM   23  C   UNL     1      43.516 -18.739   3.246  1.00  0.00    -0.055 A 
HETATM   24  C   UNL     1      43.240 -17.808   2.095  1.00  0.00     0.049 C 
HETATM   25  C   UNL     1      43.749 -20.095   2.955  1.00  0.00     0.007 A 
HETATM   26  C   UNL     1      44.005 -21.014   3.970  1.00  0.00     0.001 A 
HETATM   27  C   UNL     1      44.031 -20.594   5.292  1.00  0.00     0.001 A 
HETATM   28  C   UNL     1      43.799 -19.253   5.601  1.00  0.00     0.008 A 
ENDBRANCH  19  22
ENDBRANCH  15  16
ENDBRANCH   1  15
TORSDOF 6
ENDMDL
MODEL 4
REMARK VINA RESULT:      -8.2      2.264      3.181
REMARK  6 active torsions:
REMARK  status: ('A' for Active; 'I' for Inactive)
REMARK    1  A    between atoms: C_2  and  C_3 
REMARK    2  A    between atoms: C_7  and  C_8 
REMARK       I    between atoms: C_8  and  N_9 
REMARK    3  A    between atoms: N_9  and  C_10 
REMARK    4  A    between atoms: C_10  and  C_11 
REMARK    5  A    between atoms: C_11  and  N_12 
REMARK    6  A    between atoms: C_15  and  C_16 
ROOT
HETATM    1  C   UNL     1      39.919 -12.072   5.595  1.00  0.00     0.150 C 
ENDROOT
BRANCH   1   2
HETATM    2  N   UNL     1      40.822 -11.262   6.374  1.00  0.00    -0.354 N 
HETATM    3  C   UNL     1      41.926 -10.645   5.815  1.00  0.00     0.272 C 
HETATM    4  O   UNL     1      42.100 -10.617   4.598  1.00  0.00    -0.266 OA
HETATM    5  H   UNL     1      40.864 -11.324   7.393  1.00  0.00     0.162 HD
BRANCH   3   6
HETATM    6  C   UNL     1      42.823 -10.045   6.817  1.00  0.00     0.152 A 
HETATM    7  N   UNL     1      42.526  -8.838   7.342  1.00  0.00    -0.169 NA
HETATM    8  N   UNL     1      43.523  -8.600   8.208  1.00  0.00    -0.281 N 
HETATM    9  C   UNL     1      44.456  -9.597   8.259  1.00  0.00     0.036 A 
HETATM   10  H   UNL     1      43.511  -7.733   8.737  1.00  0.00     0.189 HD
HETATM   11  C   UNL     1      44.035 -10.564   7.363  1.00  0.00    -0.002 A 
HETATM   12  C   UNL     1      44.708 -11.853   7.058  1.00  0.00     0.053 C 
BRANCH   9  13
HETATM   13  C   UNL     1      45.642  -9.517   9.158  1.00  0.00     0.055 C 
HETATM   14  C   UNL     1      45.277  -9.852  10.596  1.00  0.00     0.011 C 
ENDBRANCH   9  13
ENDBRANCH   3   6
ENDBRANCH   1   2
BRANCH   1  15
HETATM   15  C   UNL     1      40.060 -13.579   5.885  1.00  0.00     0.254 C 
BRANCH  15  16
HETATM   16  N   UNL     1      40.129 -14.388   4.602  1.00  0.00    -0.069 N 
HETATM   17  H   UNL     1      39.175 -14.462   4.222  1.00  0.00     0.280 HD
HETATM   18  C   UNL     1      40.713 -15.777   4.765  1.00  0.00     0.244 C 
HETATM   19  C   UNL     1      42.226 -15.580   4.626  1.00  0.00     0.046 C 
HETATM   20  C   UNL     1      42.405 -14.284   3.825  1.00  0.00     0.039 C 
HETATM   21  C   UNL     1      41.008 -13.758   3.547  1.00  0.00     0.235 C 
BRANCH  19  22
HETATM   22  C   UNL     1      42.907 -16.801   4.042  1.00  0.00    -0.046 A 
HETATM   23  C   UNL     1      43.967 -17.453   4.713  1.00  0.00    -0.055 A 
HETATM   24  C   UNL     1      44.521 -16.963   6.026  1.00  0.00     0.049 C 
HETATM   25  C   UNL     1      44.547 -18.598   4.139  1.00  0.00     0.007 A 
HETATM   26  C   UNL     1      44.090 -19.104   2.925  1.00  0.00     0.001 A 
HETATM   27  C   UNL     1      43.048 -18.471   2.262  1.00  0.00     0.001 A 
HETATM   28  C   UNL     1      42.462 -17.331   2.813  1.00  0.00     0.008 A 
ENDBRANCH  19  22
ENDBRANCH  15  16
ENDBRANCH   1  15
TORSDOF 6
ENDMDL
MODEL 5
REMARK VINA RESULT:      -7.9      0.963      1.599
REMARK  6 active torsions:
REMARK  status: ('A' for Active; 'I' for Inactive)
REMARK    1  A    between atoms: C_2  and  C_3 
REMARK    2  A    between atoms: C_7  and  C_8 
REMARK       I    between atoms: C_8  and  N_9 
REMARK    3  A    between atoms: N_9  and  C_10 
REMARK    4  A    between atoms: C_10  and  C_11 
REMARK    5  A    between atoms: C_11  and  N_12 
REMARK    6  A    between atoms: C_15  and  C_16 
ROOT
HETATM    1  C   UNL     1      43.426 -12.157   6.587  1.00  0.00     0.150 C 
ENDROOT
BRANCH   1   2
HETATM    2  N   UNL     1      43.290 -11.412   7.814  1.00  0.00    -0.354 N 
HETATM    3  C   UNL     1      44.385 -11.030   8.567  1.00  0.00     0.272 C 
HETATM    4  O   UNL     1      45.533 -11.157   8.145  1.00  0.00    -0.266 OA
HETATM    5  H   UNL     1      42.408 -11.372   8.329  1.00  0.00     0.162 HD
BRANCH   3   6
HETATM    6  C   UNL     1      44.017 -10.467   9.877  1.00  0.00     0.152 A 
HETATM    7  N   UNL     1      43.840 -11.291  10.932  1.00  0.00    -0.169 NA
HETATM    8  N   UNL     1      43.529 -10.467  11.944  1.00  0.00    -0.281 N 
HETATM    9  C   UNL     1      43.488  -9.149  11.589  1.00  0.00     0.036 A 
HETATM   10  H   UNL     1      43.353 -10.868  12.861  1.00  0.00     0.189 HD
HETATM   11  C   UNL     1      43.802  -9.104  10.242  1.00  0.00    -0.002 A 
HETATM   12  C   UNL     1      43.897  -7.894   9.387  1.00  0.00     0.053 C 
BRANCH   9  13
HETATM   13  C   UNL     1      43.156  -8.080  12.573  1.00  0.00     0.055 C 
HETATM   14  C   UNL     1      42.365  -8.630  13.751  1.00  0.00     0.011 C 
ENDBRANCH   9  13
ENDBRANCH   3   6
ENDBRANCH   1   2
BRANCH   1  15
HETATM   15  C   UNL     1      42.206 -12.011   5.657  1.00  0.00     0.254 C 
BRANCH  15  16
HETATM   16  N   UNL     1      41.506 -13.343   5.445  1.00  0.00    -0.069 N 
HETATM   17  H   UNL     1      40.730 -13.404   6.118  1.00  0.00     0.280 HD
HETATM   18  C   UNL     1      42.401 -14.555   5.599  1.00  0.00     0.244 C 
HETATM   19  C   UNL     1      43.027 -14.756   4.216  1.00  0.00     0.046 C 
HETATM   20  C   UNL     1      42.065 -14.086   3.224  1.00  0.00     0.039 C 
HETATM   21  C   UNL     1      40.937 -13.501   4.054  1.00  0.00     0.235 C 
BRANCH  19  22
HETATM   22  C   UNL     1      43.333 -16.213   3.936  1.00  0.00    -0.046 A 
HETATM   23  C   UNL     1      44.079 -17.002   4.841  1.00  0.00    -0.055 A 
HETATM   24  C   UNL     1      44.653 -16.449   6.119  1.00  0.00     0.049 C 
HETATM   25  C   UNL     1      44.312 -18.357   4.546  1.00  0.00     0.007 A 
HETATM   26  C   UNL     1      43.816 -18.934   3.379  1.00  0.00     0.001 A 
HETATM   27  C   UNL     1      43.081 -18.166   2.488  1.00  0.00     0.001 A 
HETATM   28  C   UNL     1      42.842 -16.819   2.761  1.00  0.00     0.008 A 
ENDBRANCH  19  22
ENDBRANCH  15  16
ENDBRANCH   1  15
TORSDOF 6
ENDMDL
MODEL 6
REMARK VINA RESULT:      -7.8      5.953      8.749
REMARK  6 active torsions:
REMARK  status: ('A' for Active; 'I' for Inactive)
REMARK    1  A    between atoms: C_2  and  C_3 
REMARK    2  A    between atoms: C_7  and  C_8 
REMARK       I    between atoms: C_8  and  N_9 
REMARK    3  A    between atoms: N_9  and  C_10 
REMARK    4  A    between atoms: C_10  and  C_11 
REMARK    5  A    between atoms: C_11  and  N_12 
REMARK    6  A    between atoms: C_15  and  C_16 
ROOT
HETATM    1  C   UNL     1      40.590 -12.918   3.707  1.00  0.00     0.150 C 
ENDROOT
BRANCH   1   2
HETATM    2  N   UNL     1      39.803 -12.868   2.500  1.00  0.00    -0.354 N 
HETATM    3  C   UNL     1      40.197 -12.136   1.396  1.00  0.00     0.272 C 
HETATM    4  O   UNL     1      41.315 -11.629   1.324  1.00  0.00    -0.266 OA
HETATM    5  H   UNL     1      38.813 -13.123   2.487  1.00  0.00     0.162 HD
BRANCH   3   6
HETATM    6  C   UNL     1      39.155 -12.051   0.358  1.00  0.00     0.152 A 
HETATM    7  N   UNL     1      38.233 -11.067   0.416  1.00  0.00    -0.169 NA
HETATM    8  N   UNL     1      37.461 -11.275  -0.662  1.00  0.00    -0.281 N 
HETATM    9  C   UNL     1      37.839 -12.354  -1.409  1.00  0.00     0.036 A 
HETATM   10  H   UNL     1      36.686 -10.641  -0.834  1.00  0.00     0.189 HD
HETATM   11  C   UNL     1      38.946 -12.892  -0.777  1.00  0.00    -0.002 A 
HETATM   12  C   UNL     1      39.732 -14.077  -1.204  1.00  0.00     0.053 C 
BRANCH   9  13
HETATM   13  C   UNL     1      37.103 -12.751  -2.644  1.00  0.00     0.055 C 
HETATM   14  C   UNL     1      36.268 -11.603  -3.189  1.00  0.00     0.011 C 
ENDBRANCH   9  13
ENDBRANCH   3   6
ENDBRANCH   1   2
BRANCH   1  15
HETATM   15  C   UNL     1      41.776 -13.898   3.611  1.00  0.00     0.254 C 
BRANCH  15  16
HETATM   16  N   UNL     1      41.377 -15.187   2.914  1.00  0.00    -0.069 N 
HETATM   17  H   UNL     1      40.361 -15.159   2.753  1.00  0.00     0.280 HD
HETATM   18  C   UNL     1      41.729 -16.449   3.676  1.00  0.00     0.244 C 
HETATM   19  C   UNL     1      43.169 -16.765   3.261  1.00  0.00     0.046 C 
HETATM   20  C   UNL     1      43.368 -16.084   1.900  1.00  0.00     0.039 C 
HETATM   21  C   UNL     1      42.062 -15.379   1.581  1.00  0.00     0.235 C 
BRANCH  19  22
HETATM   22  C   UNL     1      43.456 -18.252   3.288  1.00  0.00    -0.046 A 
HETATM   23  C   UNL     1      43.830 -18.915   4.479  1.00  0.00    -0.055 A 
HETATM   24  C   UNL     1      44.010 -18.192   5.789  1.00  0.00     0.049 C 
HETATM   25  C   UNL     1      44.058 -20.302   4.455  1.00  0.00     0.007 A 
HETATM   26  C   UNL     1      43.916 -21.033   3.278  1.00  0.00     0.001 A 
HETATM   27  C   UNL     1      43.547 -20.390   2.106  1.00  0.00     0.001 A 
HETATM   28  C   UNL     1      43.319 -19.014   2.109  1.00  0.00     0.008 A 
ENDBRANCH  19  22
ENDBRANCH  15  16
ENDBRANCH   1  15
TORSDOF 6
ENDMDL
MODEL 7
REMARK VINA RESULT:      -7.7      6.819      9.971
REMARK  6 active torsions:
REMARK  status: ('A' for Active; 'I' for Inactive)
REMARK    1  A    between atoms: C_2  and  C_3 
REMARK    2  A    between atoms: C_7  and  C_8 
REMARK       I    between atoms: C_8  and  N_9 
REMARK    3  A    between atoms: N_9  and  C_10 
REMARK    4  A    between atoms: C_10  and  C_11 
REMARK    5  A    between atoms: C_11  and  N_12 
REMARK    6  A    between atoms: C_15  and  C_16 
ROOT
HETATM    1  C   UNL     1      40.002 -12.682   1.516  1.00  0.00     0.150 C 
ENDROOT
BRANCH   1   2
HETATM    2  N   UNL     1      39.005 -12.702   0.475  1.00  0.00    -0.354 N 
HETATM    3  C   UNL     1      39.341 -12.755  -0.865  1.00  0.00     0.272 C 
HETATM    4  O   UNL     1      40.497 -12.955  -1.231  1.00  0.00    -0.266 OA
HETATM    5  H   UNL     1      38.041 -12.403   0.641  1.00  0.00     0.162 HD
BRANCH   3   6
HETATM    6  C   UNL     1      38.187 -12.555  -1.758  1.00  0.00     0.152 A 
HETATM    7  N   UNL     1      37.718 -13.592  -2.485  1.00  0.00    -0.169 NA
HETATM    8  N   UNL     1      36.683 -13.076  -3.164  1.00  0.00    -0.281 N 
HETATM    9  C   UNL     1      36.467 -11.750  -2.916  1.00  0.00     0.036 A 
HETATM   10  H   UNL     1      36.159 -13.684  -3.788  1.00  0.00     0.189 HD
HETATM   11  C   UNL     1      37.431 -11.369  -1.999  1.00  0.00    -0.002 A 
HETATM   12  C   UNL     1      37.615 -10.021  -1.405  1.00  0.00     0.053 C 
BRANCH   9  13
HETATM   13  C   UNL     1      35.365 -10.996  -3.579  1.00  0.00     0.055 C 
HETATM   14  C   UNL     1      34.296 -11.931  -4.122  1.00  0.00     0.011 C 
ENDBRANCH   9  13
ENDBRANCH   3   6
ENDBRANCH   1   2
BRANCH   1  15
HETATM   15  C   UNL     1      40.085 -14.009   2.296  1.00  0.00     0.254 C 
BRANCH  15  16
HETATM   16  N   UNL     1      40.794 -15.084   1.491  1.00  0.00    -0.069 N 
HETATM   17  H   UNL     1      40.268 -15.226   0.618  1.00  0.00     0.280 HD
HETATM   18  C   UNL     1      40.945 -16.410   2.208  1.00  0.00     0.244 C 
HETATM   19  C   UNL     1      42.241 -16.271   3.014  1.00  0.00     0.046 C 
HETATM   20  C   UNL     1      43.060 -15.188   2.300  1.00  0.00     0.039 C 
HETATM   21  C   UNL     1      42.215 -14.716   1.130  1.00  0.00     0.235 C 
BRANCH  19  22
HETATM   22  C   UNL     1      42.944 -17.601   3.193  1.00  0.00    -0.046 A 
HETATM   23  C   UNL     1      43.634 -17.922   4.384  1.00  0.00    -0.055 A 
HETATM   24  C   UNL     1      43.754 -16.960   5.537  1.00  0.00     0.049 C 
HETATM   25  C   UNL     1      44.247 -19.181   4.509  1.00  0.00     0.007 A 
HETATM   26  C   UNL     1      44.181 -20.118   3.481  1.00  0.00     0.001 A 
HETATM   27  C   UNL     1      43.504 -19.811   2.309  1.00  0.00     0.001 A 
HETATM   28  C   UNL     1      42.892 -18.565   2.165  1.00  0.00     0.008 A 
ENDBRANCH  19  22
ENDBRANCH  15  16
ENDBRANCH   1  15
TORSDOF 6
ENDMDL
MODEL 8
REMARK VINA RESULT:      -7.2      4.616      8.396
REMARK  6 active torsions:
REMARK  status: ('A' for Active; 'I' for Inactive)
REMARK    1  A    between atoms: C_2  and  C_3 
REMARK    2  A    between atoms: C_7  and  C_8 
REMARK       I    between atoms: C_8  and  N_9 
REMARK    3  A    between atoms: N_9  and  C_10 
REMARK    4  A    between atoms: C_10  and  C_11 
REMARK    5  A    between atoms: C_11  and  N_12 
REMARK    6  A    between atoms: C_15  and  C_16 
ROOT
HETATM    1  C   UNL     1      41.763 -13.404   5.579  1.00  0.00     0.150 C 
ENDROOT
BRANCH   1   2
HETATM    2  N   UNL     1      42.096 -14.779   5.299  1.00  0.00    -0.354 N 
HETATM    3  C   UNL     1      43.301 -15.337   5.685  1.00  0.00     0.272 C 
HETATM    4  O   UNL     1      44.077 -14.742   6.431  1.00  0.00    -0.266 OA
HETATM    5  H   UNL     1      41.609 -15.319   4.581  1.00  0.00     0.162 HD
BRANCH   3   6
HETATM    6  C   UNL     1      43.523 -16.678   5.121  1.00  0.00     0.152 A 
HETATM    7  N   UNL     1      43.767 -17.719   5.946  1.00  0.00    -0.169 NA
HETATM    8  N   UNL     1      43.909 -18.767   5.122  1.00  0.00    -0.281 N 
HETATM    9  C   UNL     1      43.778 -18.450   3.800  1.00  0.00     0.036 A 
HETATM   10  H   UNL     1      44.098 -19.681   5.525  1.00  0.00     0.189 HD
HETATM   11  C   UNL     1      43.524 -17.090   3.754  1.00  0.00    -0.002 A 
HETATM   12  C   UNL     1      43.297 -16.263   2.541  1.00  0.00     0.053 C 
BRANCH   9  13
HETATM   13  C   UNL     1      43.908 -19.478   2.728  1.00  0.00     0.055 C 
HETATM   14  C   UNL     1      43.806 -20.887   3.291  1.00  0.00     0.011 C 
ENDBRANCH   9  13
ENDBRANCH   3   6
ENDBRANCH   1   2
BRANCH   1  15
HETATM   15  C   UNL     1      41.402 -12.603   4.312  1.00  0.00     0.254 C 
BRANCH  15  16
HETATM   16  N   UNL     1      40.736 -13.483   3.269  1.00  0.00    -0.069 N 
HETATM   17  H   UNL     1      40.737 -14.450   3.621  1.00  0.00     0.280 HD
HETATM   18  C   UNL     1      41.393 -13.446   1.904  1.00  0.00     0.244 C 
HETATM   19  C   UNL     1      40.746 -12.253   1.193  1.00  0.00     0.046 C 
HETATM   20  C   UNL     1      39.393 -12.040   1.886  1.00  0.00     0.039 C 
HETATM   21  C   UNL     1      39.306 -13.087   2.982  1.00  0.00     0.235 C 
BRANCH  19  22
HETATM   22  C   UNL     1      40.681 -12.452  -0.307  1.00  0.00    -0.046 A 
HETATM   23  C   UNL     1      41.110 -11.451  -1.208  1.00  0.00    -0.055 A 
HETATM   24  C   UNL     1      41.621 -10.110  -0.750  1.00  0.00     0.049 C 
HETATM   25  C   UNL     1      41.053 -11.696  -2.592  1.00  0.00     0.007 A 
HETATM   26  C   UNL     1      40.586 -12.911  -3.087  1.00  0.00     0.001 A 
HETATM   27  C   UNL     1      40.165 -13.899  -2.209  1.00  0.00     0.001 A 
HETATM   28  C   UNL     1      40.210 -13.673  -0.833  1.00  0.00     0.008 A 
ENDBRANCH  19  22
ENDBRANCH  15  16
ENDBRANCH   1  15
TORSDOF 6
ENDMDL
MODEL 9
REMARK VINA RESULT:      -7.0      1.873      9.734
REMARK  6 active torsions:
REMARK  status: ('A' for Active; 'I' for Inactive)
REMARK    1  A    between atoms: C_2  and  C_3 
REMARK    2  A    between atoms: C_7  and  C_8 
REMARK       I    between atoms: C_8  and  N_9 
REMARK    3  A    between atoms: N_9  and  C_10 
REMARK    4  A    between atoms: C_10  and  C_11 
REMARK    5  A    between atoms: C_11  and  N_12 
REMARK    6  A    between atoms: C_15  and  C_16 
ROOT
HETATM    1  C   UNL     1      43.835 -12.192   7.621  1.00  0.00     0.150 C 
ENDROOT
BRANCH   1   2
HETATM    2  N   UNL     1      42.993 -12.812   6.628  1.00  0.00    -0.354 N 
HETATM    3  C   UNL     1      43.053 -14.165   6.354  1.00  0.00     0.272 C 
HETATM    4  O   UNL     1      43.704 -14.937   7.056  1.00  0.00    -0.266 OA
HETATM    5  H   UNL     1      42.526 -12.269   5.898  1.00  0.00     0.162 HD
BRANCH   3   6
HETATM    6  C   UNL     1      42.266 -14.550   5.170  1.00  0.00     0.152 A 
HETATM    7  N   UNL     1      41.171 -13.835   4.834  1.00  0.00    -0.169 NA
HETATM    8  N   UNL     1      40.710 -14.438   3.728  1.00  0.00    -0.281 N 
HETATM    9  C   UNL     1      41.453 -15.517   3.339  1.00  0.00     0.036 A 
HETATM   10  H   UNL     1      39.877 -14.065   3.282  1.00  0.00     0.189 HD
HETATM   11  C   UNL     1      42.483 -15.625   4.257  1.00  0.00    -0.002 A 
HETATM   12  C   UNL     1      43.569 -16.639   4.266  1.00  0.00     0.053 C 
BRANCH   9  13
HETATM   13  C   UNL     1      41.099 -16.322   2.135  1.00  0.00     0.055 C 
HETATM   14  C   UNL     1      39.981 -15.670   1.336  1.00  0.00     0.011 C 
ENDBRANCH   9  13
ENDBRANCH   3   6
ENDBRANCH   1   2
BRANCH   1  15
HETATM   15  C   UNL     1      43.882 -10.657   7.498  1.00  0.00     0.254 C 
BRANCH  15  16
HETATM   16  N   UNL     1      44.539 -10.021   8.711  1.00  0.00    -0.069 N 
HETATM   17  H   UNL     1      45.506 -10.368   8.767  1.00  0.00     0.280 HD
HETATM   18  C   UNL     1      43.832 -10.294  10.023  1.00  0.00     0.244 C 
HETATM   19  C   UNL     1      42.766  -9.199  10.127  1.00  0.00     0.046 C 
HETATM   20  C   UNL     1      43.268  -8.047   9.245  1.00  0.00     0.039 C 
HETATM   21  C   UNL     1      44.582  -8.512   8.643  1.00  0.00     0.235 C 
BRANCH  19  22
HETATM   22  C   UNL     1      42.468  -8.829  11.566  1.00  0.00    -0.046 A 
HETATM   23  C   UNL     1      41.246  -9.178  12.184  1.00  0.00    -0.055 A 
HETATM   24  C   UNL     1      40.143  -9.899  11.453  1.00  0.00     0.049 C 
HETATM   25  C   UNL     1      41.030  -8.834  13.530  1.00  0.00     0.007 A 
HETATM   26  C   UNL     1      42.003  -8.162  14.265  1.00  0.00     0.001 A 
HETATM   27  C   UNL     1      43.207  -7.819  13.666  1.00  0.00     0.001 A 
HETATM   28  C   UNL     1      43.438  -8.147  12.330  1.00  0.00     0.008 A 
ENDBRANCH  19  22
ENDBRANCH  15  16
ENDBRANCH   1  15
TORSDOF 6
ENDMDL
MODEL 10
REMARK VINA RESULT:      -7.0     17.902     19.647
REMARK  6 active torsions:
REMARK  status: ('A' for Active; 'I' for Inactive)
REMARK    1  A    between atoms: C_2  and  C_3 
REMARK    2  A    between atoms: C_7  and  C_8 
REMARK       I    between atoms: C_8  and  N_9 
REMARK    3  A    between atoms: N_9  and  C_10 
REMARK    4  A    between atoms: C_10  and  C_11 
REMARK    5  A    between atoms: C_11  and  N_12 
REMARK    6  A    between atoms: C_15  and  C_16 
ROOT
HETATM    1  C   UNL     1      46.291 -30.418   3.160  1.00  0.00     0.150 C 
ENDROOT
BRANCH   1   2
HETATM    2  N   UNL     1      47.417 -30.657   2.291  1.00  0.00    -0.354 N 
HETATM    3  C   UNL     1      48.446 -29.744   2.152  1.00  0.00     0.272 C 
HETATM    4  O   UNL     1      48.538 -28.762   2.886  1.00  0.00    -0.266 OA
HETATM    5  H   UNL     1      47.386 -31.352   1.542  1.00  0.00     0.162 HD
BRANCH   3   6
HETATM    6  C   UNL     1      49.380 -30.087   1.067  1.00  0.00     0.152 A 
HETATM    7  N   UNL     1      50.500 -30.787   1.346  1.00  0.00    -0.169 NA
HETATM    8  N   UNL     1      51.104 -30.930   0.156  1.00  0.00    -0.281 N 
HETATM    9  C   UNL     1      50.428 -30.346  -0.878  1.00  0.00     0.036 A 
HETATM   10  H   UNL     1      51.982 -31.439   0.115  1.00  0.00     0.189 HD
HETATM   11  C   UNL     1      49.292 -29.783  -0.325  1.00  0.00    -0.002 A 
HETATM   12  C   UNL     1      48.226 -29.036  -1.041  1.00  0.00     0.053 C 
BRANCH   9  13
HETATM   13  C   UNL     1      50.940 -30.393  -2.277  1.00  0.00     0.055 C 
HETATM   14  C   UNL     1      52.252 -31.158  -2.366  1.00  0.00     0.011 C 
ENDBRANCH   9  13
ENDBRANCH   3   6
ENDBRANCH   1   2
BRANCH   1  15
HETATM   15  C   UNL     1      45.154 -29.638   2.471  1.00  0.00     0.254 C 
BRANCH  15  16
HETATM   16  N   UNL     1      44.327 -30.541   1.572  1.00  0.00    -0.069 N 
HETATM   17  H   UNL     1      44.126 -31.407   2.090  1.00  0.00     0.280 HD
HETATM   18  C   UNL     1      44.984 -30.886   0.251  1.00  0.00     0.244 C 
HETATM   19  C   UNL     1      44.602 -29.737  -0.686  1.00  0.00     0.046 C 
HETATM   20  C   UNL     1      43.318 -29.133  -0.101  1.00  0.00     0.039 C 
HETATM   21  C   UNL     1      43.011 -29.923   1.158  1.00  0.00     0.235 C 
BRANCH  19  22
HETATM   22  C   UNL     1      44.505 -30.188  -2.129  1.00  0.00    -0.046 A 
HETATM   23  C   UNL     1      44.790 -29.312  -3.202  1.00  0.00    -0.055 A 
HETATM   24  C   UNL     1      45.168 -27.869  -2.994  1.00  0.00     0.049 C 
HETATM   25  C   UNL     1      44.711 -29.789  -4.522  1.00  0.00     0.007 A 
HETATM   26  C   UNL     1      44.362 -31.110  -4.789  1.00  0.00     0.001 A 
HETATM   27  C   UNL     1      44.084 -31.976  -3.742  1.00  0.00     0.001 A 
HETATM   28  C   UNL     1      44.153 -31.521  -2.425  1.00  0.00     0.008 A 
ENDBRANCH  19  22
ENDBRANCH  15  16
ENDBRANCH   1  15
TORSDOF 6
ENDMDL
