MODEL 1
REMARK VINA RESULT:      -7.7      0.000      0.000
REMARK  7 active torsions:
REMARK  status: ('A' for Active; 'I' for Inactive)
REMARK    1  A    between atoms: C_4  and  C_5 
REMARK    2  A    between atoms: C_10  and  C_11 
REMARK       I    between atoms: C_11  and  N_12 
REMARK    3  A    between atoms: N_12  and  C_13 
REMARK    4  A    between atoms: C_13  and  C_14 
REMARK    5  A    between atoms: C_14  and  C_15 
REMARK    6  A    between atoms: C_15  and  N_16 
REMARK    7  A    between atoms: C_26  and  C_27 
ROOT
HETATM    1  C   UNL     1      40.659 -14.703   4.963  1.00  0.00     0.125 C 
HETATM    2  N   UNL     1      39.976 -13.889   3.953  1.00  0.00    -0.365 N 
HETATM    3  C   UNL     1      40.170 -14.059   2.624  1.00  0.00     0.141 A 
HETATM    4  N   UNL     1      40.910 -15.103   2.140  1.00  0.00    -0.238 N 
HETATM    5  N   UNL     1      40.903 -15.205   0.796  1.00  0.00    -0.163 NA
HETATM    6  C   UNL     1      40.217 -14.106   0.395  1.00  0.00     0.165 A 
HETATM    7  C   UNL     1      39.751 -13.372   1.513  1.00  0.00     0.092 A 
HETATM    8 BR   UNL     1      38.711 -11.815   1.483  1.00  0.00    -0.044 Br
HETATM    9  C   UNL     1      41.604 -16.063   2.978  1.00  0.00     0.221 C 
HETATM   10  C   UNL     1      40.967 -16.097   4.377  1.00  0.00     0.067 C 
HETATM   11  H   UNL     1      39.643 -12.990   4.305  1.00  0.00     0.162 HD
ENDROOT
BRANCH   6  12
HETATM   12  C   UNL     1      40.021 -13.848  -1.036  1.00  0.00     0.273 C 
HETATM   13  N   UNL     1      40.935 -12.962  -1.570  1.00  0.00    -0.355 N 
HETATM   14  H   UNL     1      41.559 -12.530  -0.883  1.00  0.00     0.162 HD
HETATM   15  O   UNL     1      39.168 -14.383  -1.747  1.00  0.00    -0.266 OA
BRANCH  13  16
HETATM   16  C   UNL     1      40.853 -12.443  -2.912  1.00  0.00     0.124 C 
BRANCH  16  17
HETATM   17  C   UNL     1      39.967 -11.203  -3.038  1.00  0.00     0.047 C 
BRANCH  17  18
HETATM   18  C   UNL     1      39.890 -10.274  -1.824  1.00  0.00     0.236 C 
BRANCH  18  19
HETATM   19  N   UNL     1      40.770  -9.058  -1.921  1.00  0.00    -0.067 N 
HETATM   20  H   UNL     1      40.216  -8.257  -1.549  1.00  0.00     0.280 HD
HETATM   21  C   UNL     1      42.082  -9.148  -1.164  1.00  0.00     0.261 C 
HETATM   22  C   UNL     1      42.876  -7.849  -1.338  1.00  0.00     0.195 C 
HETATM   23  O   UNL     1      43.106  -7.566  -2.722  1.00  0.00    -0.388 OA
HETATM   24  C   UNL     1      41.871  -7.392  -3.429  1.00  0.00     0.195 C 
HETATM   25  C   UNL     1      41.032  -8.674  -3.377  1.00  0.00     0.261 C 
ENDBRANCH  18  19
ENDBRANCH  17  18
ENDBRANCH  16  17
ENDBRANCH  13  16
ENDBRANCH   6  12
BRANCH   9  26
HETATM   26  C   UNL     1      43.086 -15.762   2.975  1.00  0.00     0.409 C 
HETATM   27  F   UNL     1      43.373 -14.449   2.931  1.00  0.00    -0.169 F 
HETATM   28  F   UNL     1      43.671 -16.272   4.088  1.00  0.00    -0.169 F 
HETATM   29  F   UNL     1      43.704 -16.344   1.918  1.00  0.00    -0.169 F 
ENDBRANCH   9  26
BRANCH   1  30
HETATM   30  C   UNL     1      41.841 -14.064   5.665  1.00  0.00     0.005 A 
HETATM   31  S   UNL     1      42.243 -12.411   5.409  1.00  0.00    -0.104 SA
HETATM   32  C   UNL     1      43.546 -12.479   6.510  1.00  0.00     0.050 A 
HETATM   33  C   UNL     1      43.663 -13.719   7.093  1.00  0.00     0.008 A 
HETATM   34  C   UNL     1      42.674 -14.627   6.619  1.00  0.00     0.017 A 
ENDBRANCH   1  30
TORSDOF 7
ENDMDL
MODEL 2
REMARK VINA RESULT:      -7.3      1.846      2.372
REMARK  7 active torsions:
REMARK  status: ('A' for Active; 'I' for Inactive)
REMARK    1  A    between atoms: C_4  and  C_5 
REMARK    2  A    between atoms: C_10  and  C_11 
REMARK       I    between atoms: C_11  and  N_12 
REMARK    3  A    between atoms: N_12  and  C_13 
REMARK    4  A    between atoms: C_13  and  C_14 
REMARK    5  A    between atoms: C_14  and  C_15 
REMARK    6  A    between atoms: C_15  and  N_16 
REMARK    7  A    between atoms: C_26  and  C_27 
ROOT
HETATM    1  C   UNL     1      40.754 -14.828   4.923  1.00  0.00     0.125 C 
HETATM    2  N   UNL     1      40.046 -13.988   3.952  1.00  0.00    -0.365 N 
HETATM    3  C   UNL     1      40.199 -14.130   2.614  1.00  0.00     0.141 A 
HETATM    4  N   UNL     1      40.916 -15.168   2.086  1.00  0.00    -0.238 N 
HETATM    5  N   UNL     1      40.867 -15.240   0.740  1.00  0.00    -0.163 NA
HETATM    6  C   UNL     1      40.178 -14.128   0.385  1.00  0.00     0.165 A 
HETATM    7  C   UNL     1      39.752 -13.416   1.532  1.00  0.00     0.092 A 
HETATM    8 BR   UNL     1      38.723 -11.851   1.567  1.00  0.00    -0.044 Br
HETATM    9  C   UNL     1      41.628 -16.151   2.881  1.00  0.00     0.221 C 
HETATM   10  C   UNL     1      41.034 -16.211   4.298  1.00  0.00     0.067 C 
HETATM   11  H   UNL     1      39.731 -13.094   4.333  1.00  0.00     0.162 HD
ENDROOT
BRANCH   6  12
HETATM   12  C   UNL     1      39.941 -13.837  -1.034  1.00  0.00     0.273 C 
HETATM   13  N   UNL     1      40.939 -13.084  -1.620  1.00  0.00    -0.355 N 
HETATM   14  H   UNL     1      41.654 -12.747  -0.970  1.00  0.00     0.162 HD
HETATM   15  O   UNL     1      38.984 -14.245  -1.695  1.00  0.00    -0.266 OA
BRANCH  13  16
HETATM   16  C   UNL     1      40.855 -12.551  -2.957  1.00  0.00     0.124 C 
BRANCH  16  17
HETATM   17  C   UNL     1      40.578 -11.049  -3.003  1.00  0.00     0.047 C 
BRANCH  17  18
HETATM   18  C   UNL     1      39.123 -10.612  -3.187  1.00  0.00     0.236 C 
BRANCH  18  19
HETATM   19  N   UNL     1      38.455 -10.141  -1.925  1.00  0.00    -0.067 N 
HETATM   20  H   UNL     1      38.735 -10.805  -1.171  1.00  0.00     0.280 HD
HETATM   21  C   UNL     1      38.809  -8.728  -1.496  1.00  0.00     0.261 C 
HETATM   22  C   UNL     1      38.072  -8.376  -0.199  1.00  0.00     0.195 C 
HETATM   23  O   UNL     1      36.656  -8.521  -0.354  1.00  0.00    -0.388 OA
HETATM   24  C   UNL     1      36.304  -9.873  -0.674  1.00  0.00     0.195 C 
HETATM   25  C   UNL     1      36.937 -10.298  -2.004  1.00  0.00     0.261 C 
ENDBRANCH  18  19
ENDBRANCH  17  18
ENDBRANCH  16  17
ENDBRANCH  13  16
ENDBRANCH   6  12
BRANCH   9  26
HETATM   26  C   UNL     1      43.112 -15.860   2.840  1.00  0.00     0.409 C 
HETATM   27  F   UNL     1      43.792 -16.357   3.889  1.00  0.00    -0.169 F 
HETATM   28  F   UNL     1      43.660 -16.381   1.713  1.00  0.00    -0.169 F 
HETATM   29  F   UNL     1      43.351 -14.527   2.800  1.00  0.00    -0.169 F 
ENDBRANCH   9  26
BRANCH   1  30
HETATM   30  C   UNL     1      41.961 -14.213   5.602  1.00  0.00     0.005 A 
HETATM   31  S   UNL     1      42.336 -12.543   5.415  1.00  0.00    -0.104 SA
HETATM   32  C   UNL     1      43.689 -12.654   6.449  1.00  0.00     0.050 A 
HETATM   33  C   UNL     1      43.845 -13.921   6.961  1.00  0.00     0.008 A 
HETATM   34  C   UNL     1      42.843 -14.815   6.486  1.00  0.00     0.017 A 
ENDBRANCH   1  30
TORSDOF 7
ENDMDL
MODEL 3
REMARK VINA RESULT:      -7.2      2.057      3.441
REMARK  7 active torsions:
REMARK  status: ('A' for Active; 'I' for Inactive)
REMARK    1  A    between atoms: C_4  and  C_5 
REMARK    2  A    between atoms: C_10  and  C_11 
REMARK       I    between atoms: C_11  and  N_12 
REMARK    3  A    between atoms: N_12  and  C_13 
REMARK    4  A    between atoms: C_13  and  C_14 
REMARK    5  A    between atoms: C_14  and  C_15 
REMARK    6  A    between atoms: C_15  and  N_16 
REMARK    7  A    between atoms: C_26  and  C_27 
ROOT
HETATM    1  C   UNL     1      40.918 -15.946   4.596  1.00  0.00     0.125 C 
HETATM    2  N   UNL     1      40.382 -14.589   4.455  1.00  0.00    -0.365 N 
HETATM    3  C   UNL     1      40.518 -13.864   3.319  1.00  0.00     0.141 A 
HETATM    4  N   UNL     1      41.040 -14.415   2.181  1.00  0.00    -0.238 N 
HETATM    5  N   UNL     1      40.991 -13.604   1.105  1.00  0.00    -0.163 NA
HETATM    6  C   UNL     1      40.517 -12.437   1.605  1.00  0.00     0.165 A 
HETATM    7  C   UNL     1      40.216 -12.569   2.983  1.00  0.00     0.092 A 
HETATM    8 BR   UNL     1      39.486 -11.260   4.106  1.00  0.00    -0.044 Br
HETATM    9  C   UNL     1      41.556 -15.769   2.097  1.00  0.00     0.221 C 
HETATM   10  C   UNL     1      40.949 -16.633   3.215  1.00  0.00     0.067 C 
HETATM   11  H   UNL     1      40.230 -14.110   5.344  1.00  0.00     0.162 HD
ENDROOT
BRANCH   6  12
HETATM   12  C   UNL     1      40.348 -11.278   0.723  1.00  0.00     0.273 C 
HETATM   13  N   UNL     1      41.381 -11.111  -0.179  1.00  0.00    -0.355 N 
HETATM   14  H   UNL     1      42.167 -11.753  -0.046  1.00  0.00     0.162 HD
HETATM   15  O   UNL     1      39.373 -10.523   0.713  1.00  0.00    -0.266 OA
BRANCH  13  16
HETATM   16  C   UNL     1      41.509  -9.965  -1.042  1.00  0.00     0.124 C 
BRANCH  16  17
HETATM   17  C   UNL     1      40.896 -10.167  -2.428  1.00  0.00     0.047 C 
BRANCH  17  18
HETATM   18  C   UNL     1      41.037 -11.555  -3.057  1.00  0.00     0.236 C 
BRANCH  18  19
HETATM   19  N   UNL     1      39.741 -12.308  -3.187  1.00  0.00    -0.067 N 
HETATM   20  H   UNL     1      39.508 -12.329  -4.203  1.00  0.00     0.280 HD
HETATM   21  C   UNL     1      39.762 -13.728  -2.654  1.00  0.00     0.261 C 
HETATM   22  C   UNL     1      38.390 -14.382  -2.853  1.00  0.00     0.195 C 
HETATM   23  O   UNL     1      37.357 -13.617  -2.223  1.00  0.00    -0.388 OA
HETATM   24  C   UNL     1      37.272 -12.300  -2.781  1.00  0.00     0.195 C 
HETATM   25  C   UNL     1      38.581 -11.533  -2.564  1.00  0.00     0.261 C 
ENDBRANCH  18  19
ENDBRANCH  17  18
ENDBRANCH  16  17
ENDBRANCH  13  16
ENDBRANCH   6  12
BRANCH   9  26
HETATM   26  C   UNL     1      43.068 -15.737   2.087  1.00  0.00     0.409 C 
HETATM   27  F   UNL     1      43.601 -15.666   0.854  1.00  0.00    -0.169 F 
HETATM   28  F   UNL     1      43.520 -14.668   2.789  1.00  0.00    -0.169 F 
HETATM   29  F   UNL     1      43.588 -16.835   2.686  1.00  0.00    -0.169 F 
ENDBRANCH   9  26
BRANCH   1  30
HETATM   30  C   UNL     1      42.210 -16.088   5.375  1.00  0.00     0.005 A 
HETATM   31  S   UNL     1      42.983 -14.721   6.079  1.00  0.00    -0.104 SA
HETATM   32  C   UNL     1      44.229 -15.676   6.750  1.00  0.00     0.050 A 
HETATM   33  C   UNL     1      44.055 -17.014   6.480  1.00  0.00     0.008 A 
HETATM   34  C   UNL     1      42.887 -17.253   5.702  1.00  0.00     0.017 A 
ENDBRANCH   1  30
TORSDOF 7
ENDMDL
MODEL 4
REMARK VINA RESULT:      -7.2      7.250     10.195
REMARK  7 active torsions:
REMARK  status: ('A' for Active; 'I' for Inactive)
REMARK    1  A    between atoms: C_4  and  C_5 
REMARK    2  A    between atoms: C_10  and  C_11 
REMARK       I    between atoms: C_11  and  N_12 
REMARK    3  A    between atoms: N_12  and  C_13 
REMARK    4  A    between atoms: C_13  and  C_14 
REMARK    5  A    between atoms: C_14  and  C_15 
REMARK    6  A    between atoms: C_15  and  N_16 
REMARK    7  A    between atoms: C_26  and  C_27 
ROOT
HETATM    1  C   UNL     1      42.502  -6.680  10.399  1.00  0.00     0.125 C 
HETATM    2  N   UNL     1      43.561  -7.382   9.669  1.00  0.00    -0.365 N 
HETATM    3  C   UNL     1      43.327  -8.492   8.930  1.00  0.00     0.141 A 
HETATM    4  N   UNL     1      42.056  -8.941   8.704  1.00  0.00    -0.238 N 
HETATM    5  N   UNL     1      41.984  -9.980   7.847  1.00  0.00    -0.163 NA
HETATM    6  C   UNL     1      43.283 -10.282   7.601  1.00  0.00     0.165 A 
HETATM    7  C   UNL     1      44.142  -9.372   8.265  1.00  0.00     0.092 A 
HETATM    8 BR   UNL     1      46.013  -9.335   8.194  1.00  0.00    -0.044 Br
HETATM    9  C   UNL     1      40.866  -8.337   9.276  1.00  0.00     0.221 C 
HETATM   10  C   UNL     1      41.156  -6.880   9.671  1.00  0.00     0.067 C 
HETATM   11  H   UNL     1      44.499  -7.204  10.032  1.00  0.00     0.162 HD
ENDROOT
BRANCH   6  12
HETATM   12  C   UNL     1      43.619 -11.402   6.715  1.00  0.00     0.273 C 
HETATM   13  N   UNL     1      43.094 -12.611   7.126  1.00  0.00    -0.355 N 
HETATM   14  H   UNL     1      42.629 -12.584   8.038  1.00  0.00     0.162 HD
HETATM   15  O   UNL     1      44.263 -11.315   5.667  1.00  0.00    -0.266 OA
BRANCH  13  16
HETATM   16  C   UNL     1      43.410 -13.871   6.503  1.00  0.00     0.124 C 
BRANCH  16  17
HETATM   17  C   UNL     1      43.079 -15.086   7.369  1.00  0.00     0.047 C 
BRANCH  17  18
HETATM   18  C   UNL     1      42.403 -16.273   6.677  1.00  0.00     0.236 C 
BRANCH  18  19
HETATM   19  N   UNL     1      43.184 -16.841   5.524  1.00  0.00    -0.067 N 
HETATM   20  H   UNL     1      44.020 -16.231   5.399  1.00  0.00     0.280 HD
HETATM   21  C   UNL     1      43.641 -18.278   5.700  1.00  0.00     0.261 C 
HETATM   22  C   UNL     1      44.427 -18.730   4.464  1.00  0.00     0.195 C 
HETATM   23  O   UNL     1      43.645 -18.587   3.274  1.00  0.00    -0.388 OA
HETATM   24  C   UNL     1      43.282 -17.218   3.053  1.00  0.00     0.195 C 
HETATM   25  C   UNL     1      42.423 -16.692   4.208  1.00  0.00     0.261 C 
ENDBRANCH  18  19
ENDBRANCH  17  18
ENDBRANCH  16  17
ENDBRANCH  13  16
ENDBRANCH   6  12
BRANCH   9  26
HETATM   26  C   UNL     1      40.353  -9.200  10.408  1.00  0.00     0.409 C 
HETATM   27  F   UNL     1      41.316  -9.893  11.042  1.00  0.00    -0.169 F 
HETATM   28  F   UNL     1      39.724  -8.434  11.333  1.00  0.00    -0.169 F 
HETATM   29  F   UNL     1      39.438 -10.096   9.967  1.00  0.00    -0.169 F 
ENDBRANCH   9  26
BRANCH   1  30
HETATM   30  C   UNL     1      42.426  -6.927  11.893  1.00  0.00     0.005 A 
HETATM   31  S   UNL     1      41.317  -6.062  12.885  1.00  0.00    -0.104 SA
HETATM   32  C   UNL     1      41.804  -6.902  14.291  1.00  0.00     0.050 A 
HETATM   33  C   UNL     1      42.765  -7.848  14.019  1.00  0.00     0.008 A 
HETATM   34  C   UNL     1      43.113  -7.872  12.639  1.00  0.00     0.017 A 
ENDBRANCH   1  30
TORSDOF 7
ENDMDL
MODEL 5
REMARK VINA RESULT:      -7.0      8.553     11.387
REMARK  7 active torsions:
REMARK  status: ('A' for Active; 'I' for Inactive)
REMARK    1  A    between atoms: C_4  and  C_5 
REMARK    2  A    between atoms: C_10  and  C_11 
REMARK       I    between atoms: C_11  and  N_12 
REMARK    3  A    between atoms: N_12  and  C_13 
REMARK    4  A    between atoms: C_13  and  C_14 
REMARK    5  A    between atoms: C_14  and  C_15 
REMARK    6  A    between atoms: C_15  and  N_16 
REMARK    7  A    between atoms: C_26  and  C_27 
ROOT
HETATM    1  C   UNL     1      39.974  -8.219  13.183  1.00  0.00     0.125 C 
HETATM    2  N   UNL     1      40.267  -8.358  11.754  1.00  0.00    -0.365 N 
HETATM    3  C   UNL     1      41.530  -8.404  11.268  1.00  0.00     0.141 A 
HETATM    4  N   UNL     1      42.612  -8.470  12.103  1.00  0.00    -0.238 N 
HETATM    5  N   UNL     1      43.788  -8.639  11.465  1.00  0.00    -0.163 NA
HETATM    6  C   UNL     1      43.455  -8.564  10.153  1.00  0.00     0.165 A 
HETATM    7  C   UNL     1      42.054  -8.416  10.001  1.00  0.00     0.092 A 
HETATM    8 BR   UNL     1      41.101  -8.324   8.392  1.00  0.00    -0.044 Br
HETATM    9  C   UNL     1      42.525  -8.423  13.551  1.00  0.00     0.221 C 
HETATM   10  C   UNL     1      41.119  -8.846  14.007  1.00  0.00     0.067 C 
HETATM   11  H   UNL     1      39.502  -8.062  11.146  1.00  0.00     0.162 HD
ENDROOT
BRANCH   6  12
HETATM   12  C   UNL     1      44.496  -8.676   9.127  1.00  0.00     0.273 C 
HETATM   13  N   UNL     1      44.904  -9.973   8.888  1.00  0.00    -0.355 N 
HETATM   14  H   UNL     1      44.502 -10.668   9.523  1.00  0.00     0.162 HD
HETATM   15  O   UNL     1      44.960  -7.737   8.476  1.00  0.00    -0.266 OA
BRANCH  13  16
HETATM   16  C   UNL     1      46.014 -10.317   8.035  1.00  0.00     0.124 C 
BRANCH  16  17
HETATM   17  C   UNL     1      45.635 -11.232   6.871  1.00  0.00     0.047 C 
BRANCH  17  18
HETATM   18  C   UNL     1      44.390 -12.104   7.047  1.00  0.00     0.236 C 
BRANCH  18  19
HETATM   19  N   UNL     1      43.752 -12.537   5.755  1.00  0.00    -0.067 N 
HETATM   20  H   UNL     1      44.275 -13.378   5.429  1.00  0.00     0.280 HD
HETATM   21  C   UNL     1      42.275 -12.876   5.846  1.00  0.00     0.261 C 
HETATM   22  C   UNL     1      41.753 -13.306   4.470  1.00  0.00     0.195 C 
HETATM   23  O   UNL     1      41.981 -12.289   3.490  1.00  0.00    -0.388 OA
HETATM   24  C   UNL     1      43.381 -12.022   3.334  1.00  0.00     0.195 C 
HETATM   25  C   UNL     1      43.985 -11.510   4.647  1.00  0.00     0.261 C 
ENDBRANCH  18  19
ENDBRANCH  17  18
ENDBRANCH  16  17
ENDBRANCH  13  16
ENDBRANCH   6  12
BRANCH   9  26
HETATM   26  C   UNL     1      42.955  -7.058  14.041  1.00  0.00     0.409 C 
HETATM   27  F   UNL     1      42.477  -6.743  15.258  1.00  0.00    -0.169 F 
HETATM   28  F   UNL     1      44.308  -6.986  14.101  1.00  0.00    -0.169 F 
HETATM   29  F   UNL     1      42.559  -6.082  13.189  1.00  0.00    -0.169 F 
ENDBRANCH   9  26
BRANCH   1  30
HETATM   30  C   UNL     1      39.567  -6.839  13.663  1.00  0.00     0.005 A 
HETATM   31  S   UNL     1      39.262  -5.562  12.550  1.00  0.00    -0.104 SA
HETATM   32  C   UNL     1      38.852  -4.472  13.798  1.00  0.00     0.050 A 
HETATM   33  C   UNL     1      38.907  -5.063  15.038  1.00  0.00     0.008 A 
HETATM   34  C   UNL     1      39.305  -6.428  14.960  1.00  0.00     0.017 A 
ENDBRANCH   1  30
TORSDOF 7
ENDMDL
MODEL 6
REMARK VINA RESULT:      -7.0      3.011      4.573
REMARK  7 active torsions:
REMARK  status: ('A' for Active; 'I' for Inactive)
REMARK    1  A    between atoms: C_4  and  C_5 
REMARK    2  A    between atoms: C_10  and  C_11 
REMARK       I    between atoms: C_11  and  N_12 
REMARK    3  A    between atoms: N_12  and  C_13 
REMARK    4  A    between atoms: C_13  and  C_14 
REMARK    5  A    between atoms: C_14  and  C_15 
REMARK    6  A    between atoms: C_15  and  N_16 
REMARK    7  A    between atoms: C_26  and  C_27 
ROOT
HETATM    1  C   UNL     1      43.674 -14.857   5.184  1.00  0.00     0.125 C 
HETATM    2  N   UNL     1      43.223 -13.883   4.187  1.00  0.00    -0.365 N 
HETATM    3  C   UNL     1      41.981 -13.343   4.203  1.00  0.00     0.141 A 
HETATM    4  N   UNL     1      41.121 -13.568   5.242  1.00  0.00    -0.238 N 
HETATM    5  N   UNL     1      39.975 -12.859   5.170  1.00  0.00    -0.163 NA
HETATM    6  C   UNL     1      40.059 -12.236   3.970  1.00  0.00     0.165 A 
HETATM    7  C   UNL     1      41.298 -12.521   3.344  1.00  0.00     0.092 A 
HETATM    8 BR   UNL     1      41.909 -11.854   1.704  1.00  0.00    -0.044 Br
HETATM    9  C   UNL     1      41.412 -14.443   6.363  1.00  0.00     0.221 C 
HETATM   10  C   UNL     1      42.932 -14.614   6.515  1.00  0.00     0.067 C 
HETATM   11  H   UNL     1      43.749 -13.913   3.312  1.00  0.00     0.162 HD
ENDROOT
BRANCH   6  12
HETATM   12  C   UNL     1      38.961 -11.377   3.513  1.00  0.00     0.273 C 
HETATM   13  N   UNL     1      38.437 -11.748   2.291  1.00  0.00    -0.355 N 
HETATM   14  H   UNL     1      38.944 -12.504   1.824  1.00  0.00     0.162 HD
HETATM   15  O   UNL     1      38.483 -10.433   4.146  1.00  0.00    -0.266 OA
BRANCH  13  16
HETATM   16  C   UNL     1      37.457 -10.971   1.574  1.00  0.00     0.124 C 
BRANCH  16  17
HETATM   17  C   UNL     1      37.346 -11.336   0.094  1.00  0.00     0.047 C 
BRANCH  17  18
HETATM   18  C   UNL     1      38.425 -10.787  -0.843  1.00  0.00     0.236 C 
BRANCH  18  19
HETATM   19  N   UNL     1      39.374 -11.829  -1.369  1.00  0.00    -0.067 N 
HETATM   20  H   UNL     1      40.096 -11.976  -0.631  1.00  0.00     0.280 HD
HETATM   21  C   UNL     1      38.740 -13.163  -1.716  1.00  0.00     0.261 C 
HETATM   22  C   UNL     1      39.811 -14.131  -2.231  1.00  0.00     0.195 C 
HETATM   23  O   UNL     1      40.500 -13.586  -3.361  1.00  0.00    -0.388 OA
HETATM   24  C   UNL     1      41.175 -12.368  -3.020  1.00  0.00     0.195 C 
HETATM   25  C   UNL     1      40.173 -11.303  -2.561  1.00  0.00     0.261 C 
ENDBRANCH  18  19
ENDBRANCH  17  18
ENDBRANCH  16  17
ENDBRANCH  13  16
ENDBRANCH   6  12
BRANCH   9  26
HETATM   26  C   UNL     1      40.651 -15.740   6.206  1.00  0.00     0.409 C 
HETATM   27  F   UNL     1      40.392 -16.066   4.927  1.00  0.00    -0.169 F 
HETATM   28  F   UNL     1      41.351 -16.764   6.755  1.00  0.00    -0.169 F 
HETATM   29  F   UNL     1      39.464 -15.697   6.858  1.00  0.00    -0.169 F 
ENDBRANCH   9  26
BRANCH   1  30
HETATM   30  C   UNL     1      43.690 -16.311   4.755  1.00  0.00     0.005 A 
HETATM   31  S   UNL     1      43.188 -16.781   3.177  1.00  0.00    -0.104 SA
HETATM   32  C   UNL     1      43.532 -18.426   3.475  1.00  0.00     0.050 A 
HETATM   33  C   UNL     1      44.051 -18.624   4.734  1.00  0.00     0.008 A 
HETATM   34  C   UNL     1      44.156 -17.407   5.465  1.00  0.00     0.017 A 
ENDBRANCH   1  30
TORSDOF 7
ENDMDL
MODEL 7
REMARK VINA RESULT:      -6.9      6.425      9.410
REMARK  7 active torsions:
REMARK  status: ('A' for Active; 'I' for Inactive)
REMARK    1  A    between atoms: C_4  and  C_5 
REMARK    2  A    between atoms: C_10  and  C_11 
REMARK       I    between atoms: C_11  and  N_12 
REMARK    3  A    between atoms: N_12  and  C_13 
REMARK    4  A    between atoms: C_13  and  C_14 
REMARK    5  A    between atoms: C_14  and  C_15 
REMARK    6  A    between atoms: C_15  and  N_16 
REMARK    7  A    between atoms: C_26  and  C_27 
ROOT
HETATM    1  C   UNL     1      42.523  -6.732  10.380  1.00  0.00     0.125 C 
HETATM    2  N   UNL     1      43.568  -7.446   9.643  1.00  0.00    -0.365 N 
HETATM    3  C   UNL     1      43.309  -8.528   8.871  1.00  0.00     0.141 A 
HETATM    4  N   UNL     1      42.027  -8.930   8.617  1.00  0.00    -0.238 N 
HETATM    5  N   UNL     1      41.934  -9.942   7.731  1.00  0.00    -0.163 NA
HETATM    6  C   UNL     1      43.225 -10.278   7.492  1.00  0.00     0.165 A 
HETATM    7  C   UNL     1      44.104  -9.415   8.191  1.00  0.00     0.092 A 
HETATM    8 BR   UNL     1      45.976  -9.435   8.142  1.00  0.00    -0.044 Br
HETATM    9  C   UNL     1      40.850  -8.305   9.193  1.00  0.00     0.221 C 
HETATM   10  C   UNL     1      41.180  -6.869   9.632  1.00  0.00     0.067 C 
HETATM   11  H   UNL     1      44.507  -7.309  10.021  1.00  0.00     0.162 HD
ENDROOT
BRANCH   6  12
HETATM   12  C   UNL     1      43.537 -11.384   6.579  1.00  0.00     0.273 C 
HETATM   13  N   UNL     1      43.090 -12.613   7.024  1.00  0.00    -0.355 N 
HETATM   14  H   UNL     1      42.694 -12.604   7.967  1.00  0.00     0.162 HD
HETATM   15  O   UNL     1      44.096 -11.271   5.487  1.00  0.00    -0.266 OA
BRANCH  13  16
HETATM   16  C   UNL     1      43.407 -13.859   6.373  1.00  0.00     0.124 C 
BRANCH  16  17
HETATM   17  C   UNL     1      42.205 -14.789   6.208  1.00  0.00     0.047 C 
BRANCH  17  18
HETATM   18  C   UNL     1      40.820 -14.140   6.181  1.00  0.00     0.236 C 
BRANCH  18  19
HETATM   19  N   UNL     1      40.123 -14.226   4.850  1.00  0.00    -0.067 N 
HETATM   20  H   UNL     1      39.180 -14.631   5.031  1.00  0.00     0.280 HD
HETATM   21  C   UNL     1      39.963 -12.905   4.119  1.00  0.00     0.261 C 
HETATM   22  C   UNL     1      39.236 -13.131   2.789  1.00  0.00     0.195 C 
HETATM   23  O   UNL     1      39.930 -14.082   1.975  1.00  0.00    -0.388 OA
HETATM   24  C   UNL     1      40.011 -15.358   2.622  1.00  0.00     0.195 C 
HETATM   25  C   UNL     1      40.792 -15.252   3.936  1.00  0.00     0.261 C 
ENDBRANCH  18  19
ENDBRANCH  17  18
ENDBRANCH  16  17
ENDBRANCH  13  16
ENDBRANCH   6  12
BRANCH   9  26
HETATM   26  C   UNL     1      40.297  -9.182  10.294  1.00  0.00     0.409 C 
HETATM   27  F   UNL     1      39.379 -10.070   9.871  1.00  0.00    -0.169 F 
HETATM   28  F   UNL     1      41.298  -9.879  10.887  1.00  0.00    -0.169 F 
HETATM   29  F   UNL     1      39.718  -8.440  11.269  1.00  0.00    -0.169 F 
ENDBRANCH   9  26
BRANCH   1  30
HETATM   30  C   UNL     1      42.422  -7.017  11.865  1.00  0.00     0.005 A 
HETATM   31  S   UNL     1      41.332  -6.142  12.870  1.00  0.00    -0.104 SA
HETATM   32  C   UNL     1      41.772  -7.036  14.256  1.00  0.00     0.050 A 
HETATM   33  C   UNL     1      42.703  -8.007  13.969  1.00  0.00     0.008 A 
HETATM   34  C   UNL     1      43.066  -8.006  12.592  1.00  0.00     0.017 A 
ENDBRANCH   1  30
TORSDOF 7
ENDMDL
MODEL 8
REMARK VINA RESULT:      -6.9      5.028      8.573
REMARK  7 active torsions:
REMARK  status: ('A' for Active; 'I' for Inactive)
REMARK    1  A    between atoms: C_4  and  C_5 
REMARK    2  A    between atoms: C_10  and  C_11 
REMARK       I    between atoms: C_11  and  N_12 
REMARK    3  A    between atoms: N_12  and  C_13 
REMARK    4  A    between atoms: C_13  and  C_14 
REMARK    5  A    between atoms: C_14  and  C_15 
REMARK    6  A    between atoms: C_15  and  N_16 
REMARK    7  A    between atoms: C_26  and  C_27 
ROOT
HETATM    1  C   UNL     1      42.647 -12.551   2.658  1.00  0.00     0.125 C 
HETATM    2  N   UNL     1      41.495 -11.700   2.967  1.00  0.00    -0.365 N 
HETATM    3  C   UNL     1      41.204 -11.291   4.225  1.00  0.00     0.141 A 
HETATM    4  N   UNL     1      42.058 -11.531   5.266  1.00  0.00    -0.238 N 
HETATM    5  N   UNL     1      41.687 -10.951   6.425  1.00  0.00    -0.163 NA
HETATM    6  C   UNL     1      40.478 -10.408   6.139  1.00  0.00     0.165 A 
HETATM    7  C   UNL     1      40.151 -10.607   4.775  1.00  0.00     0.092 A 
HETATM    8 BR   UNL     1      38.621  -9.997   3.885  1.00  0.00    -0.044 Br
HETATM    9  C   UNL     1      43.289 -12.290   5.148  1.00  0.00     0.221 C 
HETATM   10  C   UNL     1      43.768 -12.293   3.687  1.00  0.00     0.067 C 
HETATM   11  H   UNL     1      40.755 -11.737   2.264  1.00  0.00     0.162 HD
ENDROOT
BRANCH   6  12
HETATM   12  C   UNL     1      39.729  -9.700   7.183  1.00  0.00     0.273 C 
HETATM   13  N   UNL     1      39.622 -10.406   8.365  1.00  0.00    -0.355 N 
HETATM   14  H   UNL     1      39.990 -11.360   8.324  1.00  0.00     0.162 HD
HETATM   15  O   UNL     1      39.262  -8.564   7.080  1.00  0.00    -0.266 OA
BRANCH  13  16
HETATM   16  C   UNL     1      38.810  -9.982   9.477  1.00  0.00     0.124 C 
BRANCH  16  17
HETATM   17  C   UNL     1      39.611  -9.676  10.743  1.00  0.00     0.047 C 
BRANCH  17  18
HETATM   18  C   UNL     1      40.953  -8.962  10.563  1.00  0.00     0.236 C 
BRANCH  18  19
HETATM   19  N   UNL     1      42.132  -9.887  10.436  1.00  0.00    -0.067 N 
HETATM   20  H   UNL     1      41.750 -10.831  10.210  1.00  0.00     0.280 HD
HETATM   21  C   UNL     1      43.147  -9.498   9.377  1.00  0.00     0.261 C 
HETATM   22  C   UNL     1      44.288 -10.521   9.346  1.00  0.00     0.195 C 
HETATM   23  O   UNL     1      44.911 -10.639  10.629  1.00  0.00    -0.388 OA
HETATM   24  C   UNL     1      43.979 -11.091  11.620  1.00  0.00     0.195 C 
HETATM   25  C   UNL     1      42.831 -10.089  11.780  1.00  0.00     0.261 C 
ENDBRANCH  18  19
ENDBRANCH  17  18
ENDBRANCH  16  17
ENDBRANCH  13  16
ENDBRANCH   6  12
BRANCH   9  26
HETATM   26  C   UNL     1      43.095 -13.667   5.743  1.00  0.00     0.409 C 
HETATM   27  F   UNL     1      43.446 -13.753   7.039  1.00  0.00    -0.169 F 
HETATM   28  F   UNL     1      41.795 -14.042   5.646  1.00  0.00    -0.169 F 
HETATM   29  F   UNL     1      43.813 -14.599   5.070  1.00  0.00    -0.169 F 
ENDBRANCH   9  26
BRANCH   1  30
HETATM   30  C   UNL     1      42.364 -14.022   2.425  1.00  0.00     0.005 A 
HETATM   31  S   UNL     1      40.775 -14.661   2.592  1.00  0.00    -0.104 SA
HETATM   32  C   UNL     1      41.278 -16.231   2.149  1.00  0.00     0.050 A 
HETATM   33  C   UNL     1      42.619 -16.275   1.844  1.00  0.00     0.008 A 
HETATM   34  C   UNL     1      43.241 -15.003   1.989  1.00  0.00     0.017 A 
ENDBRANCH   1  30
TORSDOF 7
ENDMDL
MODEL 9
REMARK VINA RESULT:      -6.9      4.026      8.842
REMARK  7 active torsions:
REMARK  status: ('A' for Active; 'I' for Inactive)
REMARK    1  A    between atoms: C_4  and  C_5 
REMARK    2  A    between atoms: C_10  and  C_11 
REMARK       I    between atoms: C_11  and  N_12 
REMARK    3  A    between atoms: N_12  and  C_13 
REMARK    4  A    between atoms: C_13  and  C_14 
REMARK    5  A    between atoms: C_14  and  C_15 
REMARK    6  A    between atoms: C_15  and  N_16 
REMARK    7  A    between atoms: C_26  and  C_27 
ROOT
HETATM    1  C   UNL     1      41.249 -10.632  -1.854  1.00  0.00     0.125 C 
HETATM    2  N   UNL     1      41.459 -10.597  -0.404  1.00  0.00    -0.365 N 
HETATM    3  C   UNL     1      41.089 -11.612   0.413  1.00  0.00     0.141 A 
HETATM    4  N   UNL     1      40.627 -12.797  -0.089  1.00  0.00    -0.238 N 
HETATM    5  N   UNL     1      40.423 -13.747   0.846  1.00  0.00    -0.163 NA
HETATM    6  C   UNL     1      40.659 -13.102   2.015  1.00  0.00     0.165 A 
HETATM    7  C   UNL     1      41.073 -11.769   1.775  1.00  0.00     0.092 A 
HETATM    8 BR   UNL     1      41.568 -10.497   3.058  1.00  0.00    -0.044 Br
HETATM    9  C   UNL     1      40.420 -13.055  -1.502  1.00  0.00     0.221 C 
HETATM   10  C   UNL     1      41.278 -12.095  -2.343  1.00  0.00     0.067 C 
HETATM   11  H   UNL     1      41.560  -9.654  -0.024  1.00  0.00     0.162 HD
ENDROOT
BRANCH   6  12
HETATM   12  C   UNL     1      40.506 -13.815   3.287  1.00  0.00     0.273 C 
HETATM   13  N   UNL     1      41.342 -14.907   3.416  1.00  0.00    -0.355 N 
HETATM   14  H   UNL     1      41.880 -15.130   2.575  1.00  0.00     0.162 HD
HETATM   15  O   UNL     1      39.753 -13.483   4.206  1.00  0.00    -0.266 OA
BRANCH  13  16
HETATM   16  C   UNL     1      41.268 -15.843   4.509  1.00  0.00     0.124 C 
BRANCH  16  17
HETATM   17  C   UNL     1      42.634 -16.310   5.012  1.00  0.00     0.047 C 
BRANCH  17  18
HETATM   18  C   UNL     1      43.588 -16.917   3.980  1.00  0.00     0.236 C 
BRANCH  18  19
HETATM   19  N   UNL     1      43.328 -18.368   3.679  1.00  0.00    -0.067 N 
HETATM   20  H   UNL     1      42.423 -18.612   4.136  1.00  0.00     0.280 HD
HETATM   21  C   UNL     1      43.248 -18.717   2.204  1.00  0.00     0.261 C 
HETATM   22  C   UNL     1      42.975 -20.216   2.037  1.00  0.00     0.195 C 
HETATM   23  O   UNL     1      43.977 -21.000   2.692  1.00  0.00    -0.388 OA
HETATM   24  C   UNL     1      44.001 -20.741   4.101  1.00  0.00     0.195 C 
HETATM   25  C   UNL     1      44.344 -19.273   4.376  1.00  0.00     0.261 C 
ENDBRANCH  18  19
ENDBRANCH  17  18
ENDBRANCH  16  17
ENDBRANCH  13  16
ENDBRANCH   6  12
BRANCH   9  26
HETATM   26  C   UNL     1      38.941 -13.007  -1.816  1.00  0.00     0.409 C 
HETATM   27  F   UNL     1      38.259 -12.112  -1.080  1.00  0.00    -0.169 F 
HETATM   28  F   UNL     1      38.749 -12.695  -3.122  1.00  0.00    -0.169 F 
HETATM   29  F   UNL     1      38.358 -14.215  -1.622  1.00  0.00    -0.169 F 
ENDBRANCH   9  26
BRANCH   1  30
HETATM   30  C   UNL     1      40.075  -9.836  -2.390  1.00  0.00     0.005 A 
HETATM   31  S   UNL     1      39.105  -8.868  -1.350  1.00  0.00    -0.104 SA
HETATM   32  C   UNL     1      38.129  -8.324  -2.641  1.00  0.00     0.050 A 
HETATM   33  C   UNL     1      38.543  -8.834  -3.850  1.00  0.00     0.008 A 
HETATM   34  C   UNL     1      39.671  -9.692  -3.708  1.00  0.00     0.017 A 
ENDBRANCH   1  30
TORSDOF 7
ENDMDL
MODEL 10
REMARK VINA RESULT:      -6.8     17.280     19.269
REMARK  7 active torsions:
REMARK  status: ('A' for Active; 'I' for Inactive)
REMARK    1  A    between atoms: C_4  and  C_5 
REMARK    2  A    between atoms: C_10  and  C_11 
REMARK       I    between atoms: C_11  and  N_12 
REMARK    3  A    between atoms: N_12  and  C_13 
REMARK    4  A    between atoms: C_13  and  C_14 
REMARK    5  A    between atoms: C_14  and  C_15 
REMARK    6  A    between atoms: C_15  and  N_16 
REMARK    7  A    between atoms: C_26  and  C_27 
ROOT
HETATM    1  C   UNL     1      50.410 -29.860   3.000  1.00  0.00     0.125 C 
HETATM    2  N   UNL     1      50.076 -29.856   1.573  1.00  0.00    -0.365 N 
HETATM    3  C   UNL     1      48.803 -29.757   1.122  1.00  0.00     0.141 A 
HETATM    4  N   UNL     1      47.763 -29.508   1.973  1.00  0.00    -0.238 N 
HETATM    5  N   UNL     1      46.580 -29.312   1.355  1.00  0.00    -0.163 NA
HETATM    6  C   UNL     1      46.857 -29.560   0.051  1.00  0.00     0.165 A 
HETATM    7  C   UNL     1      48.234 -29.842  -0.123  1.00  0.00     0.092 A 
HETATM    8 BR   UNL     1      49.115 -30.191  -1.739  1.00  0.00    -0.044 Br
HETATM    9  C   UNL     1      47.900 -29.402   3.415  1.00  0.00     0.221 C 
HETATM   10  C   UNL     1      49.352 -29.051   3.779  1.00  0.00     0.067 C 
HETATM   11  H   UNL     1      50.791 -30.280   0.981  1.00  0.00     0.162 HD
ENDROOT
BRANCH   6  12
HETATM   12  C   UNL     1      45.789 -29.475  -0.952  1.00  0.00     0.273 C 
HETATM   13  N   UNL     1      45.925 -28.409  -1.818  1.00  0.00    -0.355 N 
HETATM   14  H   UNL     1      46.688 -27.768  -1.586  1.00  0.00     0.162 HD
HETATM   15  O   UNL     1      44.866 -30.282  -1.081  1.00  0.00    -0.266 OA
BRANCH  13  16
HETATM   16  C   UNL     1      44.925 -28.036  -2.787  1.00  0.00     0.124 C 
BRANCH  16  17
HETATM   17  C   UNL     1      45.194 -28.581  -4.190  1.00  0.00     0.047 C 
BRANCH  17  18
HETATM   18  C   UNL     1      44.507 -29.894  -4.572  1.00  0.00     0.236 C 
BRANCH  18  19
HETATM   19  N   UNL     1      45.049 -30.534  -5.821  1.00  0.00    -0.067 N 
HETATM   20  H   UNL     1      45.486 -29.772  -6.382  1.00  0.00     0.280 HD
HETATM   21  C   UNL     1      46.072 -31.631  -5.593  1.00  0.00     0.261 C 
HETATM   22  C   UNL     1      46.546 -32.191  -6.939  1.00  0.00     0.195 C 
HETATM   23  O   UNL     1      45.443 -32.675  -7.714  1.00  0.00    -0.388 OA
HETATM   24  C   UNL     1      44.514 -31.625  -8.008  1.00  0.00     0.195 C 
HETATM   25  C   UNL     1      43.923 -31.047  -6.718  1.00  0.00     0.261 C 
ENDBRANCH  18  19
ENDBRANCH  17  18
ENDBRANCH  16  17
ENDBRANCH  13  16
ENDBRANCH   6  12
BRANCH   9  26
HETATM   26  C   UNL     1      47.380 -30.663   4.068  1.00  0.00     0.409 C 
HETATM   27  F   UNL     1      47.963 -30.943   5.248  1.00  0.00    -0.169 F 
HETATM   28  F   UNL     1      46.045 -30.563   4.285  1.00  0.00    -0.169 F 
HETATM   29  F   UNL     1      47.557 -31.741   3.267  1.00  0.00    -0.169 F 
ENDBRANCH   9  26
BRANCH   1  30
HETATM   30  C   UNL     1      50.723 -31.207   3.621  1.00  0.00     0.005 A 
HETATM   31  S   UNL     1      50.676 -32.652   2.687  1.00  0.00    -0.104 SA
HETATM   32  C   UNL     1      51.158 -33.614   4.013  1.00  0.00     0.050 A 
HETATM   33  C   UNL     1      51.388 -32.860   5.140  1.00  0.00     0.008 A 
HETATM   34  C   UNL     1      51.152 -31.474   4.912  1.00  0.00     0.017 A 
ENDBRANCH   1  30
TORSDOF 7
ENDMDL
