MODEL 1
REMARK VINA RESULT:      -9.2      0.000      0.000
REMARK  4 active torsions:
REMARK  status: ('A' for Active; 'I' for Inactive)
REMARK       I    between atoms: N_6  and  C_7 
REMARK    1  A    between atoms: C_7  and  C_8 
REMARK    2  A    between atoms: C_9  and  N_10 
REMARK       I    between atoms: N_10  and  C_11 
REMARK    3  A    between atoms: C_11  and  C_12 
REMARK    4  A    between atoms: N_20  and  C_21 
ROOT
HETATM    1  C   UNL     1      41.097 -12.579   3.641  1.00  0.00     0.097 C 
HETATM    2  C   UNL     1      41.030 -13.473   2.579  1.00  0.00     0.149 C 
HETATM    3  N   UNL     1      40.504 -12.769   1.488  1.00  0.00    -0.217 N 
HETATM    4  N   UNL     1      40.181 -11.497   1.859  1.00  0.00    -0.177 NA
HETATM    5  C   UNL     1      40.673 -11.361   3.086  1.00  0.00     0.160 C 
ENDROOT
BRANCH   2   6
HETATM    6  N   UNL     1      41.419 -14.810   2.720  1.00  0.00    -0.306 N 
HETATM    7  C   UNL     1      42.754 -15.247   2.444  1.00  0.00     0.257 C 
HETATM    8  O   UNL     1      43.470 -14.544   1.755  1.00  0.00    -0.267 OA
HETATM    9  H   UNL     1      40.669 -15.491   2.828  1.00  0.00     0.170 HD
BRANCH   7  10
HETATM   10  C   UNL     1      43.182 -16.563   2.993  1.00  0.00     0.032 A 
HETATM   11  C   UNL     1      43.143 -17.745   2.240  1.00  0.00     0.018 A 
HETATM   12  C   UNL     1      43.507 -18.963   2.829  1.00  0.00     0.020 A 
HETATM   13  C   UNL     1      43.898 -19.003   4.166  1.00  0.00     0.011 A 
HETATM   14 BR   UNL     1      44.367 -20.652   4.957  1.00  0.00    -0.051 Br
HETATM   15  C   UNL     1      43.933 -17.835   4.924  1.00  0.00     0.020 A 
HETATM   16  C   UNL     1      43.578 -16.616   4.338  1.00  0.00     0.018 A 
ENDBRANCH   7  10
ENDBRANCH   2   6
BRANCH   1  17
HETATM   17  C   UNL     1      41.533 -12.924   4.980  1.00  0.00     0.259 C 
HETATM   18  N   UNL     1      42.892 -13.138   5.242  1.00  0.00    -0.345 N 
HETATM   19  C   UNL     1      43.254 -13.618   6.584  1.00  0.00     0.154 C 
HETATM   20  C   UNL     1      43.995 -12.450   4.548  1.00  0.00     0.154 C 
HETATM   21  C   UNL     1      43.746 -12.461   7.475  1.00  0.00     0.254 C 
HETATM   22  N   UNL     1      44.914 -11.749   6.788  1.00  0.00    -0.072 N 
HETATM   23  C   UNL     1      45.459 -10.624   7.625  1.00  0.00     0.269 C 
HETATM   24  H   UNL     1      45.676 -12.435   6.692  1.00  0.00     0.279 HD
HETATM   25  C   UNL     1      44.544 -11.277   5.388  1.00  0.00     0.254 C 
HETATM   26  O   UNL     1      40.701 -12.976   5.889  1.00  0.00    -0.267 OA
ENDBRANCH   1  17
BRANCH   3  27
HETATM   27  C   UNL     1      40.367 -13.138   0.122  1.00  0.00     0.060 A 
HETATM   28  C   UNL     1      39.743 -14.330  -0.265  1.00  0.00     0.031 A 
HETATM   29  C   UNL     1      39.589 -14.627  -1.622  1.00  0.00     0.002 A 
HETATM   30  C   UNL     1      40.075 -13.754  -2.593  1.00  0.00     0.000 A 
HETATM   31  C   UNL     1      40.743 -12.592  -2.214  1.00  0.00     0.002 A 
HETATM   32  C   UNL     1      40.900 -12.288  -0.862  1.00  0.00     0.031 A 
ENDBRANCH   3  27
TORSDOF 4
ENDMDL
MODEL 2
REMARK VINA RESULT:      -9.2      3.099      6.190
REMARK  4 active torsions:
REMARK  status: ('A' for Active; 'I' for Inactive)
REMARK       I    between atoms: N_6  and  C_7 
REMARK    1  A    between atoms: C_7  and  C_8 
REMARK    2  A    between atoms: C_9  and  N_10 
REMARK       I    between atoms: N_10  and  C_11 
REMARK    3  A    between atoms: C_11  and  C_12 
REMARK    4  A    between atoms: N_20  and  C_21 
ROOT
HETATM    1  C   UNL     1      43.136 -14.467   4.821  1.00  0.00     0.097 C 
HETATM    2  C   UNL     1      43.065 -15.432   3.824  1.00  0.00     0.149 C 
HETATM    3  N   UNL     1      43.562 -16.621   4.373  1.00  0.00    -0.217 N 
HETATM    4  N   UNL     1      43.999 -16.406   5.647  1.00  0.00    -0.177 NA
HETATM    5  C   UNL     1      43.605 -15.172   5.941  1.00  0.00     0.160 C 
ENDROOT
BRANCH   2   6
HETATM    6  N   UNL     1      42.593 -15.129   2.542  1.00  0.00    -0.306 N 
HETATM    7  C   UNL     1      41.216 -15.280   2.182  1.00  0.00     0.257 C 
HETATM    8  O   UNL     1      40.507 -15.998   2.865  1.00  0.00    -0.267 OA
HETATM    9  H   UNL     1      43.299 -14.992   1.820  1.00  0.00     0.170 HD
BRANCH   7  10
HETATM   10  C   UNL     1      40.733 -14.572   0.966  1.00  0.00     0.032 A 
HETATM   11  C   UNL     1      39.876 -15.171   0.031  1.00  0.00     0.018 A 
HETATM   12  C   UNL     1      39.499 -14.472  -1.123  1.00  0.00     0.020 A 
HETATM   13  C   UNL     1      39.985 -13.185  -1.350  1.00  0.00     0.011 A 
HETATM   14 BR   UNL     1      39.488 -12.259  -2.918  1.00  0.00    -0.051 Br
HETATM   15  C   UNL     1      40.842 -12.584  -0.431  1.00  0.00     0.020 A 
HETATM   16  C   UNL     1      41.214 -13.275   0.726  1.00  0.00     0.018 A 
ENDBRANCH   7  10
ENDBRANCH   2   6
BRANCH   1  17
HETATM   17  C   UNL     1      42.772 -13.075   4.646  1.00  0.00     0.259 C 
HETATM   18  N   UNL     1      41.425 -12.712   4.526  1.00  0.00    -0.345 N 
HETATM   19  C   UNL     1      41.129 -11.305   4.213  1.00  0.00     0.154 C 
HETATM   20  C   UNL     1      40.309 -13.413   5.185  1.00  0.00     0.154 C 
HETATM   21  C   UNL     1      40.741 -10.522   5.482  1.00  0.00     0.254 C 
HETATM   22  N   UNL     1      39.562 -11.216   6.169  1.00  0.00    -0.072 N 
HETATM   23  C   UNL     1      39.117 -10.480   7.403  1.00  0.00     0.269 C 
HETATM   24  H   UNL     1      38.769 -11.190   5.514  1.00  0.00     0.279 HD
HETATM   25  C   UNL     1      39.862 -12.679   6.467  1.00  0.00     0.254 C 
HETATM   26  O   UNL     1      43.658 -12.216   4.655  1.00  0.00    -0.267 OA
ENDBRANCH   1  17
BRANCH   3  27
HETATM   27  C   UNL     1      43.575 -17.948   3.861  1.00  0.00     0.060 A 
HETATM   28  C   UNL     1      43.172 -18.241   2.553  1.00  0.00     0.031 A 
HETATM   29  C   UNL     1      43.248 -19.553   2.078  1.00  0.00     0.002 A 
HETATM   30  C   UNL     1      43.701 -20.577   2.908  1.00  0.00     0.000 A 
HETATM   31  C   UNL     1      44.055 -20.300   4.227  1.00  0.00     0.002 A 
HETATM   32  C   UNL     1      43.983 -18.992   4.708  1.00  0.00     0.031 A 
ENDBRANCH   3  27
TORSDOF 4
ENDMDL
MODEL 3
REMARK VINA RESULT:      -9.1      1.529      6.401
REMARK  4 active torsions:
REMARK  status: ('A' for Active; 'I' for Inactive)
REMARK       I    between atoms: N_6  and  C_7 
REMARK    1  A    between atoms: C_7  and  C_8 
REMARK    2  A    between atoms: C_9  and  N_10 
REMARK       I    between atoms: N_10  and  C_11 
REMARK    3  A    between atoms: C_11  and  C_12 
REMARK    4  A    between atoms: N_20  and  C_21 
ROOT
HETATM    1  C   UNL     1      42.341 -12.512   3.069  1.00  0.00     0.097 C 
HETATM    2  C   UNL     1      43.125 -12.746   4.193  1.00  0.00     0.149 C 
HETATM    3  N   UNL     1      43.371 -11.500   4.783  1.00  0.00    -0.217 N 
HETATM    4  N   UNL     1      42.828 -10.504   4.026  1.00  0.00    -0.177 NA
HETATM    5  C   UNL     1      42.102 -11.129   3.105  1.00  0.00     0.160 C 
ENDROOT
BRANCH   2   6
HETATM    6  N   UNL     1      43.546 -14.035   4.538  1.00  0.00    -0.306 N 
HETATM    7  C   UNL     1      42.795 -14.868   5.428  1.00  0.00     0.257 C 
HETATM    8  O   UNL     1      41.977 -14.350   6.165  1.00  0.00    -0.267 OA
HETATM    9  H   UNL     1      44.505 -14.278   4.295  1.00  0.00     0.170 HD
BRANCH   7  10
HETATM   10  C   UNL     1      43.085 -16.328   5.423  1.00  0.00     0.032 A 
HETATM   11  C   UNL     1      42.987 -17.122   6.575  1.00  0.00     0.018 A 
HETATM   12  C   UNL     1      43.325 -18.480   6.521  1.00  0.00     0.020 A 
HETATM   13  C   UNL     1      43.771 -19.041   5.325  1.00  0.00     0.011 A 
HETATM   14 BR   UNL     1      44.245 -20.868   5.266  1.00  0.00    -0.051 Br
HETATM   15  C   UNL     1      43.879 -18.259   4.178  1.00  0.00     0.020 A 
HETATM   16  C   UNL     1      43.534 -16.905   4.226  1.00  0.00     0.018 A 
ENDBRANCH   7  10
ENDBRANCH   2   6
BRANCH   1  17
HETATM   17  C   UNL     1      41.910 -13.537   2.138  1.00  0.00     0.259 C 
HETATM   18  N   UNL     1      40.546 -13.733   1.893  1.00  0.00    -0.345 N 
HETATM   19  C   UNL     1      40.168 -14.875   1.047  1.00  0.00     0.154 C 
HETATM   20  C   UNL     1      39.530 -12.665   1.923  1.00  0.00     0.154 C 
HETATM   21  C   UNL     1      39.885 -14.427  -0.400  1.00  0.00     0.254 C 
HETATM   22  N   UNL     1      38.810 -13.338  -0.396  1.00  0.00    -0.072 N 
HETATM   23  C   UNL     1      38.468 -12.879  -1.787  1.00  0.00     0.269 C 
HETATM   24  H   UNL     1      37.952 -13.757  -0.010  1.00  0.00     0.279 HD
HETATM   25  C   UNL     1      39.192 -12.168   0.502  1.00  0.00     0.254 C 
HETATM   26  O   UNL     1      42.760 -14.196   1.534  1.00  0.00    -0.267 OA
ENDBRANCH   1  17
BRANCH   3  27
HETATM   27  C   UNL     1      43.975 -11.161   6.025  1.00  0.00     0.060 A 
HETATM   28  C   UNL     1      43.217 -10.756   7.130  1.00  0.00     0.031 A 
HETATM   29  C   UNL     1      43.850 -10.480   8.345  1.00  0.00     0.002 A 
HETATM   30  C   UNL     1      45.235 -10.582   8.456  1.00  0.00     0.000 A 
HETATM   31  C   UNL     1      46.000 -10.935   7.346  1.00  0.00     0.002 A 
HETATM   32  C   UNL     1      45.375 -11.213   6.130  1.00  0.00     0.031 A 
ENDBRANCH   3  27
TORSDOF 4
ENDMDL
MODEL 4
REMARK VINA RESULT:      -9.1      2.817      5.772
REMARK  4 active torsions:
REMARK  status: ('A' for Active; 'I' for Inactive)
REMARK       I    between atoms: N_6  and  C_7 
REMARK    1  A    between atoms: C_7  and  C_8 
REMARK    2  A    between atoms: C_9  and  N_10 
REMARK       I    between atoms: N_10  and  C_11 
REMARK    3  A    between atoms: C_11  and  C_12 
REMARK    4  A    between atoms: N_20  and  C_21 
ROOT
HETATM    1  C   UNL     1      41.492 -13.993   5.959  1.00  0.00     0.097 C 
HETATM    2  C   UNL     1      41.659 -14.735   4.796  1.00  0.00     0.149 C 
HETATM    3  N   UNL     1      42.630 -15.707   5.070  1.00  0.00    -0.217 N 
HETATM    4  N   UNL     1      43.114 -15.546   6.335  1.00  0.00    -0.177 NA
HETATM    5  C   UNL     1      42.329 -14.629   6.889  1.00  0.00     0.160 C 
ENDROOT
BRANCH   2   6
HETATM    6  N   UNL     1      40.949 -14.438   3.628  1.00  0.00    -0.306 N 
HETATM    7  C   UNL     1      41.580 -13.860   2.479  1.00  0.00     0.257 C 
HETATM    8  O   UNL     1      42.651 -13.300   2.620  1.00  0.00    -0.267 OA
HETATM    9  H   UNL     1      39.933 -14.458   3.698  1.00  0.00     0.170 HD
BRANCH   7  10
HETATM   10  C   UNL     1      40.867 -13.951   1.176  1.00  0.00     0.032 A 
HETATM   11  C   UNL     1      40.178 -15.102   0.769  1.00  0.00     0.018 A 
HETATM   12  C   UNL     1      39.571 -15.146  -0.493  1.00  0.00     0.020 A 
HETATM   13  C   UNL     1      39.663 -14.050  -1.350  1.00  0.00     0.011 A 
HETATM   14 BR   UNL     1      38.861 -14.127  -3.058  1.00  0.00    -0.051 Br
HETATM   15  C   UNL     1      40.352 -12.905  -0.958  1.00  0.00     0.020 A 
HETATM   16  C   UNL     1      40.952 -12.854   0.304  1.00  0.00     0.018 A 
ENDBRANCH   7  10
ENDBRANCH   2   6
BRANCH   1  17
HETATM   17  C   UNL     1      40.615 -12.845   6.083  1.00  0.00     0.259 C 
HETATM   18  N   UNL     1      41.156 -11.555   6.159  1.00  0.00    -0.345 N 
HETATM   19  C   UNL     1      40.225 -10.447   6.422  1.00  0.00     0.154 C 
HETATM   20  C   UNL     1      42.400 -11.130   5.493  1.00  0.00     0.154 C 
HETATM   21  C   UNL     1      39.856  -9.709   5.121  1.00  0.00     0.254 C 
HETATM   22  N   UNL     1      41.133  -9.231   4.426  1.00  0.00    -0.072 N 
HETATM   23  C   UNL     1      40.836  -8.474   3.160  1.00  0.00     0.269 C 
HETATM   24  H   UNL     1      41.595  -8.564   5.060  1.00  0.00     0.279 HD
HETATM   25  C   UNL     1      42.106 -10.376   4.179  1.00  0.00     0.254 C 
HETATM   26  O   UNL     1      39.394 -13.016   6.072  1.00  0.00    -0.267 OA
ENDBRANCH   1  17
BRANCH   3  27
HETATM   27  C   UNL     1      43.072 -16.822   4.306  1.00  0.00     0.060 A 
HETATM   28  C   UNL     1      42.558 -17.097   3.033  1.00  0.00     0.031 A 
HETATM   29  C   UNL     1      43.059 -18.177   2.299  1.00  0.00     0.002 A 
HETATM   30  C   UNL     1      44.049 -18.996   2.839  1.00  0.00     0.000 A 
HETATM   31  C   UNL     1      44.527 -18.758   4.125  1.00  0.00     0.002 A 
HETATM   32  C   UNL     1      44.034 -17.681   4.863  1.00  0.00     0.031 A 
ENDBRANCH   3  27
TORSDOF 4
ENDMDL
MODEL 5
REMARK VINA RESULT:      -8.8      2.742      7.077
REMARK  4 active torsions:
REMARK  status: ('A' for Active; 'I' for Inactive)
REMARK       I    between atoms: N_6  and  C_7 
REMARK    1  A    between atoms: C_7  and  C_8 
REMARK    2  A    between atoms: C_9  and  N_10 
REMARK       I    between atoms: N_10  and  C_11 
REMARK    3  A    between atoms: C_11  and  C_12 
REMARK    4  A    between atoms: N_20  and  C_21 
ROOT
HETATM    1  C   UNL     1      40.167 -14.397   2.046  1.00  0.00     0.097 C 
HETATM    2  C   UNL     1      41.226 -14.664   2.905  1.00  0.00     0.149 C 
HETATM    3  N   UNL     1      41.450 -16.046   2.856  1.00  0.00    -0.217 N 
HETATM    4  N   UNL     1      40.525 -16.645   2.053  1.00  0.00    -0.177 NA
HETATM    5  C   UNL     1      39.874 -15.644   1.472  1.00  0.00     0.160 C 
ENDROOT
BRANCH   2   6
HETATM    6  N   UNL     1      41.842 -13.651   3.647  1.00  0.00    -0.306 N 
HETATM    7  C   UNL     1      41.499 -13.390   5.013  1.00  0.00     0.257 C 
HETATM    8  O   UNL     1      40.436 -13.804   5.438  1.00  0.00    -0.267 OA
HETATM    9  H   UNL     1      42.395 -12.976   3.120  1.00  0.00     0.170 HD
BRANCH   7  10
HETATM   10  C   UNL     1      42.455 -12.595   5.830  1.00  0.00     0.032 A 
HETATM   11  C   UNL     1      42.186 -11.282   6.244  1.00  0.00     0.018 A 
HETATM   12  C   UNL     1      43.147 -10.564   6.967  1.00  0.00     0.020 A 
HETATM   13  C   UNL     1      44.377 -11.149   7.264  1.00  0.00     0.011 A 
HETATM   14 BR   UNL     1      45.675 -10.166   8.220  1.00  0.00    -0.051 Br
HETATM   15  C   UNL     1      44.657 -12.450   6.851  1.00  0.00     0.020 A 
HETATM   16  C   UNL     1      43.696 -13.172   6.137  1.00  0.00     0.018 A 
ENDBRANCH   7  10
ENDBRANCH   2   6
BRANCH   1  17
HETATM   17  C   UNL     1      39.577 -13.087   1.849  1.00  0.00     0.259 C 
HETATM   18  N   UNL     1      39.848 -12.364   0.680  1.00  0.00    -0.345 N 
HETATM   19  C   UNL     1      39.333 -10.989   0.601  1.00  0.00     0.154 C 
HETATM   20  C   UNL     1      40.099 -12.973  -0.638  1.00  0.00     0.154 C 
HETATM   21  C   UNL     1      38.032 -10.928  -0.221  1.00  0.00     0.254 C 
HETATM   22  N   UNL     1      38.276 -11.528  -1.608  1.00  0.00    -0.072 N 
HETATM   23  C   UNL     1      37.046 -11.470  -2.472  1.00  0.00     0.269 C 
HETATM   24  H   UNL     1      38.984 -10.943  -2.073  1.00  0.00     0.279 HD
HETATM   25  C   UNL     1      38.834 -12.942  -1.523  1.00  0.00     0.254 C 
HETATM   26  O   UNL     1      38.800 -12.643   2.699  1.00  0.00    -0.267 OA
ENDBRANCH   1  17
BRANCH   3  27
HETATM   27  C   UNL     1      42.496 -16.839   3.403  1.00  0.00     0.060 A 
HETATM   28  C   UNL     1      42.932 -16.679   4.724  1.00  0.00     0.031 A 
HETATM   29  C   UNL     1      43.931 -17.515   5.233  1.00  0.00     0.002 A 
HETATM   30  C   UNL     1      44.512 -18.490   4.424  1.00  0.00     0.000 A 
HETATM   31  C   UNL     1      44.119 -18.618   3.095  1.00  0.00     0.002 A 
HETATM   32  C   UNL     1      43.122 -17.789   2.579  1.00  0.00     0.031 A 
ENDBRANCH   3  27
TORSDOF 4
ENDMDL
MODEL 6
REMARK VINA RESULT:      -8.7      1.730      6.200
REMARK  4 active torsions:
REMARK  status: ('A' for Active; 'I' for Inactive)
REMARK       I    between atoms: N_6  and  C_7 
REMARK    1  A    between atoms: C_7  and  C_8 
REMARK    2  A    between atoms: C_9  and  N_10 
REMARK       I    between atoms: N_10  and  C_11 
REMARK    3  A    between atoms: C_11  and  C_12 
REMARK    4  A    between atoms: N_20  and  C_21 
ROOT
HETATM    1  C   UNL     1      40.912 -11.622   3.373  1.00  0.00     0.097 C 
HETATM    2  C   UNL     1      42.087 -12.072   3.962  1.00  0.00     0.149 C 
HETATM    3  N   UNL     1      42.500 -11.077   4.858  1.00  0.00    -0.217 N 
HETATM    4  N   UNL     1      41.660 -10.004   4.790  1.00  0.00    -0.177 NA
HETATM    5  C   UNL     1      40.653 -10.404   4.021  1.00  0.00     0.160 C 
ENDROOT
BRANCH   2   6
HETATM    6  N   UNL     1      42.662 -13.298   3.610  1.00  0.00    -0.306 N 
HETATM    7  C   UNL     1      42.600 -14.442   4.469  1.00  0.00     0.257 C 
HETATM    8  O   UNL     1      42.361 -14.275   5.651  1.00  0.00    -0.267 OA
HETATM    9  H   UNL     1      43.299 -13.288   2.815  1.00  0.00     0.170 HD
BRANCH   7  10
HETATM   10  C   UNL     1      42.867 -15.777   3.868  1.00  0.00     0.032 A 
HETATM   11  C   UNL     1      42.326 -16.174   2.636  1.00  0.00     0.018 A 
HETATM   12  C   UNL     1      42.570 -17.464   2.147  1.00  0.00     0.020 A 
HETATM   13  C   UNL     1      43.339 -18.359   2.890  1.00  0.00     0.011 A 
HETATM   14 BR   UNL     1      43.644 -20.102   2.233  1.00  0.00    -0.051 Br
HETATM   15  C   UNL     1      43.873 -17.976   4.118  1.00  0.00     0.020 A 
HETATM   16  C   UNL     1      43.640 -16.687   4.606  1.00  0.00     0.018 A 
ENDBRANCH   7  10
ENDBRANCH   2   6
BRANCH   1  17
HETATM   17  C   UNL     1      40.187 -12.332   2.337  1.00  0.00     0.259 C 
HETATM   18  N   UNL     1      39.740 -11.648   1.199  1.00  0.00    -0.345 N 
HETATM   19  C   UNL     1      38.894 -12.391   0.253  1.00  0.00     0.154 C 
HETATM   20  C   UNL     1      40.434 -10.501   0.588  1.00  0.00     0.154 C 
HETATM   21  C   UNL     1      39.714 -12.899  -0.948  1.00  0.00     0.254 C 
HETATM   22  N   UNL     1      40.422 -11.718  -1.618  1.00  0.00    -0.072 N 
HETATM   23  C   UNL     1      41.218 -12.148  -2.820  1.00  0.00     0.269 C 
HETATM   24  H   UNL     1      39.690 -11.083  -1.967  1.00  0.00     0.279 HD
HETATM   25  C   UNL     1      41.276 -10.935  -0.630  1.00  0.00     0.254 C 
HETATM   26  O   UNL     1      40.013 -13.548   2.450  1.00  0.00    -0.267 OA
ENDBRANCH   1  17
BRANCH   3  27
HETATM   27  C   UNL     1      43.534 -11.073   5.833  1.00  0.00     0.060 A 
HETATM   28  C   UNL     1      44.853 -11.421   5.514  1.00  0.00     0.031 A 
HETATM   29  C   UNL     1      45.847 -11.356   6.495  1.00  0.00     0.002 A 
HETATM   30  C   UNL     1      45.527 -10.971   7.796  1.00  0.00     0.000 A 
HETATM   31  C   UNL     1      44.208 -10.674   8.132  1.00  0.00     0.002 A 
HETATM   32  C   UNL     1      43.211 -10.735   7.158  1.00  0.00     0.031 A 
ENDBRANCH   3  27
TORSDOF 4
ENDMDL
MODEL 7
REMARK VINA RESULT:      -8.2      3.037      6.278
REMARK  4 active torsions:
REMARK  status: ('A' for Active; 'I' for Inactive)
REMARK       I    between atoms: N_6  and  C_7 
REMARK    1  A    between atoms: C_7  and  C_8 
REMARK    2  A    between atoms: C_9  and  N_10 
REMARK       I    between atoms: N_10  and  C_11 
REMARK    3  A    between atoms: C_11  and  C_12 
REMARK    4  A    between atoms: N_20  and  C_21 
ROOT
HETATM    1  C   UNL     1      43.027 -13.012   5.409  1.00  0.00     0.097 C 
HETATM    2  C   UNL     1      43.054 -14.229   4.739  1.00  0.00     0.149 C 
HETATM    3  N   UNL     1      43.536 -15.181   5.647  1.00  0.00    -0.217 N 
HETATM    4  N   UNL     1      43.870 -14.582   6.825  1.00  0.00    -0.177 NA
HETATM    5  C   UNL     1      43.427 -13.335   6.715  1.00  0.00     0.160 C 
ENDROOT
BRANCH   2   6
HETATM    6  N   UNL     1      42.674 -14.336   3.397  1.00  0.00    -0.306 N 
HETATM    7  C   UNL     1      41.326 -14.620   3.008  1.00  0.00     0.257 C 
HETATM    8  O   UNL     1      40.572 -15.116   3.826  1.00  0.00    -0.267 OA
HETATM    9  H   UNL     1      43.429 -14.407   2.717  1.00  0.00     0.170 HD
BRANCH   7  10
HETATM   10  C   UNL     1      40.930 -14.323   1.605  1.00  0.00     0.032 A 
HETATM   11  C   UNL     1      41.215 -13.099   0.982  1.00  0.00     0.018 A 
HETATM   12  C   UNL     1      40.769 -12.856  -0.324  1.00  0.00     0.020 A 
HETATM   13  C   UNL     1      40.031 -13.826  -1.000  1.00  0.00     0.011 A 
HETATM   14 BR   UNL     1      39.415 -13.482  -2.752  1.00  0.00    -0.051 Br
HETATM   15  C   UNL     1      39.736 -15.042  -0.387  1.00  0.00     0.020 A 
HETATM   16  C   UNL     1      40.186 -15.291   0.913  1.00  0.00     0.018 A 
ENDBRANCH   7  10
ENDBRANCH   2   6
BRANCH   1  17
HETATM   17  C   UNL     1      42.646 -11.749   4.806  1.00  0.00     0.259 C 
HETATM   18  N   UNL     1      41.293 -11.404   4.699  1.00  0.00    -0.345 N 
HETATM   19  C   UNL     1      40.965 -10.177   3.957  1.00  0.00     0.154 C 
HETATM   20  C   UNL     1      40.250 -11.802   5.662  1.00  0.00     0.154 C 
HETATM   21  C   UNL     1      40.707  -8.998   4.915  1.00  0.00     0.254 C 
HETATM   22  N   UNL     1      39.605  -9.378   5.907  1.00  0.00    -0.072 N 
HETATM   23  C   UNL     1      39.287  -8.253   6.853  1.00  0.00     0.269 C 
HETATM   24  H   UNL     1      38.749  -9.549   5.361  1.00  0.00     0.279 HD
HETATM   25  C   UNL     1      39.935 -10.663   6.655  1.00  0.00     0.254 C 
HETATM   26  O   UNL     1      43.526 -10.968   4.436  1.00  0.00    -0.267 OA
ENDBRANCH   1  17
BRANCH   3  27
HETATM   27  C   UNL     1      43.619 -16.597   5.553  1.00  0.00     0.060 A 
HETATM   28  C   UNL     1      43.373 -17.428   6.653  1.00  0.00     0.031 A 
HETATM   29  C   UNL     1      43.419 -18.817   6.501  1.00  0.00     0.002 A 
HETATM   30  C   UNL     1      43.732 -19.379   5.265  1.00  0.00     0.000 A 
HETATM   31  C   UNL     1      44.029 -18.558   4.180  1.00  0.00     0.002 A 
HETATM   32  C   UNL     1      43.984 -17.171   4.324  1.00  0.00     0.031 A 
ENDBRANCH   3  27
TORSDOF 4
ENDMDL
MODEL 8
REMARK VINA RESULT:      -8.2      3.166      6.123
REMARK  4 active torsions:
REMARK  status: ('A' for Active; 'I' for Inactive)
REMARK       I    between atoms: N_6  and  C_7 
REMARK    1  A    between atoms: C_7  and  C_8 
REMARK    2  A    between atoms: C_9  and  N_10 
REMARK       I    between atoms: N_10  and  C_11 
REMARK    3  A    between atoms: C_11  and  C_12 
REMARK    4  A    between atoms: N_20  and  C_21 
ROOT
HETATM    1  C   UNL     1      40.623 -13.007   2.975  1.00  0.00     0.097 C 
HETATM    2  C   UNL     1      41.561 -13.774   3.655  1.00  0.00     0.149 C 
HETATM    3  N   UNL     1      41.493 -15.067   3.119  1.00  0.00    -0.217 N 
HETATM    4  N   UNL     1      40.503 -15.139   2.184  1.00  0.00    -0.177 NA
HETATM    5  C   UNL     1      40.103 -13.884   2.010  1.00  0.00     0.160 C 
ENDROOT
BRANCH   2   6
HETATM    6  N   UNL     1      42.340 -13.238   4.685  1.00  0.00    -0.306 N 
HETATM    7  C   UNL     1      43.436 -12.353   4.430  1.00  0.00     0.257 C 
HETATM    8  O   UNL     1      43.925 -12.334   3.315  1.00  0.00    -0.267 OA
HETATM    9  H   UNL     1      42.225 -13.659   5.606  1.00  0.00     0.170 HD
BRANCH   7  10
HETATM   10  C   UNL     1      43.941 -11.528   5.560  1.00  0.00     0.032 A 
HETATM   11  C   UNL     1      45.277 -11.564   5.986  1.00  0.00     0.018 A 
HETATM   12  C   UNL     1      45.682 -10.804   7.091  1.00  0.00     0.020 A 
HETATM   13  C   UNL     1      44.755 -10.019   7.775  1.00  0.00     0.011 A 
HETATM   14 BR   UNL     1      45.304  -9.014   9.276  1.00  0.00    -0.051 Br
HETATM   15  C   UNL     1      43.424  -9.982   7.364  1.00  0.00     0.020 A 
HETATM   16  C   UNL     1      43.018 -10.733   6.257  1.00  0.00     0.018 A 
ENDBRANCH   7  10
ENDBRANCH   2   6
BRANCH   1  17
HETATM   17  C   UNL     1      40.330 -11.617   3.266  1.00  0.00     0.259 C 
HETATM   18  N   UNL     1      39.295 -11.288   4.149  1.00  0.00    -0.345 N 
HETATM   19  C   UNL     1      38.959  -9.864   4.296  1.00  0.00     0.154 C 
HETATM   20  C   UNL     1      38.891 -12.108   5.305  1.00  0.00     0.154 C 
HETATM   21  C   UNL     1      39.599  -9.269   5.565  1.00  0.00     0.254 C 
HETATM   22  N   UNL     1      39.169 -10.087   6.785  1.00  0.00    -0.072 N 
HETATM   23  C   UNL     1      39.740  -9.535   8.063  1.00  0.00     0.269 C 
HETATM   24  H   UNL     1      38.146 -10.002   6.864  1.00  0.00     0.279 HD
HETATM   25  C   UNL     1      39.494 -11.565   6.618  1.00  0.00     0.254 C 
HETATM   26  O   UNL     1      41.035 -10.736   2.765  1.00  0.00    -0.267 OA
ENDBRANCH   1  17
BRANCH   3  27
HETATM   27  C   UNL     1      42.323 -16.203   3.323  1.00  0.00     0.060 A 
HETATM   28  C   UNL     1      42.946 -16.453   4.552  1.00  0.00     0.031 A 
HETATM   29  C   UNL     1      43.714 -17.609   4.720  1.00  0.00     0.002 A 
HETATM   30  C   UNL     1      43.883 -18.502   3.664  1.00  0.00     0.000 A 
HETATM   31  C   UNL     1      43.308 -18.233   2.424  1.00  0.00     0.002 A 
HETATM   32  C   UNL     1      42.539 -17.082   2.249  1.00  0.00     0.031 A 
ENDBRANCH   3  27
TORSDOF 4
ENDMDL
MODEL 9
REMARK VINA RESULT:      -7.9      2.915      6.443
REMARK  4 active torsions:
REMARK  status: ('A' for Active; 'I' for Inactive)
REMARK       I    between atoms: N_6  and  C_7 
REMARK    1  A    between atoms: C_7  and  C_8 
REMARK    2  A    between atoms: C_9  and  N_10 
REMARK       I    between atoms: N_10  and  C_11 
REMARK    3  A    between atoms: C_11  and  C_12 
REMARK    4  A    between atoms: N_20  and  C_21 
ROOT
HETATM    1  C   UNL     1      41.127 -12.772   1.030  1.00  0.00     0.097 C 
HETATM    2  C   UNL     1      41.803 -13.342   2.102  1.00  0.00     0.149 C 
HETATM    3  N   UNL     1      41.679 -14.731   1.968  1.00  0.00    -0.217 N 
HETATM    4  N   UNL     1      40.895 -15.033   0.893  1.00  0.00    -0.177 NA
HETATM    5  C   UNL     1      40.703 -13.874   0.271  1.00  0.00     0.160 C 
ENDROOT
BRANCH   2   6
HETATM    6  N   UNL     1      42.421 -12.557   3.081  1.00  0.00    -0.306 N 
HETATM    7  C   UNL     1      41.845 -12.362   4.377  1.00  0.00     0.257 C 
HETATM    8  O   UNL     1      40.656 -12.580   4.528  1.00  0.00    -0.267 OA
HETATM    9  H   UNL     1      43.191 -11.967   2.769  1.00  0.00     0.170 HD
BRANCH   7  10
HETATM   10  C   UNL     1      42.731 -11.867   5.465  1.00  0.00     0.032 A 
HETATM   11  C   UNL     1      43.845 -12.588   5.920  1.00  0.00     0.018 A 
HETATM   12  C   UNL     1      44.611 -12.097   6.985  1.00  0.00     0.020 A 
HETATM   13  C   UNL     1      44.260 -10.896   7.601  1.00  0.00     0.011 A 
HETATM   14 BR   UNL     1      45.286 -10.252   9.049  1.00  0.00    -0.051 Br
HETATM   15  C   UNL     1      43.151 -10.177   7.161  1.00  0.00     0.020 A 
HETATM   16  C   UNL     1      42.389 -10.660   6.093  1.00  0.00     0.018 A 
ENDBRANCH   7  10
ENDBRANCH   2   6
BRANCH   1  17
HETATM   17  C   UNL     1      40.963 -11.346   0.826  1.00  0.00     0.259 C 
HETATM   18  N   UNL     1      39.683 -10.777   0.840  1.00  0.00    -0.345 N 
HETATM   19  C   UNL     1      39.572  -9.353   0.491  1.00  0.00     0.154 C 
HETATM   20  C   UNL     1      38.560 -11.270   1.657  1.00  0.00     0.154 C 
HETATM   21  C   UNL     1      39.464  -8.477   1.753  1.00  0.00     0.254 C 
HETATM   22  N   UNL     1      38.284  -8.951   2.605  1.00  0.00    -0.072 N 
HETATM   23  C   UNL     1      38.108  -8.113   3.841  1.00  0.00     0.269 C 
HETATM   24  H   UNL     1      37.431  -8.821   2.043  1.00  0.00     0.279 HD
HETATM   25  C   UNL     1      38.388 -10.433   2.942  1.00  0.00     0.254 C 
HETATM   26  O   UNL     1      41.965 -10.639   0.689  1.00  0.00    -0.267 OA
ENDBRANCH   1  17
BRANCH   3  27
HETATM   27  C   UNL     1      42.298 -15.794   2.681  1.00  0.00     0.060 A 
HETATM   28  C   UNL     1      43.073 -16.765   2.036  1.00  0.00     0.031 A 
HETATM   29  C   UNL     1      43.702 -17.764   2.786  1.00  0.00     0.002 A 
HETATM   30  C   UNL     1      43.541 -17.812   4.169  1.00  0.00     0.000 A 
HETATM   31  C   UNL     1      42.730 -16.880   4.810  1.00  0.00     0.002 A 
HETATM   32  C   UNL     1      42.099 -15.879   4.069  1.00  0.00     0.031 A 
ENDBRANCH   3  27
TORSDOF 4
ENDMDL
MODEL 10
REMARK VINA RESULT:      -7.7     15.777     18.143
REMARK  4 active torsions:
REMARK  status: ('A' for Active; 'I' for Inactive)
REMARK       I    between atoms: N_6  and  C_7 
REMARK    1  A    between atoms: C_7  and  C_8 
REMARK    2  A    between atoms: C_9  and  N_10 
REMARK       I    between atoms: N_10  and  C_11 
REMARK    3  A    between atoms: C_11  and  C_12 
REMARK    4  A    between atoms: N_20  and  C_21 
ROOT
HETATM    1  C   UNL     1      47.012 -29.611   1.996  1.00  0.00     0.097 C 
HETATM    2  C   UNL     1      46.988 -29.889   0.634  1.00  0.00     0.149 C 
HETATM    3  N   UNL     1      45.752 -29.443   0.150  1.00  0.00    -0.217 N 
HETATM    4  N   UNL     1      44.989 -28.965   1.175  1.00  0.00    -0.177 NA
HETATM    5  C   UNL     1      45.802 -28.936   2.225  1.00  0.00     0.160 C 
ENDROOT
BRANCH   2   6
HETATM    6  N   UNL     1      48.056 -30.530  -0.002  1.00  0.00    -0.306 N 
HETATM    7  C   UNL     1      49.083 -29.803  -0.685  1.00  0.00     0.257 C 
HETATM    8  O   UNL     1      48.860 -28.654  -1.024  1.00  0.00    -0.267 OA
HETATM    9  H   UNL     1      47.966 -31.536  -0.135  1.00  0.00     0.170 HD
BRANCH   7  10
HETATM   10  C   UNL     1      50.360 -30.509  -0.975  1.00  0.00     0.032 A 
HETATM   11  C   UNL     1      51.037 -30.379  -2.197  1.00  0.00     0.018 A 
HETATM   12  C   UNL     1      52.207 -31.111  -2.431  1.00  0.00     0.020 A 
HETATM   13  C   UNL     1      52.695 -31.979  -1.455  1.00  0.00     0.011 A 
HETATM   14 BR   UNL     1      54.262 -32.979  -1.788  1.00  0.00    -0.051 Br
HETATM   15  C   UNL     1      52.026 -32.121  -0.242  1.00  0.00     0.020 A 
HETATM   16  C   UNL     1      50.862 -31.385  -0.001  1.00  0.00     0.018 A 
ENDBRANCH   7  10
ENDBRANCH   2   6
BRANCH   1  17
HETATM   17  C   UNL     1      48.096 -29.969   2.890  1.00  0.00     0.259 C 
HETATM   18  N   UNL     1      48.072 -31.195   3.566  1.00  0.00    -0.345 N 
HETATM   19  C   UNL     1      49.127 -31.440   4.560  1.00  0.00     0.154 C 
HETATM   20  C   UNL     1      47.471 -32.431   3.034  1.00  0.00     0.154 C 
HETATM   21  C   UNL     1      50.251 -32.317   3.976  1.00  0.00     0.254 C 
HETATM   22  N   UNL     1      49.654 -33.622   3.443  1.00  0.00    -0.072 N 
HETATM   23  C   UNL     1      50.709 -34.537   2.884  1.00  0.00     0.269 C 
HETATM   24  H   UNL     1      49.236 -34.116   4.244  1.00  0.00     0.279 HD
HETATM   25  C   UNL     1      48.543 -33.365   2.433  1.00  0.00     0.254 C 
HETATM   26  O   UNL     1      49.057 -29.204   3.007  1.00  0.00    -0.267 OA
ENDBRANCH   1  17
BRANCH   3  27
HETATM   27  C   UNL     1      45.259 -29.330  -1.178  1.00  0.00     0.060 A 
HETATM   28  C   UNL     1      45.540 -28.217  -1.980  1.00  0.00     0.031 A 
HETATM   29  C   UNL     1      45.073 -28.172  -3.297  1.00  0.00     0.002 A 
HETATM   30  C   UNL     1      44.309 -29.219  -3.809  1.00  0.00     0.000 A 
HETATM   31  C   UNL     1      43.983 -30.305  -3.000  1.00  0.00     0.002 A 
HETATM   32  C   UNL     1      44.446 -30.357  -1.685  1.00  0.00     0.031 A 
ENDBRANCH   3  27
TORSDOF 4
ENDMDL
