MODEL 1
REMARK VINA RESULT:      -9.5      0.000      0.000
REMARK  8 active torsions:
REMARK  status: ('A' for Active; 'I' for Inactive)
REMARK    1  A    between atoms: C_4  and  S_5 
REMARK    2  A    between atoms: S_5  and  C_6 
REMARK    3  A    between atoms: C_6  and  C_7 
REMARK       I    between atoms: C_7  and  N_8 
REMARK    4  A    between atoms: N_8  and  C_9 
REMARK    5  A    between atoms: C_20  and  C_21 
REMARK    6  A    between atoms: C_27  and  C_28 
REMARK       I    between atoms: C_28  and  N_29 
REMARK    7  A    between atoms: N_29  and  C_30 
REMARK    8  A    between atoms: C_31  and  O_32 
ROOT
HETATM    1  C   UNL     1      39.709 -15.586   1.731  1.00  0.00     0.069 C 
HETATM    2  C   UNL     1      39.848 -14.413   2.675  1.00  0.00     0.019 A 
HETATM    3  N   UNL     1      39.157 -13.276   2.301  1.00  0.00    -0.353 N 
HETATM    4  C   UNL     1      39.145 -12.075   2.976  1.00  0.00     0.087 A 
HETATM    5  C   UNL     1      39.815 -11.975   4.144  1.00  0.00     0.055 A 
HETATM    6  C   UNL     1      39.986 -10.660   4.887  1.00  0.00     0.019 C 
HETATM    7  N   UNL     1      40.128  -9.569   5.502  1.00  0.00    -0.096 N 
HETATM    8  C   UNL     1      40.649 -13.162   4.689  1.00  0.00     0.104 A 
HETATM    9  C   UNL     1      40.594 -14.418   3.810  1.00  0.00     0.046 A 
HETATM   10  H   UNL     1      38.514 -13.348   1.517  1.00  0.00     0.166 HD
ENDROOT
BRANCH   4  11
HETATM   11  S   UNL     1      38.245 -10.745   2.288  1.00  0.00    -0.102 SA
BRANCH  11  12
HETATM   12  C   UNL     1      39.315 -10.101   0.969  1.00  0.00     0.184 C 
BRANCH  12  13
HETATM   13  C   UNL     1      39.551 -11.035  -0.204  1.00  0.00     0.231 C 
HETATM   14  N   UNL     1      38.517 -11.926  -0.428  1.00  0.00    -0.325 N 
HETATM   15  H   UNL     1      37.802 -11.998   0.288  1.00  0.00     0.169 HD
HETATM   16  O   UNL     1      40.583 -10.958  -0.863  1.00  0.00    -0.272 OA
BRANCH  14  17
HETATM   17  C   UNL     1      38.435 -12.902  -1.454  1.00  0.00     0.056 A 
HETATM   18  C   UNL     1      37.541 -12.687  -2.519  1.00  0.00     0.060 A 
HETATM   19 CL   UNL     1      36.589 -11.243  -2.602  1.00  0.00    -0.082 Cl
HETATM   20  C   UNL     1      37.388 -13.636  -3.535  1.00  0.00     0.026 A 
HETATM   21  C   UNL     1      38.143 -14.808  -3.511  1.00  0.00     0.002 A 
HETATM   22  C   UNL     1      39.054 -15.019  -2.480  1.00  0.00     0.002 A 
HETATM   23  C   UNL     1      39.203 -14.070  -1.463  1.00  0.00     0.031 A 
ENDBRANCH  14  17
ENDBRANCH  12  13
ENDBRANCH  11  12
ENDBRANCH   4  11
BRANCH   8  24
HETATM   24  C   UNL     1      42.069 -12.669   4.990  1.00  0.00    -0.044 A 
HETATM   25  C   UNL     1      42.582 -12.767   6.295  1.00  0.00     0.008 A 
HETATM   26  C   UNL     1      43.848 -12.262   6.600  1.00  0.00     0.001 A 
HETATM   27  C   UNL     1      44.619 -11.666   5.604  1.00  0.00     0.000 A 
HETATM   28  C   UNL     1      44.124 -11.568   4.307  1.00  0.00     0.001 A 
HETATM   29  C   UNL     1      42.856 -12.059   4.002  1.00  0.00     0.008 A 
ENDBRANCH   8  24
BRANCH   9  30
HETATM   30  C   UNL     1      41.222 -15.722   4.226  1.00  0.00     0.255 C 
HETATM   31  N   UNL     1      42.393 -16.072   3.603  1.00  0.00    -0.321 N 
HETATM   32  H   UNL     1      42.946 -15.383   3.110  1.00  0.00     0.169 HD
HETATM   33  O   UNL     1      40.679 -16.408   5.092  1.00  0.00    -0.268 OA
BRANCH  31  34
HETATM   34  C   UNL     1      42.959 -17.367   3.504  1.00  0.00     0.068 A 
HETATM   35  C   UNL     1      43.879 -17.748   4.504  1.00  0.00     0.095 A 
HETATM   36  C   UNL     1      44.545 -18.974   4.404  1.00  0.00     0.039 A 
HETATM   37  C   UNL     1      44.304 -19.816   3.318  1.00  0.00     0.003 A 
HETATM   38  C   UNL     1      43.389 -19.443   2.335  1.00  0.00     0.002 A 
HETATM   39  C   UNL     1      42.714 -18.225   2.429  1.00  0.00     0.032 A 
BRANCH  35  40
HETATM   40  O   UNL     1      44.047 -16.849   5.529  1.00  0.00    -0.354 OA
HETATM   41  C   UNL     1      43.636 -17.260   6.827  1.00  0.00     0.210 C 
ENDBRANCH  35  40
ENDBRANCH  31  34
ENDBRANCH   9  30
TORSDOF 8
ENDMDL
MODEL 2
REMARK VINA RESULT:      -9.3      4.592      8.401
REMARK  8 active torsions:
REMARK  status: ('A' for Active; 'I' for Inactive)
REMARK    1  A    between atoms: C_4  and  S_5 
REMARK    2  A    between atoms: S_5  and  C_6 
REMARK    3  A    between atoms: C_6  and  C_7 
REMARK       I    between atoms: C_7  and  N_8 
REMARK    4  A    between atoms: N_8  and  C_9 
REMARK    5  A    between atoms: C_20  and  C_21 
REMARK    6  A    between atoms: C_27  and  C_28 
REMARK       I    between atoms: C_28  and  N_29 
REMARK    7  A    between atoms: N_29  and  C_30 
REMARK    8  A    between atoms: C_31  and  O_32 
ROOT
HETATM    1  C   UNL     1      43.143 -15.600   8.289  1.00  0.00     0.069 C 
HETATM    2  C   UNL     1      43.125 -14.650   7.113  1.00  0.00     0.019 A 
HETATM    3  N   UNL     1      43.428 -13.337   7.417  1.00  0.00    -0.353 N 
HETATM    4  C   UNL     1      43.453 -12.284   6.530  1.00  0.00     0.087 A 
HETATM    5  C   UNL     1      43.216 -12.525   5.222  1.00  0.00     0.055 A 
HETATM    6  C   UNL     1      43.074 -11.417   4.192  1.00  0.00     0.019 C 
HETATM    7  N   UNL     1      42.956 -10.498   3.337  1.00  0.00    -0.096 N 
HETATM    8  C   UNL     1      42.848 -13.946   4.727  1.00  0.00     0.104 A 
HETATM    9  C   UNL     1      42.826 -15.006   5.836  1.00  0.00     0.046 A 
HETATM   10  H   UNL     1      43.766 -13.132   8.353  1.00  0.00     0.166 HD
ENDROOT
BRANCH   4  11
HETATM   11  S   UNL     1      43.805 -10.687   7.145  1.00  0.00    -0.102 SA
BRANCH  11  12
HETATM   12  C   UNL     1      42.177  -9.943   7.452  1.00  0.00     0.184 C 
BRANCH  12  13
HETATM   13  C   UNL     1      42.065  -9.096   8.706  1.00  0.00     0.231 C 
HETATM   14  N   UNL     1      42.304  -9.792   9.877  1.00  0.00    -0.325 N 
HETATM   15  H   UNL     1      42.353 -10.803   9.814  1.00  0.00     0.169 HD
HETATM   16  O   UNL     1      41.790  -7.902   8.628  1.00  0.00    -0.272 OA
BRANCH  14  17
HETATM   17  C   UNL     1      42.294  -9.275  11.198  1.00  0.00     0.056 A 
HETATM   18  C   UNL     1      41.118  -9.396  11.960  1.00  0.00     0.060 A 
HETATM   19 CL   UNL     1      39.722 -10.197  11.320  1.00  0.00    -0.082 Cl
HETATM   20  C   UNL     1      41.038  -8.866  13.252  1.00  0.00     0.026 A 
HETATM   21  C   UNL     1      42.143  -8.222  13.808  1.00  0.00     0.002 A 
HETATM   22  C   UNL     1      43.323  -8.123  13.077  1.00  0.00     0.002 A 
HETATM   23  C   UNL     1      43.400  -8.651  11.783  1.00  0.00     0.031 A 
ENDBRANCH  14  17
ENDBRANCH  12  13
ENDBRANCH  11  12
ENDBRANCH   4  11
BRANCH   8  24
HETATM   24  C   UNL     1      41.553 -13.865   3.912  1.00  0.00    -0.044 A 
HETATM   25  C   UNL     1      41.545 -14.270   2.565  1.00  0.00     0.008 A 
HETATM   26  C   UNL     1      40.391 -14.139   1.792  1.00  0.00     0.001 A 
HETATM   27  C   UNL     1      39.229 -13.615   2.354  1.00  0.00     0.000 A 
HETATM   28  C   UNL     1      39.222 -13.216   3.688  1.00  0.00     0.001 A 
HETATM   29  C   UNL     1      40.377 -13.332   4.460  1.00  0.00     0.008 A 
ENDBRANCH   8  24
BRANCH   9  30
HETATM   30  C   UNL     1      42.626 -16.471   5.549  1.00  0.00     0.255 C 
HETATM   31  N   UNL     1      43.757 -17.229   5.385  1.00  0.00    -0.321 N 
HETATM   32  H   UNL     1      44.656 -16.899   5.711  1.00  0.00     0.169 HD
HETATM   33  O   UNL     1      41.484 -16.925   5.478  1.00  0.00    -0.268 OA
BRANCH  31  34
HETATM   34  C   UNL     1      43.863 -18.483   4.735  1.00  0.00     0.068 A 
HETATM   35  C   UNL     1      43.855 -18.483   3.324  1.00  0.00     0.095 A 
HETATM   36  C   UNL     1      43.854 -19.697   2.629  1.00  0.00     0.039 A 
HETATM   37  C   UNL     1      43.858 -20.905   3.328  1.00  0.00     0.003 A 
HETATM   38  C   UNL     1      43.874 -20.905   4.721  1.00  0.00     0.002 A 
HETATM   39  C   UNL     1      43.882 -19.699   5.424  1.00  0.00     0.032 A 
BRANCH  35  40
HETATM   40  O   UNL     1      43.849 -17.243   2.732  1.00  0.00    -0.354 OA
HETATM   41  C   UNL     1      42.870 -17.008   1.728  1.00  0.00     0.210 C 
ENDBRANCH  35  40
ENDBRANCH  31  34
ENDBRANCH   9  30
TORSDOF 8
ENDMDL
MODEL 3
REMARK VINA RESULT:      -9.3      2.535      7.590
REMARK  8 active torsions:
REMARK  status: ('A' for Active; 'I' for Inactive)
REMARK    1  A    between atoms: C_4  and  S_5 
REMARK    2  A    between atoms: S_5  and  C_6 
REMARK    3  A    between atoms: C_6  and  C_7 
REMARK       I    between atoms: C_7  and  N_8 
REMARK    4  A    between atoms: N_8  and  C_9 
REMARK    5  A    between atoms: C_20  and  C_21 
REMARK    6  A    between atoms: C_27  and  C_28 
REMARK       I    between atoms: C_28  and  N_29 
REMARK    7  A    between atoms: N_29  and  C_30 
REMARK    8  A    between atoms: C_31  and  O_32 
ROOT
HETATM    1  C   UNL     1      40.049 -15.481   1.885  1.00  0.00     0.069 C 
HETATM    2  C   UNL     1      40.612 -14.266   2.590  1.00  0.00     0.019 A 
HETATM    3  N   UNL     1      40.983 -14.473   3.904  1.00  0.00    -0.353 N 
HETATM    4  C   UNL     1      41.495 -13.524   4.762  1.00  0.00     0.087 A 
HETATM    5  C   UNL     1      41.718 -12.275   4.296  1.00  0.00     0.055 A 
HETATM    6  C   UNL     1      42.138 -11.124   5.195  1.00  0.00     0.019 C 
HETATM    7  N   UNL     1      42.485 -10.168   5.940  1.00  0.00    -0.096 N 
HETATM    8  C   UNL     1      41.340 -11.885   2.845  1.00  0.00     0.104 A 
HETATM    9  C   UNL     1      40.749 -13.039   2.024  1.00  0.00     0.046 A 
HETATM   10  H   UNL     1      40.983 -15.427   4.253  1.00  0.00     0.166 HD
ENDROOT
BRANCH   4  11
HETATM   11  S   UNL     1      41.842 -13.992   6.408  1.00  0.00    -0.102 SA
BRANCH  11  12
HETATM   12  C   UNL     1      43.190 -15.202   6.266  1.00  0.00     0.184 C 
BRANCH  12  13
HETATM   13  C   UNL     1      42.828 -16.518   5.603  1.00  0.00     0.231 C 
HETATM   14  N   UNL     1      43.907 -17.179   5.043  1.00  0.00    -0.325 N 
HETATM   15  H   UNL     1      44.778 -16.665   4.968  1.00  0.00     0.169 HD
HETATM   16  O   UNL     1      41.667 -16.914   5.598  1.00  0.00    -0.272 OA
BRANCH  14  17
HETATM   17  C   UNL     1      43.892 -18.431   4.376  1.00  0.00     0.056 A 
HETATM   18  C   UNL     1      43.636 -18.455   2.993  1.00  0.00     0.060 A 
HETATM   19 CL   UNL     1      43.387 -16.986   2.109  1.00  0.00    -0.082 Cl
HETATM   20  C   UNL     1      43.566 -19.664   2.293  1.00  0.00     0.026 A 
HETATM   21  C   UNL     1      43.771 -20.868   2.965  1.00  0.00     0.002 A 
HETATM   22  C   UNL     1      44.056 -20.857   4.328  1.00  0.00     0.002 A 
HETATM   23  C   UNL     1      44.122 -19.647   5.027  1.00  0.00     0.031 A 
ENDBRANCH  14  17
ENDBRANCH  12  13
ENDBRANCH  11  12
ENDBRANCH   4  11
BRANCH   8  24
HETATM   24  C   UNL     1      40.463 -10.630   2.884  1.00  0.00    -0.044 A 
HETATM   25  C   UNL     1      39.161 -10.700   3.409  1.00  0.00     0.008 A 
HETATM   26  C   UNL     1      38.327  -9.581   3.389  1.00  0.00     0.001 A 
HETATM   27  C   UNL     1      38.786  -8.377   2.859  1.00  0.00     0.000 A 
HETATM   28  C   UNL     1      40.075  -8.293   2.341  1.00  0.00     0.001 A 
HETATM   29  C   UNL     1      40.906  -9.412   2.346  1.00  0.00     0.008 A 
ENDBRANCH   8  24
BRANCH   9  30
HETATM   30  C   UNL     1      40.443 -12.909   0.555  1.00  0.00     0.255 C 
HETATM   31  N   UNL     1      39.165 -13.218   0.160  1.00  0.00    -0.321 N 
HETATM   32  H   UNL     1      38.409 -13.255   0.830  1.00  0.00     0.169 HD
HETATM   33  O   UNL     1      41.324 -12.535  -0.218  1.00  0.00    -0.268 OA
BRANCH  31  34
HETATM   34  C   UNL     1      38.731 -13.562  -1.143  1.00  0.00     0.068 A 
HETATM   35  C   UNL     1      37.754 -12.736  -1.739  1.00  0.00     0.095 A 
HETATM   36  C   UNL     1      37.214 -13.083  -2.981  1.00  0.00     0.039 A 
HETATM   37  C   UNL     1      37.635 -14.245  -3.628  1.00  0.00     0.003 A 
HETATM   38  C   UNL     1      38.605 -15.057  -3.044  1.00  0.00     0.002 A 
HETATM   39  C   UNL     1      39.156 -14.716  -1.808  1.00  0.00     0.032 A 
BRANCH  35  40
HETATM   40  O   UNL     1      37.407 -11.617  -1.021  1.00  0.00    -0.354 OA
HETATM   41  C   UNL     1      37.864 -10.363  -1.510  1.00  0.00     0.210 C 
ENDBRANCH  35  40
ENDBRANCH  31  34
ENDBRANCH   9  30
TORSDOF 8
ENDMDL
MODEL 4
REMARK VINA RESULT:      -9.2      2.746      7.399
REMARK  8 active torsions:
REMARK  status: ('A' for Active; 'I' for Inactive)
REMARK    1  A    between atoms: C_4  and  S_5 
REMARK    2  A    between atoms: S_5  and  C_6 
REMARK    3  A    between atoms: C_6  and  C_7 
REMARK       I    between atoms: C_7  and  N_8 
REMARK    4  A    between atoms: N_8  and  C_9 
REMARK    5  A    between atoms: C_20  and  C_21 
REMARK    6  A    between atoms: C_27  and  C_28 
REMARK       I    between atoms: C_28  and  N_29 
REMARK    7  A    between atoms: N_29  and  C_30 
REMARK    8  A    between atoms: C_31  and  O_32 
ROOT
HETATM    1  C   UNL     1      40.147 -15.355   2.935  1.00  0.00     0.069 C 
HETATM    2  C   UNL     1      40.840 -14.210   3.638  1.00  0.00     0.019 A 
HETATM    3  N   UNL     1      41.490 -14.551   4.808  1.00  0.00    -0.353 N 
HETATM    4  C   UNL     1      42.170 -13.688   5.640  1.00  0.00     0.087 A 
HETATM    5  C   UNL     1      42.278 -12.389   5.286  1.00  0.00     0.055 A 
HETATM    6  C   UNL     1      42.876 -11.332   6.201  1.00  0.00     0.019 C 
HETATM    7  N   UNL     1      43.370 -10.456   6.959  1.00  0.00    -0.096 N 
HETATM    8  C   UNL     1      41.591 -11.851   4.006  1.00  0.00     0.104 A 
HETATM    9  C   UNL     1      40.843 -12.923   3.203  1.00  0.00     0.046 A 
HETATM   10  H   UNL     1      41.572 -15.538   5.036  1.00  0.00     0.166 HD
ENDROOT
BRANCH   4  11
HETATM   11  S   UNL     1      42.870 -14.327   7.107  1.00  0.00    -0.102 SA
BRANCH  11  12
HETATM   12  C   UNL     1      44.063 -15.574   6.540  1.00  0.00     0.184 C 
BRANCH  12  13
HETATM   13  C   UNL     1      43.471 -16.782   5.838  1.00  0.00     0.231 C 
HETATM   14  N   UNL     1      44.333 -17.389   4.942  1.00  0.00    -0.325 N 
HETATM   15  H   UNL     1      45.184 -16.890   4.707  1.00  0.00     0.169 HD
HETATM   16  O   UNL     1      42.326 -17.148   6.087  1.00  0.00    -0.272 OA
BRANCH  14  17
HETATM   17  C   UNL     1      44.078 -18.541   4.155  1.00  0.00     0.056 A 
HETATM   18  C   UNL     1      43.620 -18.369   2.836  1.00  0.00     0.060 A 
HETATM   19 CL   UNL     1      43.411 -16.785   2.167  1.00  0.00    -0.082 Cl
HETATM   20  C   UNL     1      43.312 -19.470   2.030  1.00  0.00     0.026 A 
HETATM   21  C   UNL     1      43.476 -20.762   2.527  1.00  0.00     0.002 A 
HETATM   22  C   UNL     1      43.959 -20.948   3.820  1.00  0.00     0.002 A 
HETATM   23  C   UNL     1      44.263 -19.845   4.626  1.00  0.00     0.031 A 
ENDBRANCH  14  17
ENDBRANCH  12  13
ENDBRANCH  11  12
ENDBRANCH   4  11
BRANCH   8  24
HETATM   24  C   UNL     1      40.735 -10.636   4.379  1.00  0.00    -0.044 A 
HETATM   25  C   UNL     1      39.541 -10.814   5.099  1.00  0.00     0.008 A 
HETATM   26  C   UNL     1      38.717  -9.725   5.388  1.00  0.00     0.001 A 
HETATM   27  C   UNL     1      39.080  -8.446   4.972  1.00  0.00     0.000 A 
HETATM   28  C   UNL     1      40.262  -8.255   4.262  1.00  0.00     0.001 A 
HETATM   29  C   UNL     1      41.081  -9.343   3.961  1.00  0.00     0.008 A 
ENDBRANCH   8  24
BRANCH   9  30
HETATM   30  C   UNL     1      40.223 -12.640   1.859  1.00  0.00     0.255 C 
HETATM   31  N   UNL     1      41.052 -12.710   0.769  1.00  0.00    -0.321 N 
HETATM   32  H   UNL     1      41.940 -13.190   0.821  1.00  0.00     0.169 HD
HETATM   33  O   UNL     1      39.025 -12.367   1.790  1.00  0.00    -0.268 OA
BRANCH  31  34
HETATM   34  C   UNL     1      40.847 -12.122  -0.504  1.00  0.00     0.068 A 
HETATM   35  C   UNL     1      40.360 -12.958  -1.532  1.00  0.00     0.095 A 
HETATM   36  C   UNL     1      40.234 -12.459  -2.832  1.00  0.00     0.039 A 
HETATM   37  C   UNL     1      40.591 -11.140  -3.114  1.00  0.00     0.003 A 
HETATM   38  C   UNL     1      41.063 -10.312  -2.098  1.00  0.00     0.002 A 
HETATM   39  C   UNL     1      41.186 -10.798  -0.795  1.00  0.00     0.032 A 
BRANCH  35  40
HETATM   40  O   UNL     1      40.040 -14.239  -1.151  1.00  0.00    -0.354 OA
HETATM   41  C   UNL     1      39.097 -14.938  -1.953  1.00  0.00     0.210 C 
ENDBRANCH  35  40
ENDBRANCH  31  34
ENDBRANCH   9  30
TORSDOF 8
ENDMDL
MODEL 5
REMARK VINA RESULT:      -9.2      2.065      3.003
REMARK  8 active torsions:
REMARK  status: ('A' for Active; 'I' for Inactive)
REMARK    1  A    between atoms: C_4  and  S_5 
REMARK    2  A    between atoms: S_5  and  C_6 
REMARK    3  A    between atoms: C_6  and  C_7 
REMARK       I    between atoms: C_7  and  N_8 
REMARK    4  A    between atoms: N_8  and  C_9 
REMARK    5  A    between atoms: C_20  and  C_21 
REMARK    6  A    between atoms: C_27  and  C_28 
REMARK       I    between atoms: C_28  and  N_29 
REMARK    7  A    between atoms: N_29  and  C_30 
REMARK    8  A    between atoms: C_31  and  O_32 
ROOT
HETATM    1  C   UNL     1      39.830 -15.784   1.178  1.00  0.00     0.069 C 
HETATM    2  C   UNL     1      39.850 -14.564   2.071  1.00  0.00     0.019 A 
HETATM    3  N   UNL     1      39.186 -13.461   1.569  1.00  0.00    -0.353 N 
HETATM    4  C   UNL     1      39.084 -12.229   2.177  1.00  0.00     0.087 A 
HETATM    5  C   UNL     1      39.624 -12.059   3.403  1.00  0.00     0.055 A 
HETATM    6  C   UNL     1      39.695 -10.706   4.092  1.00  0.00     0.019 C 
HETATM    7  N   UNL     1      39.755  -9.584   4.663  1.00  0.00    -0.096 N 
HETATM    8  C   UNL     1      40.414 -13.200   4.092  1.00  0.00     0.104 A 
HETATM    9  C   UNL     1      40.472 -14.498   3.277  1.00  0.00     0.046 A 
HETATM   10  H   UNL     1      38.631 -13.584   0.727  1.00  0.00     0.166 HD
ENDROOT
BRANCH   4  11
HETATM   11  S   UNL     1      38.243 -10.953   1.332  1.00  0.00    -0.102 SA
BRANCH  11  12
HETATM   12  C   UNL     1      38.434 -11.364  -0.428  1.00  0.00     0.184 C 
BRANCH  12  13
HETATM   13  C   UNL     1      39.716 -10.882  -1.082  1.00  0.00     0.231 C 
HETATM   14  N   UNL     1      39.855  -9.506  -1.097  1.00  0.00    -0.325 N 
HETATM   15  H   UNL     1      39.043  -8.954  -0.844  1.00  0.00     0.169 HD
HETATM   16  O   UNL     1      40.524 -11.688  -1.535  1.00  0.00    -0.272 OA
BRANCH  14  17
HETATM   17  C   UNL     1      40.946  -8.762  -1.615  1.00  0.00     0.056 A 
HETATM   18  C   UNL     1      40.926  -8.395  -2.974  1.00  0.00     0.060 A 
HETATM   19 CL   UNL     1      39.582  -8.803  -3.985  1.00  0.00    -0.082 Cl
HETATM   20  C   UNL     1      41.994  -7.698  -3.548  1.00  0.00     0.026 A 
HETATM   21  C   UNL     1      43.092  -7.342  -2.765  1.00  0.00     0.002 A 
HETATM   22  C   UNL     1      43.111  -7.671  -1.413  1.00  0.00     0.002 A 
HETATM   23  C   UNL     1      42.042  -8.371  -0.841  1.00  0.00     0.031 A 
ENDBRANCH  14  17
ENDBRANCH  12  13
ENDBRANCH  11  12
ENDBRANCH   4  11
BRANCH   8  24
HETATM   24  C   UNL     1      41.786 -12.665   4.517  1.00  0.00    -0.044 A 
HETATM   25  C   UNL     1      42.120 -12.595   5.880  1.00  0.00     0.008 A 
HETATM   26  C   UNL     1      43.339 -12.048   6.285  1.00  0.00     0.001 A 
HETATM   27  C   UNL     1      44.242 -11.575   5.335  1.00  0.00     0.000 A 
HETATM   28  C   UNL     1      43.925 -11.644   3.981  1.00  0.00     0.001 A 
HETATM   29  C   UNL     1      42.703 -12.177   3.574  1.00  0.00     0.008 A 
ENDBRANCH   8  24
BRANCH   9  30
HETATM   30  C   UNL     1      41.071 -15.768   3.823  1.00  0.00     0.255 C 
HETATM   31  N   UNL     1      42.305 -16.126   3.341  1.00  0.00    -0.321 N 
HETATM   32  H   UNL     1      42.895 -15.453   2.872  1.00  0.00     0.169 HD
HETATM   33  O   UNL     1      40.452 -16.418   4.664  1.00  0.00    -0.268 OA
BRANCH  31  34
HETATM   34  C   UNL     1      42.895 -17.414   3.369  1.00  0.00     0.068 A 
HETATM   35  C   UNL     1      43.719 -17.724   4.472  1.00  0.00     0.095 A 
HETATM   36  C   UNL     1      44.408 -18.940   4.504  1.00  0.00     0.039 A 
HETATM   37  C   UNL     1      44.286 -19.843   3.447  1.00  0.00     0.003 A 
HETATM   38  C   UNL     1      43.466 -19.540   2.362  1.00  0.00     0.002 A 
HETATM   39  C   UNL     1      42.768 -18.332   2.323  1.00  0.00     0.032 A 
BRANCH  35  40
HETATM   40  O   UNL     1      43.773 -16.769   5.458  1.00  0.00    -0.354 OA
HETATM   41  C   UNL     1      43.490 -17.189   6.786  1.00  0.00     0.210 C 
ENDBRANCH  35  40
ENDBRANCH  31  34
ENDBRANCH   9  30
TORSDOF 8
ENDMDL
MODEL 6
REMARK VINA RESULT:      -9.1      4.485      8.510
REMARK  8 active torsions:
REMARK  status: ('A' for Active; 'I' for Inactive)
REMARK    1  A    between atoms: C_4  and  S_5 
REMARK    2  A    between atoms: S_5  and  C_6 
REMARK    3  A    between atoms: C_6  and  C_7 
REMARK       I    between atoms: C_7  and  N_8 
REMARK    4  A    between atoms: N_8  and  C_9 
REMARK    5  A    between atoms: C_20  and  C_21 
REMARK    6  A    between atoms: C_27  and  C_28 
REMARK       I    between atoms: C_28  and  N_29 
REMARK    7  A    between atoms: N_29  and  C_30 
REMARK    8  A    between atoms: C_31  and  O_32 
ROOT
HETATM    1  C   UNL     1      43.054 -15.537   8.083  1.00  0.00     0.069 C 
HETATM    2  C   UNL     1      43.015 -14.567   6.923  1.00  0.00     0.019 A 
HETATM    3  N   UNL     1      43.258 -13.248   7.257  1.00  0.00    -0.353 N 
HETATM    4  C   UNL     1      43.252 -12.178   6.389  1.00  0.00     0.087 A 
HETATM    5  C   UNL     1      43.047 -12.405   5.073  1.00  0.00     0.055 A 
HETATM    6  C   UNL     1      42.875 -11.284   4.061  1.00  0.00     0.019 C 
HETATM    7  N   UNL     1      42.732 -10.355   3.221  1.00  0.00    -0.096 N 
HETATM    8  C   UNL     1      42.747 -13.831   4.546  1.00  0.00     0.104 A 
HETATM    9  C   UNL     1      42.752 -14.911   5.636  1.00  0.00     0.046 A 
HETATM   10  H   UNL     1      43.571 -13.047   8.202  1.00  0.00     0.166 HD
ENDROOT
BRANCH   4  11
HETATM   11  S   UNL     1      43.527 -10.580   7.039  1.00  0.00    -0.102 SA
BRANCH  11  12
HETATM   12  C   UNL     1      44.965 -10.771   8.132  1.00  0.00     0.184 C 
BRANCH  12  13
HETATM   13  C   UNL     1      44.745 -10.387   9.584  1.00  0.00     0.231 C 
HETATM   14  N   UNL     1      43.613  -9.620   9.796  1.00  0.00    -0.325 N 
HETATM   15  H   UNL     1      43.146  -9.245   8.978  1.00  0.00     0.169 HD
HETATM   16  O   UNL     1      45.531 -10.756  10.451  1.00  0.00    -0.272 OA
BRANCH  14  17
HETATM   17  C   UNL     1      43.133  -9.128  11.037  1.00  0.00     0.056 A 
HETATM   18  C   UNL     1      42.932  -7.743  11.180  1.00  0.00     0.060 A 
HETATM   19 CL   UNL     1      43.222  -6.662   9.859  1.00  0.00    -0.082 Cl
HETATM   20  C   UNL     1      42.501  -7.199  12.394  1.00  0.00     0.026 A 
HETATM   21  C   UNL     1      42.246  -8.037  13.479  1.00  0.00     0.002 A 
HETATM   22  C   UNL     1      42.410  -9.412  13.342  1.00  0.00     0.002 A 
HETATM   23  C   UNL     1      42.845  -9.954  12.127  1.00  0.00     0.031 A 
ENDBRANCH  14  17
ENDBRANCH  12  13
ENDBRANCH  11  12
ENDBRANCH   4  11
BRANCH   8  24
HETATM   24  C   UNL     1      41.464 -13.789   3.711  1.00  0.00    -0.044 A 
HETATM   25  C   UNL     1      41.450 -14.340   2.418  1.00  0.00     0.008 A 
HETATM   26  C   UNL     1      40.309 -14.250   1.620  1.00  0.00     0.001 A 
HETATM   27  C   UNL     1      39.165 -13.620   2.106  1.00  0.00     0.000 A 
HETATM   28  C   UNL     1      39.164 -13.075   3.387  1.00  0.00     0.001 A 
HETATM   29  C   UNL     1      40.306 -13.151   4.181  1.00  0.00     0.008 A 
ENDBRANCH   8  24
BRANCH   9  30
HETATM   30  C   UNL     1      42.619 -16.377   5.318  1.00  0.00     0.255 C 
HETATM   31  N   UNL     1      43.646 -16.954   4.615  1.00  0.00    -0.321 N 
HETATM   32  H   UNL     1      44.552 -16.508   4.557  1.00  0.00     0.169 HD
HETATM   33  O   UNL     1      41.622 -16.992   5.697  1.00  0.00    -0.268 OA
BRANCH  31  34
HETATM   34  C   UNL     1      43.603 -18.153   3.862  1.00  0.00     0.068 A 
HETATM   35  C   UNL     1      43.932 -19.350   4.534  1.00  0.00     0.095 A 
HETATM   36  C   UNL     1      44.004 -20.550   3.819  1.00  0.00     0.039 A 
HETATM   37  C   UNL     1      43.757 -20.564   2.446  1.00  0.00     0.003 A 
HETATM   38  C   UNL     1      43.424 -19.384   1.784  1.00  0.00     0.002 A 
HETATM   39  C   UNL     1      43.342 -18.182   2.490  1.00  0.00     0.032 A 
BRANCH  35  40
HETATM   40  O   UNL     1      44.159 -19.229   5.883  1.00  0.00    -0.354 OA
HETATM   41  C   UNL     1      43.357 -20.020   6.750  1.00  0.00     0.210 C 
ENDBRANCH  35  40
ENDBRANCH  31  34
ENDBRANCH   9  30
TORSDOF 8
ENDMDL
MODEL 7
REMARK VINA RESULT:      -8.9      3.354      7.274
REMARK  8 active torsions:
REMARK  status: ('A' for Active; 'I' for Inactive)
REMARK    1  A    between atoms: C_4  and  S_5 
REMARK    2  A    between atoms: S_5  and  C_6 
REMARK    3  A    between atoms: C_6  and  C_7 
REMARK       I    between atoms: C_7  and  N_8 
REMARK    4  A    between atoms: N_8  and  C_9 
REMARK    5  A    between atoms: C_20  and  C_21 
REMARK    6  A    between atoms: C_27  and  C_28 
REMARK       I    between atoms: C_28  and  N_29 
REMARK    7  A    between atoms: N_29  and  C_30 
REMARK    8  A    between atoms: C_31  and  O_32 
ROOT
HETATM    1  C   UNL     1      40.503 -13.425   6.043  1.00  0.00     0.069 C 
HETATM    2  C   UNL     1      40.838 -12.741   4.737  1.00  0.00     0.019 A 
HETATM    3  N   UNL     1      40.870 -11.361   4.791  1.00  0.00    -0.353 N 
HETATM    4  C   UNL     1      41.124 -10.513   3.735  1.00  0.00     0.087 A 
HETATM    5  C   UNL     1      41.427 -11.043   2.530  1.00  0.00     0.055 A 
HETATM    6  C   UNL     1      41.576 -10.200   1.273  1.00  0.00     0.019 C 
HETATM    7  N   UNL     1      41.699  -9.502   0.231  1.00  0.00    -0.096 N 
HETATM    8  C   UNL     1      41.418 -12.576   2.307  1.00  0.00     0.104 A 
HETATM    9  C   UNL     1      41.083 -13.386   3.566  1.00  0.00     0.046 A 
HETATM   10  H   UNL     1      40.806 -10.920   5.704  1.00  0.00     0.166 HD
ENDROOT
BRANCH   4  11
HETATM   11  S   UNL     1      41.056  -8.791   4.018  1.00  0.00    -0.102 SA
BRANCH  11  12
HETATM   12  C   UNL     1      40.627  -8.631   5.776  1.00  0.00     0.184 C 
BRANCH  12  13
HETATM   13  C   UNL     1      41.789  -8.371   6.717  1.00  0.00     0.231 C 
HETATM   14  N   UNL     1      42.136  -9.462   7.495  1.00  0.00    -0.325 N 
HETATM   15  H   UNL     1      41.497 -10.250   7.500  1.00  0.00     0.169 HD
HETATM   16  O   UNL     1      42.340  -7.274   6.739  1.00  0.00    -0.272 OA
BRANCH  14  17
HETATM   17  C   UNL     1      43.185  -9.536   8.446  1.00  0.00     0.056 A 
HETATM   18  C   UNL     1      44.351 -10.249   8.109  1.00  0.00     0.060 A 
HETATM   19 CL   UNL     1      44.524 -10.985   6.551  1.00  0.00    -0.082 Cl
HETATM   20  C   UNL     1      45.399 -10.390   9.024  1.00  0.00     0.026 A 
HETATM   21  C   UNL     1      45.304  -9.804  10.286  1.00  0.00     0.002 A 
HETATM   22  C   UNL     1      44.169  -9.070  10.621  1.00  0.00     0.002 A 
HETATM   23  C   UNL     1      43.121  -8.932   9.705  1.00  0.00     0.031 A 
ENDBRANCH  14  17
ENDBRANCH  12  13
ENDBRANCH  11  12
ENDBRANCH   4  11
BRANCH   8  24
HETATM   24  C   UNL     1      40.528 -12.895   1.102  1.00  0.00    -0.044 A 
HETATM   25  C   UNL     1      40.956 -13.827   0.141  1.00  0.00     0.008 A 
HETATM   26  C   UNL     1      40.188 -14.078  -0.997  1.00  0.00     0.001 A 
HETATM   27  C   UNL     1      38.978 -13.412  -1.183  1.00  0.00     0.000 A 
HETATM   28  C   UNL     1      38.540 -12.490  -0.236  1.00  0.00     0.001 A 
HETATM   29  C   UNL     1      39.312 -12.227   0.894  1.00  0.00     0.008 A 
ENDBRANCH   8  24
BRANCH   9  30
HETATM   30  C   UNL     1      41.154 -14.890   3.601  1.00  0.00     0.255 C 
HETATM   31  N   UNL     1      42.369 -15.445   3.915  1.00  0.00    -0.321 N 
HETATM   32  H   UNL     1      43.089 -14.897   4.366  1.00  0.00     0.169 HD
HETATM   33  O   UNL     1      40.145 -15.551   3.357  1.00  0.00    -0.268 OA
BRANCH  31  34
HETATM   34  C   UNL     1      42.809 -16.762   3.635  1.00  0.00     0.068 A 
HETATM   35  C   UNL     1      43.633 -17.387   4.596  1.00  0.00     0.095 A 
HETATM   36  C   UNL     1      44.179 -18.646   4.330  1.00  0.00     0.039 A 
HETATM   37  C   UNL     1      43.914 -19.282   3.116  1.00  0.00     0.003 A 
HETATM   38  C   UNL     1      43.094 -18.669   2.171  1.00  0.00     0.002 A 
HETATM   39  C   UNL     1      42.538 -17.415   2.430  1.00  0.00     0.032 A 
BRANCH  35  40
HETATM   40  O   UNL     1      43.833 -16.677   5.756  1.00  0.00    -0.354 OA
HETATM   41  C   UNL     1      43.483 -17.316   6.976  1.00  0.00     0.210 C 
ENDBRANCH  35  40
ENDBRANCH  31  34
ENDBRANCH   9  30
TORSDOF 8
ENDMDL
MODEL 8
REMARK VINA RESULT:      -8.7      3.076      6.149
REMARK  8 active torsions:
REMARK  status: ('A' for Active; 'I' for Inactive)
REMARK    1  A    between atoms: C_4  and  S_5 
REMARK    2  A    between atoms: S_5  and  C_6 
REMARK    3  A    between atoms: C_6  and  C_7 
REMARK       I    between atoms: C_7  and  N_8 
REMARK    4  A    between atoms: N_8  and  C_9 
REMARK    5  A    between atoms: C_20  and  C_21 
REMARK    6  A    between atoms: C_27  and  C_28 
REMARK       I    between atoms: C_28  and  N_29 
REMARK    7  A    between atoms: N_29  and  C_30 
REMARK    8  A    between atoms: C_31  and  O_32 
ROOT
HETATM    1  C   UNL     1      41.277 -10.557   4.142  1.00  0.00     0.069 C 
HETATM    2  C   UNL     1      41.629 -12.009   3.906  1.00  0.00     0.019 A 
HETATM    3  N   UNL     1      40.726 -12.711   3.131  1.00  0.00    -0.353 N 
HETATM    4  C   UNL     1      40.808 -14.045   2.797  1.00  0.00     0.087 A 
HETATM    5  C   UNL     1      41.884 -14.754   3.201  1.00  0.00     0.055 A 
HETATM    6  C   UNL     1      41.998 -16.258   3.013  1.00  0.00     0.019 C 
HETATM    7  N   UNL     1      42.092 -17.506   2.858  1.00  0.00    -0.096 N 
HETATM    8  C   UNL     1      42.977 -14.109   4.090  1.00  0.00     0.104 A 
HETATM    9  C   UNL     1      42.729 -12.629   4.407  1.00  0.00     0.046 A 
HETATM   10  H   UNL     1      39.985 -12.187   2.673  1.00  0.00     0.166 HD
ENDROOT
BRANCH   4  11
HETATM   11  S   UNL     1      39.518 -14.745   1.851  1.00  0.00    -0.102 SA
BRANCH  11  12
HETATM   12  C   UNL     1      40.077 -14.595   0.129  1.00  0.00     0.184 C 
BRANCH  12  13
HETATM   13  C   UNL     1      39.847 -13.244  -0.523  1.00  0.00     0.231 C 
HETATM   14  N   UNL     1      40.979 -12.701  -1.102  1.00  0.00    -0.325 N 
HETATM   15  H   UNL     1      41.866 -13.146  -0.895  1.00  0.00     0.169 HD
HETATM   16  O   UNL     1      38.733 -12.729  -0.512  1.00  0.00    -0.272 OA
BRANCH  14  17
HETATM   17  C   UNL     1      41.077 -11.470  -1.801  1.00  0.00     0.056 A 
HETATM   18  C   UNL     1      41.393 -10.307  -1.075  1.00  0.00     0.060 A 
HETATM   19 CL   UNL     1      41.699 -10.377   0.628  1.00  0.00    -0.082 Cl
HETATM   20  C   UNL     1      41.460  -9.060  -1.705  1.00  0.00     0.026 A 
HETATM   21  C   UNL     1      41.231  -8.961  -3.076  1.00  0.00     0.002 A 
HETATM   22  C   UNL     1      40.948 -10.109  -3.812  1.00  0.00     0.002 A 
HETATM   23  C   UNL     1      40.878 -11.355  -3.179  1.00  0.00     0.031 A 
ENDBRANCH  14  17
ENDBRANCH  12  13
ENDBRANCH  11  12
ENDBRANCH   4  11
BRANCH   8  24
HETATM   24  C   UNL     1      43.190 -14.988   5.327  1.00  0.00    -0.044 A 
HETATM   25  C   UNL     1      42.236 -14.990   6.359  1.00  0.00     0.008 A 
HETATM   26  C   UNL     1      42.448 -15.733   7.521  1.00  0.00     0.001 A 
HETATM   27  C   UNL     1      43.608 -16.492   7.662  1.00  0.00     0.000 A 
HETATM   28  C   UNL     1      44.559 -16.503   6.645  1.00  0.00     0.001 A 
HETATM   29  C   UNL     1      44.356 -15.751   5.489  1.00  0.00     0.008 A 
ENDBRANCH   8  24
BRANCH   9  30
HETATM   30  C   UNL     1      43.736 -11.781   5.139  1.00  0.00     0.255 C 
HETATM   31  N   UNL     1      43.606 -11.705   6.503  1.00  0.00    -0.321 N 
HETATM   32  H   UNL     1      43.058 -12.386   7.011  1.00  0.00     0.169 HD
HETATM   33  O   UNL     1      44.619 -11.205   4.505  1.00  0.00    -0.268 OA
BRANCH  31  34
HETATM   34  C   UNL     1      44.132 -10.708   7.360  1.00  0.00     0.068 A 
HETATM   35  C   UNL     1      43.232  -9.738   7.854  1.00  0.00     0.095 A 
HETATM   36  C   UNL     1      43.711  -8.673   8.622  1.00  0.00     0.039 A 
HETATM   37  C   UNL     1      45.075  -8.565   8.897  1.00  0.00     0.003 A 
HETATM   38  C   UNL     1      45.962  -9.526   8.417  1.00  0.00     0.002 A 
HETATM   39  C   UNL     1      45.493 -10.598   7.655  1.00  0.00     0.032 A 
BRANCH  35  40
HETATM   40  O   UNL     1      41.912  -9.934   7.525  1.00  0.00    -0.354 OA
HETATM   41  C   UNL     1      41.087  -8.780   7.435  1.00  0.00     0.210 C 
ENDBRANCH  35  40
ENDBRANCH  31  34
ENDBRANCH   9  30
TORSDOF 8
ENDMDL
MODEL 9
REMARK VINA RESULT:      -8.7      5.172      8.987
REMARK  8 active torsions:
REMARK  status: ('A' for Active; 'I' for Inactive)
REMARK    1  A    between atoms: C_4  and  S_5 
REMARK    2  A    between atoms: S_5  and  C_6 
REMARK    3  A    between atoms: C_6  and  C_7 
REMARK       I    between atoms: C_7  and  N_8 
REMARK    4  A    between atoms: N_8  and  C_9 
REMARK    5  A    between atoms: C_20  and  C_21 
REMARK    6  A    between atoms: C_27  and  C_28 
REMARK       I    between atoms: C_28  and  N_29 
REMARK    7  A    between atoms: N_29  and  C_30 
REMARK    8  A    between atoms: C_31  and  O_32 
ROOT
HETATM    1  C   UNL     1      44.840 -10.968   8.284  1.00  0.00     0.069 C 
HETATM    2  C   UNL     1      43.452 -10.733   7.733  1.00  0.00     0.019 A 
HETATM    3  N   UNL     1      43.109 -11.526   6.654  1.00  0.00    -0.353 N 
HETATM    4  C   UNL     1      41.918 -11.485   5.963  1.00  0.00     0.087 A 
HETATM    5  C   UNL     1      40.949 -10.642   6.381  1.00  0.00     0.055 A 
HETATM    6  C   UNL     1      39.663 -10.415   5.603  1.00  0.00     0.019 C 
HETATM    7  N   UNL     1      38.597 -10.226   4.958  1.00  0.00    -0.096 N 
HETATM    8  C   UNL     1      41.188  -9.678   7.570  1.00  0.00     0.104 A 
HETATM    9  C   UNL     1      42.573  -9.816   8.215  1.00  0.00     0.046 A 
HETATM   10  H   UNL     1      43.739 -12.282   6.401  1.00  0.00     0.166 HD
ENDROOT
BRANCH   4  11
HETATM   11  S   UNL     1      41.720 -12.542   4.587  1.00  0.00    -0.102 SA
BRANCH  11  12
HETATM   12  C   UNL     1      40.537 -13.803   5.143  1.00  0.00     0.184 C 
BRANCH  12  13
HETATM   13  C   UNL     1      40.960 -15.245   4.926  1.00  0.00     0.231 C 
HETATM   14  N   UNL     1      42.075 -15.387   4.120  1.00  0.00    -0.325 N 
HETATM   15  H   UNL     1      42.393 -14.566   3.619  1.00  0.00     0.169 HD
HETATM   16  O   UNL     1      40.334 -16.162   5.449  1.00  0.00    -0.272 OA
BRANCH  14  17
HETATM   17  C   UNL     1      42.717 -16.598   3.754  1.00  0.00     0.056 A 
HETATM   18  C   UNL     1      43.742 -17.093   4.580  1.00  0.00     0.060 A 
HETATM   19 CL   UNL     1      44.185 -16.270   6.038  1.00  0.00    -0.082 Cl
HETATM   20  C   UNL     1      44.439 -18.259   4.245  1.00  0.00     0.026 A 
HETATM   21  C   UNL     1      44.107 -18.957   3.085  1.00  0.00     0.002 A 
HETATM   22  C   UNL     1      43.073 -18.495   2.274  1.00  0.00     0.002 A 
HETATM   23  C   UNL     1      42.380 -17.327   2.610  1.00  0.00     0.031 A 
ENDBRANCH  14  17
ENDBRANCH  12  13
ENDBRANCH  11  12
ENDBRANCH   4  11
BRANCH   8  24
HETATM   24  C   UNL     1      40.841  -8.253   7.128  1.00  0.00    -0.044 A 
HETATM   25  C   UNL     1      39.657  -7.647   7.581  1.00  0.00     0.008 A 
HETATM   26  C   UNL     1      39.294  -6.375   7.134  1.00  0.00     0.001 A 
HETATM   27  C   UNL     1      40.114  -5.689   6.240  1.00  0.00     0.000 A 
HETATM   28  C   UNL     1      41.292  -6.277   5.788  1.00  0.00     0.001 A 
HETATM   29  C   UNL     1      41.651  -7.552   6.222  1.00  0.00     0.008 A 
ENDBRANCH   8  24
BRANCH   9  30
HETATM   30  C   UNL     1      42.958  -9.071   9.466  1.00  0.00     0.255 C 
HETATM   31  N   UNL     1      42.639  -9.664  10.662  1.00  0.00    -0.321 N 
HETATM   32  H   UNL     1      42.419 -10.649  10.711  1.00  0.00     0.169 HD
HETATM   33  O   UNL     1      43.536  -7.989   9.374  1.00  0.00    -0.268 OA
BRANCH  31  34
HETATM   34  C   UNL     1      42.518  -9.035  11.925  1.00  0.00     0.068 A 
HETATM   35  C   UNL     1      41.294  -9.188  12.611  1.00  0.00     0.095 A 
HETATM   36  C   UNL     1      41.081  -8.508  13.814  1.00  0.00     0.039 A 
HETATM   37  C   UNL     1      42.074  -7.677  14.334  1.00  0.00     0.003 A 
HETATM   38  C   UNL     1      43.286  -7.532  13.662  1.00  0.00     0.002 A 
HETATM   39  C   UNL     1      43.511  -8.212  12.464  1.00  0.00     0.032 A 
BRANCH  35  40
HETATM   40  O   UNL     1      40.383 -10.026  12.014  1.00  0.00    -0.354 OA
HETATM   41  C   UNL     1      39.490 -10.728  12.868  1.00  0.00     0.210 C 
ENDBRANCH  35  40
ENDBRANCH  31  34
ENDBRANCH   9  30
TORSDOF 8
ENDMDL
MODEL 10
REMARK VINA RESULT:      -8.5      4.792      8.541
REMARK  8 active torsions:
REMARK  status: ('A' for Active; 'I' for Inactive)
REMARK    1  A    between atoms: C_4  and  S_5 
REMARK    2  A    between atoms: S_5  and  C_6 
REMARK    3  A    between atoms: C_6  and  C_7 
REMARK       I    between atoms: C_7  and  N_8 
REMARK    4  A    between atoms: N_8  and  C_9 
REMARK    5  A    between atoms: C_20  and  C_21 
REMARK    6  A    between atoms: C_27  and  C_28 
REMARK       I    between atoms: C_28  and  N_29 
REMARK    7  A    between atoms: N_29  and  C_30 
REMARK    8  A    between atoms: C_31  and  O_32 
ROOT
HETATM    1  C   UNL     1      45.204 -10.788   7.358  1.00  0.00     0.069 C 
HETATM    2  C   UNL     1      43.869 -10.535   6.693  1.00  0.00     0.019 A 
HETATM    3  N   UNL     1      43.730 -11.085   5.434  1.00  0.00    -0.353 N 
HETATM    4  C   UNL     1      42.626 -10.973   4.617  1.00  0.00     0.087 A 
HETATM    5  C   UNL     1      41.538 -10.317   5.076  1.00  0.00     0.055 A 
HETATM    6  C   UNL     1      40.331 -10.012   4.203  1.00  0.00     0.019 C 
HETATM    7  N   UNL     1      39.331  -9.758   3.480  1.00  0.00    -0.096 N 
HETATM    8  C   UNL     1      41.546  -9.633   6.466  1.00  0.00     0.104 A 
HETATM    9  C   UNL     1      42.857  -9.814   7.242  1.00  0.00     0.046 A 
HETATM   10  H   UNL     1      44.455 -11.718   5.109  1.00  0.00     0.166 HD
ENDROOT
BRANCH   4  11
HETATM   11  S   UNL     1      42.688 -11.704   3.032  1.00  0.00    -0.102 SA
BRANCH  11  12
HETATM   12  C   UNL     1      41.853 -13.305   3.231  1.00  0.00     0.184 C 
BRANCH  12  13
HETATM   13  C   UNL     1      42.674 -14.527   2.862  1.00  0.00     0.231 C 
HETATM   14  N   UNL     1      42.294 -15.679   3.526  1.00  0.00    -0.325 N 
HETATM   15  H   UNL     1      41.648 -15.577   4.300  1.00  0.00     0.169 HD
HETATM   16  O   UNL     1      43.579 -14.443   2.037  1.00  0.00    -0.272 OA
BRANCH  14  17
HETATM   17  C   UNL     1      42.852 -16.975   3.380  1.00  0.00     0.056 A 
HETATM   18  C   UNL     1      43.778 -17.422   4.340  1.00  0.00     0.060 A 
HETATM   19 CL   UNL     1      44.198 -16.433   5.698  1.00  0.00    -0.082 Cl
HETATM   20  C   UNL     1      44.391 -18.673   4.222  1.00  0.00     0.026 A 
HETATM   21  C   UNL     1      44.073 -19.505   3.150  1.00  0.00     0.002 A 
HETATM   22  C   UNL     1      43.135 -19.088   2.209  1.00  0.00     0.002 A 
HETATM   23  C   UNL     1      42.525 -17.835   2.327  1.00  0.00     0.031 A 
ENDBRANCH  14  17
ENDBRANCH  12  13
ENDBRANCH  11  12
ENDBRANCH   4  11
BRANCH   8  24
HETATM   24  C   UNL     1      41.113  -8.173   6.299  1.00  0.00    -0.044 A 
HETATM   25  C   UNL     1      41.984  -7.247   5.699  1.00  0.00     0.008 A 
HETATM   26  C   UNL     1      41.631  -5.900   5.601  1.00  0.00     0.001 A 
HETATM   27  C   UNL     1      40.401  -5.464   6.089  1.00  0.00     0.000 A 
HETATM   28  C   UNL     1      39.527  -6.371   6.681  1.00  0.00     0.001 A 
HETATM   29  C   UNL     1      39.882  -7.714   6.792  1.00  0.00     0.008 A 
ENDBRANCH   8  24
BRANCH   9  30
HETATM   30  C   UNL     1      43.024  -9.346   8.664  1.00  0.00     0.255 C 
HETATM   31  N   UNL     1      42.452 -10.121   9.641  1.00  0.00    -0.321 N 
HETATM   32  H   UNL     1      42.185 -11.078   9.456  1.00  0.00     0.169 HD
HETATM   33  O   UNL     1      43.655  -8.315   8.893  1.00  0.00    -0.268 OA
BRANCH  31  34
HETATM   34  C   UNL     1      42.117  -9.728  10.960  1.00  0.00     0.068 A 
HETATM   35  C   UNL     1      40.779  -9.346  11.201  1.00  0.00     0.095 A 
HETATM   36  C   UNL     1      40.413  -8.853  12.457  1.00  0.00     0.039 A 
HETATM   37  C   UNL     1      41.367  -8.735  13.469  1.00  0.00     0.003 A 
HETATM   38  C   UNL     1      42.685  -9.120  13.234  1.00  0.00     0.002 A 
HETATM   39  C   UNL     1      43.060  -9.620  11.986  1.00  0.00     0.032 A 
BRANCH  35  40
HETATM   40  O   UNL     1      39.920  -9.499  10.140  1.00  0.00    -0.354 OA
HETATM   41  C   UNL     1      38.789  -8.639  10.091  1.00  0.00     0.210 C 
ENDBRANCH  35  40
ENDBRANCH  31  34
ENDBRANCH   9  30
TORSDOF 8
ENDMDL
