MODEL 1
REMARK VINA RESULT:      -8.1      0.000      0.000
REMARK  6 active torsions:
REMARK  status: ('A' for Active; 'I' for Inactive)
REMARK    1  A    between atoms: C_7  and  C_8 
REMARK    2  A    between atoms: N_9  and  N_10 
REMARK       I    between atoms: N_10  and  C_11 
REMARK    3  A    between atoms: C_11  and  C_12 
REMARK    4  A    between atoms: C_12  and  N_13 
REMARK    5  A    between atoms: N_13  and  C_14 
REMARK    6  A    between atoms: C_15  and  O_16 
ROOT
HETATM    1  N   UNL     1      41.984 -13.408   3.102  1.00  0.00    -0.246 N 
HETATM    2  C   UNL     1      42.730 -12.258   2.857  1.00  0.00     0.250 C 
HETATM    3  O   UNL     1      43.843 -12.015   3.322  1.00  0.00    -0.270 OA
HETATM    4  H   UNL     1      41.235 -13.611   2.440  1.00  0.00     0.192 HD
ENDROOT
BRANCH   1   5
HETATM    5  N   UNL     1      42.380 -14.464   3.886  1.00  0.00    -0.184 NA
HETATM    6  C   UNL     1      42.975 -15.451   3.291  1.00  0.00     0.153 C 
BRANCH   6   7
HETATM    7  C   UNL     1      43.415 -16.615   4.040  1.00  0.00     0.018 A 
HETATM    8  C   UNL     1      43.870 -16.659   5.351  1.00  0.00     0.018 A 
HETATM    9  C   UNL     1      44.031 -15.587   6.369  1.00  0.00     0.069 C 
HETATM   10  N   UNL     1      44.186 -17.964   5.639  1.00  0.00    -0.358 N 
HETATM   11  H   UNL     1      44.541 -18.293   6.525  1.00  0.00     0.166 HD
HETATM   12  C   UNL     1      43.950 -18.774   4.554  1.00  0.00     0.043 A 
HETATM   13  C   UNL     1      43.460 -17.959   3.535  1.00  0.00     0.004 A 
HETATM   14  C   UNL     1      44.133 -20.154   4.402  1.00  0.00     0.030 A 
HETATM   15  C   UNL     1      43.135 -18.557   2.299  1.00  0.00     0.014 A 
HETATM   16  C   UNL     1      43.314 -19.934   2.127  1.00  0.00     0.001 A 
HETATM   17  C   UNL     1      43.806 -20.719   3.165  1.00  0.00     0.002 A 
ENDBRANCH   6   7
ENDBRANCH   1   5
BRANCH   2  18
HETATM   18  C   UNL     1      42.031 -11.291   1.896  1.00  0.00     0.197 C 
BRANCH  18  19
HETATM   19  N   UNL     1      40.679 -11.769   1.548  1.00  0.00    -0.282 NA
HETATM   20  H   UNL     1      39.991 -11.009   1.607  1.00  0.00     0.128 HD
BRANCH  19  21
HETATM   21  C   UNL     1      40.550 -12.294   0.237  1.00  0.00     0.042 A 
HETATM   22  C   UNL     1      40.145 -13.638   0.082  1.00  0.00     0.089 A 
HETATM   23  C   UNL     1      40.012 -14.202  -1.189  1.00  0.00     0.038 A 
HETATM   24  C   UNL     1      40.341 -13.450  -2.317  1.00  0.00     0.003 A 
HETATM   25  C   UNL     1      40.806 -12.144  -2.173  1.00  0.00     0.002 A 
HETATM   26  C   UNL     1      40.921 -11.573  -0.903  1.00  0.00     0.026 A 
BRANCH  22  27
HETATM   27  O   UNL     1      39.814 -14.304   1.242  1.00  0.00    -0.354 OA
HETATM   28  C   UNL     1      39.954 -15.719   1.159  1.00  0.00     0.210 C 
ENDBRANCH  22  27
ENDBRANCH  19  21
ENDBRANCH  18  19
ENDBRANCH   2  18
TORSDOF 6
ENDMDL
MODEL 2
REMARK VINA RESULT:      -8.1      3.567      7.668
REMARK  6 active torsions:
REMARK  status: ('A' for Active; 'I' for Inactive)
REMARK    1  A    between atoms: C_7  and  C_8 
REMARK    2  A    between atoms: N_9  and  N_10 
REMARK       I    between atoms: N_10  and  C_11 
REMARK    3  A    between atoms: C_11  and  C_12 
REMARK    4  A    between atoms: C_12  and  N_13 
REMARK    5  A    between atoms: N_13  and  C_14 
REMARK    6  A    between atoms: C_15  and  O_16 
ROOT
HETATM    1  N   UNL     1      42.675 -14.972   4.396  1.00  0.00    -0.246 N 
HETATM    2  C   UNL     1      41.618 -15.398   3.597  1.00  0.00     0.250 C 
HETATM    3  O   UNL     1      40.456 -15.000   3.675  1.00  0.00    -0.270 OA
HETATM    4  H   UNL     1      43.613 -15.154   4.040  1.00  0.00     0.192 HD
ENDROOT
BRANCH   1   5
HETATM    5  N   UNL     1      42.595 -14.024   5.387  1.00  0.00    -0.184 NA
HETATM    6  C   UNL     1      42.929 -12.812   5.073  1.00  0.00     0.153 C 
BRANCH   6   7
HETATM    7  C   UNL     1      42.888 -11.749   6.062  1.00  0.00     0.018 A 
HETATM    8  C   UNL     1      41.772 -11.067   6.530  1.00  0.00     0.018 A 
HETATM    9  C   UNL     1      40.329 -11.207   6.202  1.00  0.00     0.069 C 
HETATM   10  N   UNL     1      42.204 -10.142   7.448  1.00  0.00    -0.358 N 
HETATM   11  H   UNL     1      41.606  -9.503   7.954  1.00  0.00     0.166 HD
HETATM   12  C   UNL     1      43.569 -10.199   7.594  1.00  0.00     0.043 A 
HETATM   13  C   UNL     1      44.029 -11.202   6.742  1.00  0.00     0.004 A 
HETATM   14  C   UNL     1      44.422  -9.444   8.409  1.00  0.00     0.030 A 
HETATM   15  C   UNL     1      45.415 -11.463   6.704  1.00  0.00     0.014 A 
HETATM   16  C   UNL     1      46.283 -10.717   7.509  1.00  0.00     0.001 A 
HETATM   17  C   UNL     1      45.791  -9.722   8.348  1.00  0.00     0.002 A 
ENDBRANCH   6   7
ENDBRANCH   1   5
BRANCH   2  18
HETATM   18  C   UNL     1      42.046 -16.428   2.546  1.00  0.00     0.197 C 
BRANCH  18  19
HETATM   19  N   UNL     1      43.432 -16.878   2.775  1.00  0.00    -0.282 NA
HETATM   20  H   UNL     1      43.869 -16.356   3.544  1.00  0.00     0.128 HD
BRANCH  19  21
HETATM   21  C   UNL     1      43.565 -18.247   3.125  1.00  0.00     0.042 A 
HETATM   22  C   UNL     1      43.986 -18.574   4.433  1.00  0.00     0.089 A 
HETATM   23  C   UNL     1      44.139 -19.907   4.820  1.00  0.00     0.038 A 
HETATM   24  C   UNL     1      43.935 -20.926   3.890  1.00  0.00     0.003 A 
HETATM   25  C   UNL     1      43.585 -20.613   2.578  1.00  0.00     0.002 A 
HETATM   26  C   UNL     1      43.411 -19.280   2.194  1.00  0.00     0.026 A 
BRANCH  22  27
HETATM   27  O   UNL     1      44.142 -17.513   5.298  1.00  0.00    -0.354 OA
HETATM   28  C   UNL     1      43.529 -17.706   6.568  1.00  0.00     0.210 C 
ENDBRANCH  22  27
ENDBRANCH  19  21
ENDBRANCH  18  19
ENDBRANCH   2  18
TORSDOF 6
ENDMDL
MODEL 3
REMARK VINA RESULT:      -8.1      1.923      2.439
REMARK  6 active torsions:
REMARK  status: ('A' for Active; 'I' for Inactive)
REMARK    1  A    between atoms: C_7  and  C_8 
REMARK    2  A    between atoms: N_9  and  N_10 
REMARK       I    between atoms: N_10  and  C_11 
REMARK    3  A    between atoms: C_11  and  C_12 
REMARK    4  A    between atoms: C_12  and  N_13 
REMARK    5  A    between atoms: N_13  and  C_14 
REMARK    6  A    between atoms: C_15  and  O_16 
ROOT
HETATM    1  N   UNL     1      42.258 -14.220   1.090  1.00  0.00    -0.246 N 
HETATM    2  C   UNL     1      41.669 -13.007   1.439  1.00  0.00     0.250 C 
HETATM    3  O   UNL     1      41.688 -12.498   2.559  1.00  0.00    -0.270 OA
HETATM    4  H   UNL     1      42.419 -14.374   0.095  1.00  0.00     0.192 HD
ENDROOT
BRANCH   1   5
HETATM    5  N   UNL     1      42.973 -15.031   1.936  1.00  0.00    -0.184 NA
HETATM    6  C   UNL     1      42.307 -15.912   2.613  1.00  0.00     0.153 C 
BRANCH   6   7
HETATM    7  C   UNL     1      42.980 -16.803   3.542  1.00  0.00     0.018 A 
HETATM    8  C   UNL     1      43.485 -16.495   4.799  1.00  0.00     0.018 A 
HETATM    9  C   UNL     1      43.487 -15.224   5.570  1.00  0.00     0.069 C 
HETATM   10  N   UNL     1      44.045 -17.638   5.315  1.00  0.00    -0.358 N 
HETATM   11  H   UNL     1      44.488 -17.710   6.219  1.00  0.00     0.166 HD
HETATM   12  C   UNL     1      43.919 -18.684   4.432  1.00  0.00     0.043 A 
HETATM   13  C   UNL     1      43.250 -18.195   3.312  1.00  0.00     0.004 A 
HETATM   14  C   UNL     1      44.345 -20.014   4.542  1.00  0.00     0.030 A 
HETATM   15  C   UNL     1      42.992 -19.083   2.246  1.00  0.00     0.014 A 
HETATM   16  C   UNL     1      43.413 -20.415   2.337  1.00  0.00     0.001 A 
HETATM   17  C   UNL     1      44.079 -20.871   3.470  1.00  0.00     0.002 A 
ENDBRANCH   6   7
ENDBRANCH   1   5
BRANCH   2  18
HETATM   18  C   UNL     1      40.988 -12.316   0.253  1.00  0.00     0.197 C 
BRANCH  18  19
HETATM   19  N   UNL     1      39.534 -12.568   0.251  1.00  0.00    -0.282 NA
HETATM   20  H   UNL     1      39.007 -11.695   0.374  1.00  0.00     0.128 HD
BRANCH  19  21
HETATM   21  C   UNL     1      39.030 -13.150  -0.939  1.00  0.00     0.042 A 
HETATM   22  C   UNL     1      37.896 -12.570  -1.550  1.00  0.00     0.089 A 
HETATM   23  C   UNL     1      37.359 -13.114  -2.719  1.00  0.00     0.038 A 
HETATM   24  C   UNL     1      37.908 -14.278  -3.257  1.00  0.00     0.003 A 
HETATM   25  C   UNL     1      38.985 -14.897  -2.626  1.00  0.00     0.002 A 
HETATM   26  C   UNL     1      39.537 -14.342  -1.467  1.00  0.00     0.026 A 
BRANCH  22  27
HETATM   27  O   UNL     1      37.429 -11.410  -0.972  1.00  0.00    -0.354 OA
HETATM   28  C   UNL     1      37.019 -10.420  -1.910  1.00  0.00     0.210 C 
ENDBRANCH  22  27
ENDBRANCH  19  21
ENDBRANCH  18  19
ENDBRANCH   2  18
TORSDOF 6
ENDMDL
MODEL 4
REMARK VINA RESULT:      -8.0      1.705      1.951
REMARK  6 active torsions:
REMARK  status: ('A' for Active; 'I' for Inactive)
REMARK    1  A    between atoms: C_7  and  C_8 
REMARK    2  A    between atoms: N_9  and  N_10 
REMARK       I    between atoms: N_10  and  C_11 
REMARK    3  A    between atoms: C_11  and  C_12 
REMARK    4  A    between atoms: C_12  and  N_13 
REMARK    5  A    between atoms: N_13  and  C_14 
REMARK    6  A    between atoms: C_15  and  O_16 
ROOT
HETATM    1  N   UNL     1      40.464 -14.556   2.341  1.00  0.00    -0.246 N 
HETATM    2  C   UNL     1      39.922 -13.372   2.834  1.00  0.00     0.250 C 
HETATM    3  O   UNL     1      39.861 -13.052   4.021  1.00  0.00    -0.270 OA
HETATM    4  H   UNL     1      40.714 -14.561   1.352  1.00  0.00     0.192 HD
ENDROOT
BRANCH   1   5
HETATM    5  N   UNL     1      41.036 -15.547   3.099  1.00  0.00    -0.184 NA
HETATM    6  C   UNL     1      42.326 -15.661   3.048  1.00  0.00     0.153 C 
BRANCH   6   7
HETATM    7  C   UNL     1      43.014 -16.691   3.806  1.00  0.00     0.018 A 
HETATM    8  C   UNL     1      43.609 -16.571   5.056  1.00  0.00     0.018 A 
HETATM    9  C   UNL     1      43.716 -15.415   5.983  1.00  0.00     0.069 C 
HETATM   10  N   UNL     1      44.146 -17.793   5.380  1.00  0.00    -0.358 N 
HETATM   11  H   UNL     1      44.640 -18.001   6.236  1.00  0.00     0.166 HD
HETATM   12  C   UNL     1      43.919 -18.707   4.379  1.00  0.00     0.043 A 
HETATM   13  C   UNL     1      43.205 -18.049   3.379  1.00  0.00     0.004 A 
HETATM   14  C   UNL     1      44.290 -20.055   4.286  1.00  0.00     0.030 A 
HETATM   15  C   UNL     1      42.843 -18.778   2.226  1.00  0.00     0.014 A 
HETATM   16  C   UNL     1      43.207 -20.124   2.115  1.00  0.00     0.001 A 
HETATM   17  C   UNL     1      43.920 -20.751   3.132  1.00  0.00     0.002 A 
ENDBRANCH   6   7
ENDBRANCH   1   5
BRANCH   2  18
HETATM   18  C   UNL     1      39.411 -12.446   1.725  1.00  0.00     0.197 C 
BRANCH  18  19
HETATM   19  N   UNL     1      39.118 -13.202   0.492  1.00  0.00    -0.282 NA
HETATM   20  H   UNL     1      38.121 -13.148   0.252  1.00  0.00     0.128 HD
BRANCH  19  21
HETATM   21  C   UNL     1      39.809 -12.753  -0.662  1.00  0.00     0.042 A 
HETATM   22  C   UNL     1      39.725 -13.522  -1.844  1.00  0.00     0.089 A 
HETATM   23  C   UNL     1      40.395 -13.123  -3.003  1.00  0.00     0.038 A 
HETATM   24  C   UNL     1      41.206 -11.989  -2.978  1.00  0.00     0.003 A 
HETATM   25  C   UNL     1      41.350 -11.260  -1.800  1.00  0.00     0.002 A 
HETATM   26  C   UNL     1      40.664 -11.646  -0.645  1.00  0.00     0.026 A 
BRANCH  22  27
HETATM   27  O   UNL     1      38.886 -14.612  -1.794  1.00  0.00    -0.354 OA
HETATM   28  C   UNL     1      38.495 -15.103  -3.073  1.00  0.00     0.210 C 
ENDBRANCH  22  27
ENDBRANCH  19  21
ENDBRANCH  18  19
ENDBRANCH   2  18
TORSDOF 6
ENDMDL
MODEL 5
REMARK VINA RESULT:      -8.0      3.878      6.557
REMARK  6 active torsions:
REMARK  status: ('A' for Active; 'I' for Inactive)
REMARK    1  A    between atoms: C_7  and  C_8 
REMARK    2  A    between atoms: N_9  and  N_10 
REMARK       I    between atoms: N_10  and  C_11 
REMARK    3  A    between atoms: C_11  and  C_12 
REMARK    4  A    between atoms: C_12  and  N_13 
REMARK    5  A    between atoms: N_13  and  C_14 
REMARK    6  A    between atoms: C_15  and  O_16 
ROOT
HETATM    1  N   UNL     1      42.220 -14.010   5.572  1.00  0.00    -0.246 N 
HETATM    2  C   UNL     1      42.578 -12.736   5.139  1.00  0.00     0.250 C 
HETATM    3  O   UNL     1      42.954 -12.445   4.004  1.00  0.00    -0.270 OA
HETATM    4  H   UNL     1      41.660 -14.057   6.423  1.00  0.00     0.192 HD
ENDROOT
BRANCH   1   5
HETATM    5  N   UNL     1      42.209 -15.142   4.795  1.00  0.00    -0.184 NA
HETATM    6  C   UNL     1      43.339 -15.752   4.624  1.00  0.00     0.153 C 
BRANCH   6   7
HETATM    7  C   UNL     1      43.423 -16.949   3.806  1.00  0.00     0.018 A 
HETATM    8  C   UNL     1      43.335 -17.041   2.423  1.00  0.00     0.018 A 
HETATM    9  C   UNL     1      43.150 -15.996   1.382  1.00  0.00     0.069 C 
HETATM   10  N   UNL     1      43.458 -18.366   2.084  1.00  0.00    -0.358 N 
HETATM   11  H   UNL     1      43.432 -18.728   1.142  1.00  0.00     0.166 HD
HETATM   12  C   UNL     1      43.625 -19.143   3.205  1.00  0.00     0.043 A 
HETATM   13  C   UNL     1      43.614 -18.283   4.303  1.00  0.00     0.004 A 
HETATM   14  C   UNL     1      43.783 -20.529   3.327  1.00  0.00     0.030 A 
HETATM   15  C   UNL     1      43.771 -18.841   5.590  1.00  0.00     0.014 A 
HETATM   16  C   UNL     1      43.927 -20.225   5.731  1.00  0.00     0.001 A 
HETATM   17  C   UNL     1      43.933 -21.054   4.614  1.00  0.00     0.002 A 
ENDBRANCH   6   7
ENDBRANCH   1   5
BRANCH   2  18
HETATM   18  C   UNL     1      42.432 -11.674   6.235  1.00  0.00     0.197 C 
BRANCH  18  19
HETATM   19  N   UNL     1      43.249 -12.011   7.416  1.00  0.00    -0.282 NA
HETATM   20  H   UNL     1      43.667 -12.945   7.323  1.00  0.00     0.128 HD
BRANCH  19  21
HETATM   21  C   UNL     1      44.337 -11.134   7.660  1.00  0.00     0.042 A 
HETATM   22  C   UNL     1      44.114  -9.982   8.446  1.00  0.00     0.089 A 
HETATM   23  C   UNL     1      45.153  -9.085   8.707  1.00  0.00     0.038 A 
HETATM   24  C   UNL     1      46.408  -9.294   8.135  1.00  0.00     0.003 A 
HETATM   25  C   UNL     1      46.621 -10.391   7.303  1.00  0.00     0.002 A 
HETATM   26  C   UNL     1      45.588 -11.301   7.058  1.00  0.00     0.026 A 
BRANCH  22  27
HETATM   27  O   UNL     1      42.857  -9.861   8.995  1.00  0.00    -0.354 OA
HETATM   28  C   UNL     1      42.804  -9.026  10.147  1.00  0.00     0.210 C 
ENDBRANCH  22  27
ENDBRANCH  19  21
ENDBRANCH  18  19
ENDBRANCH   2  18
TORSDOF 6
ENDMDL
MODEL 6
REMARK VINA RESULT:      -7.7      4.724      7.412
REMARK  6 active torsions:
REMARK  status: ('A' for Active; 'I' for Inactive)
REMARK    1  A    between atoms: C_7  and  C_8 
REMARK    2  A    between atoms: N_9  and  N_10 
REMARK       I    between atoms: N_10  and  C_11 
REMARK    3  A    between atoms: C_11  and  C_12 
REMARK    4  A    between atoms: C_12  and  N_13 
REMARK    5  A    between atoms: N_13  and  C_14 
REMARK    6  A    between atoms: C_15  and  O_16 
ROOT
HETATM    1  N   UNL     1      43.891 -12.751   6.641  1.00  0.00    -0.246 N 
HETATM    2  C   UNL     1      44.763 -11.665   6.642  1.00  0.00     0.250 C 
HETATM    3  O   UNL     1      45.263 -11.147   5.644  1.00  0.00    -0.270 OA
HETATM    4  H   UNL     1      43.335 -12.885   7.485  1.00  0.00     0.192 HD
ENDROOT
BRANCH   1   5
HETATM    5  N   UNL     1      43.435 -13.405   5.524  1.00  0.00    -0.184 NA
HETATM    6  C   UNL     1      43.100 -14.650   5.663  1.00  0.00     0.153 C 
BRANCH   6   7
HETATM    7  C   UNL     1      42.620 -15.423   4.531  1.00  0.00     0.018 A 
HETATM    8  C   UNL     1      41.583 -15.105   3.664  1.00  0.00     0.018 A 
HETATM    9  C   UNL     1      40.683 -13.924   3.604  1.00  0.00     0.069 C 
HETATM   10  N   UNL     1      41.474 -16.127   2.752  1.00  0.00    -0.358 N 
HETATM   11  H   UNL     1      40.803 -16.163   1.999  1.00  0.00     0.166 HD
HETATM   12  C   UNL     1      42.410 -17.102   2.999  1.00  0.00     0.043 A 
HETATM   13  C   UNL     1      43.150 -16.688   4.106  1.00  0.00     0.004 A 
HETATM   14  C   UNL     1      42.654 -18.309   2.331  1.00  0.00     0.030 A 
HETATM   15  C   UNL     1      44.189 -17.526   4.567  1.00  0.00     0.014 A 
HETATM   16  C   UNL     1      44.444 -18.736   3.913  1.00  0.00     0.001 A 
HETATM   17  C   UNL     1      43.687 -19.120   2.811  1.00  0.00     0.002 A 
ENDBRANCH   6   7
ENDBRANCH   1   5
BRANCH   2  18
HETATM   18  C   UNL     1      45.037 -11.126   8.051  1.00  0.00     0.197 C 
BRANCH  18  19
HETATM   19  N   UNL     1      43.868 -11.314   8.930  1.00  0.00    -0.282 NA
HETATM   20  H   UNL     1      44.030 -12.071   9.605  1.00  0.00     0.128 HD
BRANCH  19  21
HETATM   21  C   UNL     1      43.519 -10.181   9.710  1.00  0.00     0.042 A 
HETATM   22  C   UNL     1      42.540  -9.293   9.214  1.00  0.00     0.089 A 
HETATM   23  C   UNL     1      42.170  -8.160   9.942  1.00  0.00     0.038 A 
HETATM   24  C   UNL     1      42.816  -7.868  11.144  1.00  0.00     0.003 A 
HETATM   25  C   UNL     1      43.831  -8.702  11.610  1.00  0.00     0.002 A 
HETATM   26  C   UNL     1      44.188  -9.846  10.892  1.00  0.00     0.026 A 
BRANCH  22  27
HETATM   27  O   UNL     1      41.932  -9.664   8.035  1.00  0.00    -0.354 OA
HETATM   28  C   UNL     1      42.091  -8.724   6.978  1.00  0.00     0.210 C 
ENDBRANCH  22  27
ENDBRANCH  19  21
ENDBRANCH  18  19
ENDBRANCH   2  18
TORSDOF 6
ENDMDL
MODEL 7
REMARK VINA RESULT:      -7.6      5.848      8.383
REMARK  6 active torsions:
REMARK  status: ('A' for Active; 'I' for Inactive)
REMARK    1  A    between atoms: C_7  and  C_8 
REMARK    2  A    between atoms: N_9  and  N_10 
REMARK       I    between atoms: N_10  and  C_11 
REMARK    3  A    between atoms: C_11  and  C_12 
REMARK    4  A    between atoms: C_12  and  N_13 
REMARK    5  A    between atoms: N_13  and  C_14 
REMARK    6  A    between atoms: C_15  and  O_16 
ROOT
HETATM    1  N   UNL     1      43.421 -11.860   7.480  1.00  0.00    -0.246 N 
HETATM    2  C   UNL     1      44.307 -11.003   8.127  1.00  0.00     0.250 C 
HETATM    3  O   UNL     1      45.520 -11.174   8.234  1.00  0.00    -0.270 OA
HETATM    4  H   UNL     1      42.520 -11.464   7.214  1.00  0.00     0.192 HD
ENDROOT
BRANCH   1   5
HETATM    5  N   UNL     1      43.764 -13.025   6.839  1.00  0.00    -0.184 NA
HETATM    6  C   UNL     1      42.818 -13.663   6.224  1.00  0.00     0.153 C 
BRANCH   6   7
HETATM    7  C   UNL     1      43.088 -14.911   5.532  1.00  0.00     0.018 A 
HETATM    8  C   UNL     1      43.410 -16.140   6.093  1.00  0.00     0.018 A 
HETATM    9  C   UNL     1      43.559 -16.561   7.510  1.00  0.00     0.069 C 
HETATM   10  N   UNL     1      43.589 -17.033   5.065  1.00  0.00    -0.358 N 
HETATM   11  H   UNL     1      43.830 -18.007   5.177  1.00  0.00     0.166 HD
HETATM   12  C   UNL     1      43.394 -16.422   3.849  1.00  0.00     0.043 A 
HETATM   13  C   UNL     1      43.071 -15.091   4.107  1.00  0.00     0.004 A 
HETATM   14  C   UNL     1      43.478 -16.946   2.552  1.00  0.00     0.030 A 
HETATM   15  C   UNL     1      42.819 -14.239   3.010  1.00  0.00     0.014 A 
HETATM   16  C   UNL     1      42.901 -14.744   1.708  1.00  0.00     0.001 A 
HETATM   17  C   UNL     1      43.226 -16.079   1.485  1.00  0.00     0.002 A 
ENDBRANCH   6   7
ENDBRANCH   1   5
BRANCH   2  18
HETATM   18  C   UNL     1      43.617  -9.758   8.696  1.00  0.00     0.197 C 
BRANCH  18  19
HETATM   19  N   UNL     1      42.473 -10.126   9.551  1.00  0.00    -0.282 NA
HETATM   20  H   UNL     1      42.493 -11.126   9.786  1.00  0.00     0.128 HD
BRANCH  19  21
HETATM   21  C   UNL     1      42.414  -9.447  10.795  1.00  0.00     0.042 A 
HETATM   22  C   UNL     1      41.149  -9.186  11.365  1.00  0.00     0.089 A 
HETATM   23  C   UNL     1      41.041  -8.513  12.584  1.00  0.00     0.038 A 
HETATM   24  C   UNL     1      42.190  -8.038  13.217  1.00  0.00     0.003 A 
HETATM   25  C   UNL     1      43.439  -8.231  12.631  1.00  0.00     0.002 A 
HETATM   26  C   UNL     1      43.550  -8.922  11.421  1.00  0.00     0.026 A 
BRANCH  22  27
HETATM   27  O   UNL     1      40.066  -9.708  10.693  1.00  0.00    -0.354 OA
HETATM   28  C   UNL     1      39.155  -8.727  10.208  1.00  0.00     0.210 C 
ENDBRANCH  22  27
ENDBRANCH  19  21
ENDBRANCH  18  19
ENDBRANCH   2  18
TORSDOF 6
ENDMDL
MODEL 8
REMARK VINA RESULT:      -7.6      2.028      2.853
REMARK  6 active torsions:
REMARK  status: ('A' for Active; 'I' for Inactive)
REMARK    1  A    between atoms: C_7  and  C_8 
REMARK    2  A    between atoms: N_9  and  N_10 
REMARK       I    between atoms: N_10  and  C_11 
REMARK    3  A    between atoms: C_11  and  C_12 
REMARK    4  A    between atoms: C_12  and  N_13 
REMARK    5  A    between atoms: N_13  and  C_14 
REMARK    6  A    between atoms: C_15  and  O_16 
ROOT
HETATM    1  N   UNL     1      41.585 -14.391   0.975  1.00  0.00    -0.246 N 
HETATM    2  C   UNL     1      40.493 -14.618   0.140  1.00  0.00     0.250 C 
HETATM    3  O   UNL     1      39.662 -15.515   0.277  1.00  0.00    -0.270 OA
HETATM    4  H   UNL     1      42.009 -13.465   0.921  1.00  0.00     0.192 HD
ENDROOT
BRANCH   1   5
HETATM    5  N   UNL     1      41.896 -15.119   2.096  1.00  0.00    -0.184 NA
HETATM    6  C   UNL     1      42.850 -15.990   1.990  1.00  0.00     0.153 C 
BRANCH   6   7
HETATM    7  C   UNL     1      43.236 -16.814   3.122  1.00  0.00     0.018 A 
HETATM    8  C   UNL     1      43.481 -16.404   4.426  1.00  0.00     0.018 A 
HETATM    9  C   UNL     1      43.417 -15.061   5.060  1.00  0.00     0.069 C 
HETATM   10  N   UNL     1      43.825 -17.516   5.154  1.00  0.00    -0.358 N 
HETATM   11  H   UNL     1      44.056 -17.518   6.137  1.00  0.00     0.166 HD
HETATM   12  C   UNL     1      43.811 -18.641   4.364  1.00  0.00     0.043 A 
HETATM   13  C   UNL     1      43.439 -18.235   3.083  1.00  0.00     0.004 A 
HETATM   14  C   UNL     1      44.097 -19.974   4.686  1.00  0.00     0.030 A 
HETATM   15  C   UNL     1      43.347 -19.215   2.072  1.00  0.00     0.014 A 
HETATM   16  C   UNL     1      43.633 -20.552   2.374  1.00  0.00     0.001 A 
HETATM   17  C   UNL     1      44.002 -20.923   3.663  1.00  0.00     0.002 A 
ENDBRANCH   6   7
ENDBRANCH   1   5
BRANCH   2  18
HETATM   18  C   UNL     1      40.394 -13.596  -0.998  1.00  0.00     0.197 C 
BRANCH  18  19
HETATM   19  N   UNL     1      40.453 -12.216  -0.482  1.00  0.00    -0.282 NA
HETATM   20  H   UNL     1      40.898 -11.585  -1.160  1.00  0.00     0.128 HD
BRANCH  19  21
HETATM   21  C   UNL     1      39.193 -11.632  -0.192  1.00  0.00     0.042 A 
HETATM   22  C   UNL     1      38.782 -11.542   1.156  1.00  0.00     0.089 A 
HETATM   23  C   UNL     1      37.547 -10.982   1.489  1.00  0.00     0.038 A 
HETATM   24  C   UNL     1      36.682 -10.563   0.479  1.00  0.00     0.003 A 
HETATM   25  C   UNL     1      37.048 -10.709  -0.858  1.00  0.00     0.002 A 
HETATM   26  C   UNL     1      38.293 -11.250  -1.192  1.00  0.00     0.026 A 
BRANCH  22  27
HETATM   27  O   UNL     1      39.703 -11.954   2.095  1.00  0.00    -0.354 OA
HETATM   28  C   UNL     1      39.155 -12.769   3.126  1.00  0.00     0.210 C 
ENDBRANCH  22  27
ENDBRANCH  19  21
ENDBRANCH  18  19
ENDBRANCH   2  18
TORSDOF 6
ENDMDL
MODEL 9
REMARK VINA RESULT:      -7.6      4.323      7.290
REMARK  6 active torsions:
REMARK  status: ('A' for Active; 'I' for Inactive)
REMARK    1  A    between atoms: C_7  and  C_8 
REMARK    2  A    between atoms: N_9  and  N_10 
REMARK       I    between atoms: N_10  and  C_11 
REMARK    3  A    between atoms: C_11  and  C_12 
REMARK    4  A    between atoms: C_12  and  N_13 
REMARK    5  A    between atoms: N_13  and  C_14 
REMARK    6  A    between atoms: C_15  and  O_16 
ROOT
HETATM    1  N   UNL     1      42.949 -11.634   5.530  1.00  0.00    -0.246 N 
HETATM    2  C   UNL     1      42.446 -10.356   5.302  1.00  0.00     0.250 C 
HETATM    3  O   UNL     1      42.173  -9.880   4.201  1.00  0.00    -0.270 OA
HETATM    4  H   UNL     1      42.852 -11.996   6.478  1.00  0.00     0.192 HD
ENDROOT
BRANCH   1   5
HETATM    5  N   UNL     1      43.202 -12.575   4.563  1.00  0.00    -0.184 NA
HETATM    6  C   UNL     1      42.229 -13.370   4.243  1.00  0.00     0.153 C 
BRANCH   6   7
HETATM    7  C   UNL     1      42.412 -14.405   3.240  1.00  0.00     0.018 A 
HETATM    8  C   UNL     1      42.104 -14.340   1.888  1.00  0.00     0.018 A 
HETATM    9  C   UNL     1      41.531 -13.243   1.064  1.00  0.00     0.069 C 
HETATM   10  N   UNL     1      42.434 -15.549   1.327  1.00  0.00    -0.358 N 
HETATM   11  H   UNL     1      42.320 -15.788   0.352  1.00  0.00     0.166 HD
HETATM   12  C   UNL     1      42.950 -16.402   2.274  1.00  0.00     0.043 A 
HETATM   13  C   UNL     1      42.956 -15.712   3.485  1.00  0.00     0.004 A 
HETATM   14  C   UNL     1      43.408 -17.720   2.148  1.00  0.00     0.030 A 
HETATM   15  C   UNL     1      43.446 -16.375   4.630  1.00  0.00     0.014 A 
HETATM   16  C   UNL     1      43.904 -17.693   4.524  1.00  0.00     0.001 A 
HETATM   17  C   UNL     1      43.885 -18.353   3.299  1.00  0.00     0.002 A 
ENDBRANCH   6   7
ENDBRANCH   1   5
BRANCH   2  18
HETATM   18  C   UNL     1      42.224  -9.566   6.597  1.00  0.00     0.197 C 
BRANCH  18  19
HETATM   19  N   UNL     1      42.250 -10.455   7.774  1.00  0.00    -0.282 NA
HETATM   20  H   UNL     1      42.662 -11.367   7.541  1.00  0.00     0.128 HD
BRANCH  19  21
HETATM   21  C   UNL     1      43.005  -9.970   8.873  1.00  0.00     0.042 A 
HETATM   22  C   UNL     1      44.299 -10.492   9.088  1.00  0.00     0.089 A 
HETATM   23  C   UNL     1      45.077 -10.051  10.162  1.00  0.00     0.038 A 
HETATM   24  C   UNL     1      44.548  -9.130  11.067  1.00  0.00     0.003 A 
HETATM   25  C   UNL     1      43.247  -8.658  10.902  1.00  0.00     0.002 A 
HETATM   26  C   UNL     1      42.476  -9.084   9.817  1.00  0.00     0.026 A 
BRANCH  22  27
HETATM   27  O   UNL     1      44.758 -11.376   8.137  1.00  0.00    -0.354 OA
HETATM   28  C   UNL     1      45.890 -10.910   7.409  1.00  0.00     0.210 C 
ENDBRANCH  22  27
ENDBRANCH  19  21
ENDBRANCH  18  19
ENDBRANCH   2  18
TORSDOF 6
ENDMDL
MODEL 10
REMARK VINA RESULT:      -7.4      2.099      2.273
REMARK  6 active torsions:
REMARK  status: ('A' for Active; 'I' for Inactive)
REMARK    1  A    between atoms: C_7  and  C_8 
REMARK    2  A    between atoms: N_9  and  N_10 
REMARK       I    between atoms: N_10  and  C_11 
REMARK    3  A    between atoms: C_11  and  C_12 
REMARK    4  A    between atoms: C_12  and  N_13 
REMARK    5  A    between atoms: N_13  and  C_14 
REMARK    6  A    between atoms: C_15  and  O_16 
ROOT
HETATM    1  N   UNL     1      39.751 -13.634   2.789  1.00  0.00    -0.246 N 
HETATM    2  C   UNL     1      39.236 -12.453   3.316  1.00  0.00     0.250 C 
HETATM    3  O   UNL     1      39.355 -12.078   4.482  1.00  0.00    -0.270 OA
HETATM    4  H   UNL     1      39.835 -13.678   1.773  1.00  0.00     0.192 HD
ENDROOT
BRANCH   1   5
HETATM    5  N   UNL     1      40.492 -14.560   3.481  1.00  0.00    -0.184 NA
HETATM    6  C   UNL     1      41.778 -14.530   3.319  1.00  0.00     0.153 C 
BRANCH   6   7
HETATM    7  C   UNL     1      42.637 -15.481   4.001  1.00  0.00     0.018 A 
HETATM    8  C   UNL     1      43.310 -15.307   5.203  1.00  0.00     0.018 A 
HETATM    9  C   UNL     1      43.355 -14.157   6.144  1.00  0.00     0.069 C 
HETATM   10  N   UNL     1      44.009 -16.461   5.461  1.00  0.00    -0.358 N 
HETATM   11  H   UNL     1      44.589 -16.620   6.271  1.00  0.00     0.166 HD
HETATM   12  C   UNL     1      43.812 -17.384   4.461  1.00  0.00     0.043 A 
HETATM   13  C   UNL     1      42.950 -16.802   3.532  1.00  0.00     0.004 A 
HETATM   14  C   UNL     1      44.327 -18.678   4.313  1.00  0.00     0.030 A 
HETATM   15  C   UNL     1      42.585 -17.556   2.396  1.00  0.00     0.014 A 
HETATM   16  C   UNL     1      43.093 -18.849   2.230  1.00  0.00     0.001 A 
HETATM   17  C   UNL     1      43.951 -19.400   3.176  1.00  0.00     0.002 A 
ENDBRANCH   6   7
ENDBRANCH   1   5
BRANCH   2  18
HETATM   18  C   UNL     1      38.501 -11.608   2.270  1.00  0.00     0.197 C 
BRANCH  18  19
HETATM   19  N   UNL     1      39.320 -11.430   1.056  1.00  0.00    -0.282 NA
HETATM   20  H   UNL     1      40.163 -12.017   1.089  1.00  0.00     0.128 HD
BRANCH  19  21
HETATM   21  C   UNL     1      38.670 -11.771  -0.158  1.00  0.00     0.042 A 
HETATM   22  C   UNL     1      39.122 -12.900  -0.875  1.00  0.00     0.089 A 
HETATM   23  C   UNL     1      38.519 -13.269  -2.079  1.00  0.00     0.038 A 
HETATM   24  C   UNL     1      37.499 -12.481  -2.612  1.00  0.00     0.003 A 
HETATM   25  C   UNL     1      37.090 -11.327  -1.947  1.00  0.00     0.002 A 
HETATM   26  C   UNL     1      37.679 -10.968  -0.732  1.00  0.00     0.026 A 
BRANCH  22  27
HETATM   27  O   UNL     1      40.114 -13.640  -0.269  1.00  0.00    -0.354 OA
HETATM   28  C   UNL     1      39.851 -15.039  -0.227  1.00  0.00     0.210 C 
ENDBRANCH  22  27
ENDBRANCH  19  21
ENDBRANCH  18  19
ENDBRANCH   2  18
TORSDOF 6
ENDMDL
