MODEL 1
REMARK VINA RESULT:      -8.8      0.000      0.000
REMARK  5 active torsions:
REMARK  status: ('A' for Active; 'I' for Inactive)
REMARK    1  A    between atoms: C_3  and  N_4 
REMARK       I    between atoms: N_4  and  C_5 
REMARK       I    between atoms: C_5  and  N_6 
REMARK    2  A    between atoms: N_6  and  N_7 
REMARK    3  A    between atoms: N_7  and  C_8 
REMARK    4  A    between atoms: N_7  and  C_14 
REMARK    5  A    between atoms: C_14  and  C_15 
ROOT
HETATM    1  N   UNL     1      42.167 -15.948   2.673  1.00  0.00    -0.284 N 
ENDROOT
BRANCH   1   2
HETATM    2  N   UNL     1      41.026 -15.782   1.857  1.00  0.00    -0.249 N 
HETATM    3  C   UNL     1      40.967 -14.686   0.996  1.00  0.00     0.339 C 
HETATM    4  N   UNL     1      39.911 -14.818   0.108  1.00  0.00    -0.306 N 
HETATM    5  O   UNL     1      41.765 -13.758   1.021  1.00  0.00    -0.245 OA
HETATM    6  H   UNL     1      39.688 -15.779  -0.107  1.00  0.00     0.171 HD
HETATM    7  H   UNL     1      40.542 -16.643   1.642  1.00  0.00     0.192 HD
BRANCH   4   8
HETATM    8  C   UNL     1      39.536 -13.871  -0.876  1.00  0.00     0.059 A 
HETATM    9  C   UNL     1      39.007 -12.595  -0.634  1.00  0.00    -0.032 A 
HETATM   10  C   UNL     1      38.665 -12.053   0.725  1.00  0.00     0.050 C 
HETATM   11  C   UNL     1      38.743 -11.765  -1.739  1.00  0.00     0.028 A 
HETATM   12  C   UNL     1      38.945 -12.245  -3.022  1.00  0.00     0.117 A 
HETATM   13  N   UNL     1      39.381 -13.489  -3.289  1.00  0.00    -0.271 NA
HETATM   14  C   UNL     1      39.660 -14.264  -2.214  1.00  0.00     0.146 A 
ENDBRANCH   4   8
ENDBRANCH   1   2
BRANCH   1  15
HETATM   15  C   UNL     1      41.985 -15.727   4.046  1.00  0.00     0.051 A 
HETATM   16  C   UNL     1      40.878 -16.258   4.735  1.00  0.00     0.031 A 
HETATM   17  C   UNL     1      40.690 -16.056   6.107  1.00  0.00     0.002 A 
HETATM   18  C   UNL     1      41.604 -15.303   6.834  1.00  0.00     0.000 A 
HETATM   19  C   UNL     1      42.700 -14.750   6.183  1.00  0.00     0.002 A 
HETATM   20  C   UNL     1      42.881 -14.957   4.810  1.00  0.00     0.031 A 
ENDBRANCH   1  15
BRANCH   1  21
HETATM   21  C   UNL     1      43.269 -16.742   2.104  1.00  0.00     0.187 C 
BRANCH  21  22
HETATM   22  C   UNL     1      43.492 -18.092   2.769  1.00  0.00    -0.038 A 
HETATM   23  C   UNL     1      44.072 -18.246   4.038  1.00  0.00     0.009 A 
HETATM   24  C   UNL     1      44.290 -19.517   4.577  1.00  0.00     0.001 A 
HETATM   25  C   UNL     1      43.946 -20.654   3.852  1.00  0.00     0.000 A 
HETATM   26  C   UNL     1      43.382 -20.522   2.586  1.00  0.00     0.001 A 
HETATM   27  C   UNL     1      43.159 -19.252   2.048  1.00  0.00     0.009 A 
ENDBRANCH  21  22
ENDBRANCH   1  21
TORSDOF 5
ENDMDL
MODEL 2
REMARK VINA RESULT:      -8.3      1.798      2.613
REMARK  5 active torsions:
REMARK  status: ('A' for Active; 'I' for Inactive)
REMARK    1  A    between atoms: C_3  and  N_4 
REMARK       I    between atoms: N_4  and  C_5 
REMARK       I    between atoms: C_5  and  N_6 
REMARK    2  A    between atoms: N_6  and  N_7 
REMARK    3  A    between atoms: N_7  and  C_8 
REMARK    4  A    between atoms: N_7  and  C_14 
REMARK    5  A    between atoms: C_14  and  C_15 
ROOT
HETATM    1  N   UNL     1      42.233 -14.910   2.439  1.00  0.00    -0.284 N 
ENDROOT
BRANCH   1   2
HETATM    2  N   UNL     1      41.973 -14.591   1.087  1.00  0.00    -0.249 N 
HETATM    3  C   UNL     1      40.715 -14.097   0.742  1.00  0.00     0.339 C 
HETATM    4  N   UNL     1      40.720 -13.611  -0.556  1.00  0.00    -0.306 N 
HETATM    5  O   UNL     1      39.758 -14.080   1.506  1.00  0.00    -0.245 OA
HETATM    6  H   UNL     1      41.618 -13.254  -0.845  1.00  0.00     0.171 HD
HETATM    7  H   UNL     1      42.796 -14.347   0.553  1.00  0.00     0.192 HD
BRANCH   4   8
HETATM    8  C   UNL     1      39.602 -13.074  -1.241  1.00  0.00     0.059 A 
HETATM    9  C   UNL     1      38.723 -13.786  -2.070  1.00  0.00    -0.032 A 
HETATM   10  C   UNL     1      38.878 -15.233  -2.442  1.00  0.00     0.050 C 
HETATM   11  C   UNL     1      37.630 -13.096  -2.626  1.00  0.00     0.028 A 
HETATM   12  C   UNL     1      37.489 -11.737  -2.399  1.00  0.00     0.117 A 
HETATM   13  N   UNL     1      38.355 -11.012  -1.670  1.00  0.00    -0.271 NA
HETATM   14  C   UNL     1      39.384 -11.697  -1.116  1.00  0.00     0.146 A 
ENDBRANCH   4   8
ENDBRANCH   1   2
BRANCH   1  15
HETATM   15  C   UNL     1      42.645 -13.848   3.258  1.00  0.00     0.051 A 
HETATM   16  C   UNL     1      42.318 -13.808   4.627  1.00  0.00     0.031 A 
HETATM   17  C   UNL     1      42.732 -12.761   5.459  1.00  0.00     0.002 A 
HETATM   18  C   UNL     1      43.483 -11.713   4.941  1.00  0.00     0.000 A 
HETATM   19  C   UNL     1      43.810 -11.711   3.591  1.00  0.00     0.002 A 
HETATM   20  C   UNL     1      43.392 -12.762   2.765  1.00  0.00     0.031 A 
ENDBRANCH   1  15
BRANCH   1  21
HETATM   21  C   UNL     1      41.638 -16.157   2.943  1.00  0.00     0.187 C 
BRANCH  21  22
HETATM   22  C   UNL     1      42.637 -17.260   3.259  1.00  0.00    -0.038 A 
HETATM   23  C   UNL     1      42.995 -18.269   2.350  1.00  0.00     0.009 A 
HETATM   24  C   UNL     1      43.888 -19.279   2.715  1.00  0.00     0.001 A 
HETATM   25  C   UNL     1      44.426 -19.308   3.998  1.00  0.00     0.000 A 
HETATM   26  C   UNL     1      44.073 -18.325   4.919  1.00  0.00     0.001 A 
HETATM   27  C   UNL     1      43.185 -17.311   4.554  1.00  0.00     0.009 A 
ENDBRANCH  21  22
ENDBRANCH   1  21
TORSDOF 5
ENDMDL
MODEL 3
REMARK VINA RESULT:      -8.3      1.821      4.383
REMARK  5 active torsions:
REMARK  status: ('A' for Active; 'I' for Inactive)
REMARK    1  A    between atoms: C_3  and  N_4 
REMARK       I    between atoms: N_4  and  C_5 
REMARK       I    between atoms: C_5  and  N_6 
REMARK    2  A    between atoms: N_6  and  N_7 
REMARK    3  A    between atoms: N_7  and  C_8 
REMARK    4  A    between atoms: N_7  and  C_14 
REMARK    5  A    between atoms: C_14  and  C_15 
ROOT
HETATM    1  N   UNL     1      42.579 -15.096   2.552  1.00  0.00    -0.284 N 
ENDROOT
BRANCH   1   2
HETATM    2  N   UNL     1      42.287 -14.831   1.195  1.00  0.00    -0.249 N 
HETATM    3  C   UNL     1      40.959 -14.641   0.816  1.00  0.00     0.339 C 
HETATM    4  N   UNL     1      40.885 -14.152  -0.479  1.00  0.00    -0.306 N 
HETATM    5  O   UNL     1      40.004 -14.857   1.552  1.00  0.00    -0.245 OA
HETATM    6  H   UNL     1      41.683 -13.592  -0.740  1.00  0.00     0.171 HD
HETATM    7  H   UNL     1      43.045 -14.395   0.687  1.00  0.00     0.192 HD
BRANCH   4   8
HETATM    8  C   UNL     1      39.692 -13.884  -1.194  1.00  0.00     0.059 A 
HETATM    9  C   UNL     1      38.835 -12.794  -0.989  1.00  0.00    -0.032 A 
HETATM   10  C   UNL     1      38.997 -11.768   0.097  1.00  0.00     0.050 C 
HETATM   11  C   UNL     1      37.719 -12.658  -1.835  1.00  0.00     0.028 A 
HETATM   12  C   UNL     1      37.461 -13.626  -2.792  1.00  0.00     0.117 A 
HETATM   13  N   UNL     1      38.223 -14.722  -2.964  1.00  0.00    -0.271 NA
HETATM   14  C   UNL     1      39.310 -14.820  -2.162  1.00  0.00     0.146 A 
ENDBRANCH   4   8
ENDBRANCH   1   2
BRANCH   1  15
HETATM   15  C   UNL     1      42.988 -16.403   2.856  1.00  0.00     0.051 A 
HETATM   16  C   UNL     1      43.612 -16.712   4.079  1.00  0.00     0.031 A 
HETATM   17  C   UNL     1      44.016 -18.013   4.399  1.00  0.00     0.002 A 
HETATM   18  C   UNL     1      43.813 -19.049   3.496  1.00  0.00     0.000 A 
HETATM   19  C   UNL     1      43.215 -18.778   2.272  1.00  0.00     0.002 A 
HETATM   20  C   UNL     1      42.814 -17.473   1.959  1.00  0.00     0.031 A 
ENDBRANCH   1  15
BRANCH   1  21
HETATM   21  C   UNL     1      42.858 -13.927   3.402  1.00  0.00     0.187 C 
BRANCH  21  22
HETATM   22  C   UNL     1      41.680 -13.449   4.237  1.00  0.00    -0.038 A 
HETATM   23  C   UNL     1      41.242 -14.094   5.405  1.00  0.00     0.009 A 
HETATM   24  C   UNL     1      40.125 -13.631   6.105  1.00  0.00     0.001 A 
HETATM   25  C   UNL     1      39.419 -12.524   5.643  1.00  0.00     0.000 A 
HETATM   26  C   UNL     1      39.828 -11.878   4.479  1.00  0.00     0.001 A 
HETATM   27  C   UNL     1      40.947 -12.338   3.781  1.00  0.00     0.009 A 
ENDBRANCH  21  22
ENDBRANCH   1  21
TORSDOF 5
ENDMDL
MODEL 4
REMARK VINA RESULT:      -8.1      2.011      2.810
REMARK  5 active torsions:
REMARK  status: ('A' for Active; 'I' for Inactive)
REMARK    1  A    between atoms: C_3  and  N_4 
REMARK       I    between atoms: N_4  and  C_5 
REMARK       I    between atoms: C_5  and  N_6 
REMARK    2  A    between atoms: N_6  and  N_7 
REMARK    3  A    between atoms: N_7  and  C_8 
REMARK    4  A    between atoms: N_7  and  C_14 
REMARK    5  A    between atoms: C_14  and  C_15 
ROOT
HETATM    1  N   UNL     1      41.963 -13.996   4.164  1.00  0.00    -0.284 N 
ENDROOT
BRANCH   1   2
HETATM    2  N   UNL     1      41.229 -13.247   3.218  1.00  0.00    -0.249 N 
HETATM    3  C   UNL     1      41.539 -13.382   1.865  1.00  0.00     0.339 C 
HETATM    4  N   UNL     1      40.571 -12.777   1.079  1.00  0.00    -0.306 N 
HETATM    5  O   UNL     1      42.523 -13.981   1.449  1.00  0.00    -0.245 OA
HETATM    6  H   UNL     1      39.654 -12.781   1.501  1.00  0.00     0.171 HD
HETATM    7  H   UNL     1      40.296 -12.999   3.519  1.00  0.00     0.192 HD
BRANCH   4   8
HETATM    8  C   UNL     1      40.590 -12.690  -0.335  1.00  0.00     0.059 A 
HETATM    9  C   UNL     1      40.060 -13.632  -1.227  1.00  0.00    -0.032 A 
HETATM   10  C   UNL     1      39.456 -14.948  -0.825  1.00  0.00     0.050 C 
HETATM   11  C   UNL     1      40.121 -13.351  -2.604  1.00  0.00     0.028 A 
HETATM   12  C   UNL     1      40.753 -12.199  -3.042  1.00  0.00     0.117 A 
HETATM   13  N   UNL     1      41.336 -11.312  -2.216  1.00  0.00    -0.271 NA
HETATM   14  C   UNL     1      41.241 -11.583  -0.892  1.00  0.00     0.146 A 
ENDBRANCH   4   8
ENDBRANCH   1   2
BRANCH   1  15
HETATM   15  C   UNL     1      42.849 -13.273   4.976  1.00  0.00     0.051 A 
HETATM   16  C   UNL     1      43.056 -13.616   6.326  1.00  0.00     0.031 A 
HETATM   17  C   UNL     1      43.945 -12.910   7.145  1.00  0.00     0.002 A 
HETATM   18  C   UNL     1      44.652 -11.827   6.637  1.00  0.00     0.000 A 
HETATM   19  C   UNL     1      44.460 -11.450   5.314  1.00  0.00     0.002 A 
HETATM   20  C   UNL     1      43.569 -12.161   4.501  1.00  0.00     0.031 A 
ENDBRANCH   1  15
BRANCH   1  21
HETATM   21  C   UNL     1      41.425 -15.322   4.509  1.00  0.00     0.187 C 
BRANCH  21  22
HETATM   22  C   UNL     1      42.280 -16.496   4.056  1.00  0.00    -0.038 A 
HETATM   23  C   UNL     1      43.323 -17.039   4.823  1.00  0.00     0.009 A 
HETATM   24  C   UNL     1      44.101 -18.091   4.333  1.00  0.00     0.001 A 
HETATM   25  C   UNL     1      43.860 -18.608   3.063  1.00  0.00     0.000 A 
HETATM   26  C   UNL     1      42.840 -18.073   2.281  1.00  0.00     0.001 A 
HETATM   27  C   UNL     1      42.058 -17.025   2.772  1.00  0.00     0.009 A 
ENDBRANCH  21  22
ENDBRANCH   1  21
TORSDOF 5
ENDMDL
MODEL 5
REMARK VINA RESULT:      -7.8      1.807      4.387
REMARK  5 active torsions:
REMARK  status: ('A' for Active; 'I' for Inactive)
REMARK    1  A    between atoms: C_3  and  N_4 
REMARK       I    between atoms: N_4  and  C_5 
REMARK       I    between atoms: C_5  and  N_6 
REMARK    2  A    between atoms: N_6  and  N_7 
REMARK    3  A    between atoms: N_7  and  C_8 
REMARK    4  A    between atoms: N_7  and  C_14 
REMARK    5  A    between atoms: C_14  and  C_15 
ROOT
HETATM    1  N   UNL     1      41.994 -15.397   3.885  1.00  0.00    -0.284 N 
ENDROOT
BRANCH   1   2
HETATM    2  N   UNL     1      41.962 -14.721   2.645  1.00  0.00    -0.249 N 
HETATM    3  C   UNL     1      40.750 -14.620   1.963  1.00  0.00     0.339 C 
HETATM    4  N   UNL     1      40.854 -13.726   0.910  1.00  0.00    -0.306 N 
HETATM    5  O   UNL     1      39.737 -15.228   2.285  1.00  0.00    -0.245 OA
HETATM    6  H   UNL     1      41.527 -12.992   1.074  1.00  0.00     0.171 HD
HETATM    7  H   UNL     1      42.683 -14.021   2.536  1.00  0.00     0.192 HD
BRANCH   4   8
HETATM    8  C   UNL     1      39.826 -13.414  -0.014  1.00  0.00     0.059 A 
HETATM    9  C   UNL     1      38.967 -12.308   0.050  1.00  0.00    -0.032 A 
HETATM   10  C   UNL     1      38.938 -11.309   1.172  1.00  0.00     0.050 C 
HETATM   11  C   UNL     1      38.038 -12.127  -0.991  1.00  0.00     0.028 A 
HETATM   12  C   UNL     1      37.950 -13.069  -2.003  1.00  0.00     0.117 A 
HETATM   13  N   UNL     1      38.709 -14.178  -2.054  1.00  0.00    -0.271 NA
HETATM   14  C   UNL     1      39.619 -14.320  -1.061  1.00  0.00     0.146 A 
ENDBRANCH   4   8
ENDBRANCH   1   2
BRANCH   1  15
HETATM   15  C   UNL     1      42.764 -16.568   3.934  1.00  0.00     0.051 A 
HETATM   16  C   UNL     1      42.953 -17.371   2.793  1.00  0.00     0.031 A 
HETATM   17  C   UNL     1      43.727 -18.536   2.824  1.00  0.00     0.002 A 
HETATM   18  C   UNL     1      44.333 -18.940   4.008  1.00  0.00     0.000 A 
HETATM   19  C   UNL     1      44.154 -18.182   5.157  1.00  0.00     0.002 A 
HETATM   20  C   UNL     1      43.377 -17.017   5.118  1.00  0.00     0.031 A 
ENDBRANCH   1  15
BRANCH   1  21
HETATM   21  C   UNL     1      41.616 -14.609   5.069  1.00  0.00     0.187 C 
BRANCH  21  22
HETATM   22  C   UNL     1      42.582 -13.489   5.427  1.00  0.00    -0.038 A 
HETATM   23  C   UNL     1      43.664 -13.648   6.307  1.00  0.00     0.009 A 
HETATM   24  C   UNL     1      44.492 -12.569   6.629  1.00  0.00     0.001 A 
HETATM   25  C   UNL     1      44.243 -11.311   6.088  1.00  0.00     0.000 A 
HETATM   26  C   UNL     1      43.167 -11.129   5.224  1.00  0.00     0.001 A 
HETATM   27  C   UNL     1      42.342 -12.208   4.898  1.00  0.00     0.009 A 
ENDBRANCH  21  22
ENDBRANCH   1  21
TORSDOF 5
ENDMDL
MODEL 6
REMARK VINA RESULT:      -7.7      1.892      4.575
REMARK  5 active torsions:
REMARK  status: ('A' for Active; 'I' for Inactive)
REMARK    1  A    between atoms: C_3  and  N_4 
REMARK       I    between atoms: N_4  and  C_5 
REMARK       I    between atoms: C_5  and  N_6 
REMARK    2  A    between atoms: N_6  and  N_7 
REMARK    3  A    between atoms: N_7  and  C_8 
REMARK    4  A    between atoms: N_7  and  C_14 
REMARK    5  A    between atoms: C_14  and  C_15 
ROOT
HETATM    1  N   UNL     1      41.870 -15.394   3.463  1.00  0.00    -0.284 N 
ENDROOT
BRANCH   1   2
HETATM    2  N   UNL     1      41.801 -14.681   2.245  1.00  0.00    -0.249 N 
HETATM    3  C   UNL     1      40.555 -14.269   1.775  1.00  0.00     0.339 C 
HETATM    4  N   UNL     1      40.699 -13.383   0.719  1.00  0.00    -0.306 N 
HETATM    5  O   UNL     1      39.491 -14.632   2.261  1.00  0.00    -0.245 OA
HETATM    6  H   UNL     1      41.546 -12.836   0.770  1.00  0.00     0.171 HD
HETATM    7  H   UNL     1      42.642 -14.168   2.018  1.00  0.00     0.192 HD
BRANCH   4   8
HETATM    8  C   UNL     1      39.641 -12.800  -0.020  1.00  0.00     0.059 A 
HETATM    9  C   UNL     1      38.968 -13.387  -1.102  1.00  0.00    -0.032 A 
HETATM   10  C   UNL     1      39.327 -14.709  -1.717  1.00  0.00     0.050 C 
HETATM   11  C   UNL     1      37.900 -12.679  -1.683  1.00  0.00     0.028 A 
HETATM   12  C   UNL     1      37.586 -11.411  -1.223  1.00  0.00     0.117 A 
HETATM   13  N   UNL     1      38.258 -10.791  -0.236  1.00  0.00    -0.271 NA
HETATM   14  C   UNL     1      39.263 -11.498   0.333  1.00  0.00     0.146 A 
ENDBRANCH   4   8
ENDBRANCH   1   2
BRANCH   1  15
HETATM   15  C   UNL     1      42.596 -16.594   3.439  1.00  0.00     0.051 A 
HETATM   16  C   UNL     1      43.491 -16.931   4.472  1.00  0.00     0.031 A 
HETATM   17  C   UNL     1      44.215 -18.130   4.467  1.00  0.00     0.002 A 
HETATM   18  C   UNL     1      44.070 -19.028   3.417  1.00  0.00     0.000 A 
HETATM   19  C   UNL     1      43.208 -18.720   2.372  1.00  0.00     0.002 A 
HETATM   20  C   UNL     1      42.488 -17.519   2.384  1.00  0.00     0.031 A 
ENDBRANCH   1  15
BRANCH   1  21
HETATM   21  C   UNL     1      41.582 -14.629   4.687  1.00  0.00     0.187 C 
BRANCH  21  22
HETATM   22  C   UNL     1      42.600 -13.549   5.019  1.00  0.00    -0.038 A 
HETATM   23  C   UNL     1      42.984 -12.541   4.120  1.00  0.00     0.009 A 
HETATM   24  C   UNL     1      43.958 -11.602   4.469  1.00  0.00     0.001 A 
HETATM   25  C   UNL     1      44.574 -11.662   5.716  1.00  0.00     0.000 A 
HETATM   26  C   UNL     1      44.217 -12.663   6.616  1.00  0.00     0.001 A 
HETATM   27  C   UNL     1      43.241 -13.599   6.270  1.00  0.00     0.009 A 
ENDBRANCH  21  22
ENDBRANCH   1  21
TORSDOF 5
ENDMDL
MODEL 7
REMARK VINA RESULT:      -7.6      2.208      7.477
REMARK  5 active torsions:
REMARK  status: ('A' for Active; 'I' for Inactive)
REMARK    1  A    between atoms: C_3  and  N_4 
REMARK       I    between atoms: N_4  and  C_5 
REMARK       I    between atoms: C_5  and  N_6 
REMARK    2  A    between atoms: N_6  and  N_7 
REMARK    3  A    between atoms: N_7  and  C_8 
REMARK    4  A    between atoms: N_7  and  C_14 
REMARK    5  A    between atoms: C_14  and  C_15 
ROOT
HETATM    1  N   UNL     1      40.070 -13.550   1.171  1.00  0.00    -0.284 N 
ENDROOT
BRANCH   1   2
HETATM    2  N   UNL     1      40.242 -14.875   1.631  1.00  0.00    -0.249 N 
HETATM    3  C   UNL     1      41.497 -15.271   2.090  1.00  0.00     0.339 C 
HETATM    4  N   UNL     1      41.421 -16.502   2.723  1.00  0.00    -0.306 N 
HETATM    5  O   UNL     1      42.512 -14.597   1.963  1.00  0.00    -0.245 OA
HETATM    6  H   UNL     1      40.527 -16.670   3.161  1.00  0.00     0.171 HD
HETATM    7  H   UNL     1      39.397 -15.304   1.982  1.00  0.00     0.192 HD
BRANCH   4   8
HETATM    8  C   UNL     1      42.512 -17.218   3.272  1.00  0.00     0.059 A 
HETATM    9  C   UNL     1      43.107 -16.987   4.521  1.00  0.00    -0.032 A 
HETATM   10  C   UNL     1      42.736 -15.869   5.453  1.00  0.00     0.050 C 
HETATM   11  C   UNL     1      44.151 -17.838   4.927  1.00  0.00     0.028 A 
HETATM   12  C   UNL     1      44.604 -18.826   4.069  1.00  0.00     0.117 A 
HETATM   13  N   UNL     1      44.105 -19.026   2.836  1.00  0.00    -0.271 NA
HETATM   14  C   UNL     1      43.079 -18.218   2.473  1.00  0.00     0.146 A 
ENDBRANCH   4   8
ENDBRANCH   1   2
BRANCH   1  15
HETATM   15  C   UNL     1      40.227 -13.346  -0.208  1.00  0.00     0.051 A 
HETATM   16  C   UNL     1      40.902 -12.218  -0.711  1.00  0.00     0.031 A 
HETATM   17  C   UNL     1      41.076 -12.007  -2.084  1.00  0.00     0.002 A 
HETATM   18  C   UNL     1      40.569 -12.921  -3.000  1.00  0.00     0.000 A 
HETATM   19  C   UNL     1      39.882 -14.037  -2.539  1.00  0.00     0.002 A 
HETATM   20  C   UNL     1      39.713 -14.241  -1.164  1.00  0.00     0.031 A 
ENDBRANCH   1  15
BRANCH   1  21
HETATM   21  C   UNL     1      39.330 -12.640   2.060  1.00  0.00     0.187 C 
BRANCH  21  22
HETATM   22  C   UNL     1      40.017 -12.342   3.385  1.00  0.00    -0.038 A 
HETATM   23  C   UNL     1      39.513 -12.750   4.630  1.00  0.00     0.009 A 
HETATM   24  C   UNL     1      40.168 -12.408   5.816  1.00  0.00     0.001 A 
HETATM   25  C   UNL     1      41.329 -11.641   5.778  1.00  0.00     0.000 A 
HETATM   26  C   UNL     1      41.836 -11.213   4.554  1.00  0.00     0.001 A 
HETATM   27  C   UNL     1      41.185 -11.559   3.368  1.00  0.00     0.009 A 
ENDBRANCH  21  22
ENDBRANCH   1  21
TORSDOF 5
ENDMDL
MODEL 8
REMARK VINA RESULT:      -7.3      2.532      7.182
REMARK  5 active torsions:
REMARK  status: ('A' for Active; 'I' for Inactive)
REMARK    1  A    between atoms: C_3  and  N_4 
REMARK       I    between atoms: N_4  and  C_5 
REMARK       I    between atoms: C_5  and  N_6 
REMARK    2  A    between atoms: N_6  and  N_7 
REMARK    3  A    between atoms: N_7  and  C_8 
REMARK    4  A    between atoms: N_7  and  C_14 
REMARK    5  A    between atoms: C_14  and  C_15 
ROOT
HETATM    1  N   UNL     1      41.490 -12.652   2.810  1.00  0.00    -0.284 N 
ENDROOT
BRANCH   1   2
HETATM    2  N   UNL     1      41.237 -14.041   2.866  1.00  0.00    -0.249 N 
HETATM    3  C   UNL     1      42.318 -14.920   2.902  1.00  0.00     0.339 C 
HETATM    4  N   UNL     1      41.894 -16.205   3.204  1.00  0.00    -0.306 N 
HETATM    5  O   UNL     1      43.480 -14.579   2.715  1.00  0.00    -0.245 OA
HETATM    6  H   UNL     1      41.067 -16.226   3.783  1.00  0.00     0.171 HD
HETATM    7  H   UNL     1      40.350 -14.284   3.286  1.00  0.00     0.192 HD
BRANCH   4   8
HETATM    8  C   UNL     1      42.722 -17.352   3.282  1.00  0.00     0.059 A 
HETATM    9  C   UNL     1      43.646 -17.635   4.298  1.00  0.00    -0.032 A 
HETATM   10  C   UNL     1      43.977 -16.713   5.437  1.00  0.00     0.050 C 
HETATM   11  C   UNL     1      44.344 -18.855   4.239  1.00  0.00     0.028 A 
HETATM   12  C   UNL     1      44.154 -19.704   3.161  1.00  0.00     0.117 A 
HETATM   13  N   UNL     1      43.330 -19.427   2.135  1.00  0.00    -0.271 NA
HETATM   14  C   UNL     1      42.643 -18.263   2.222  1.00  0.00     0.146 A 
ENDBRANCH   4   8
ENDBRANCH   1   2
BRANCH   1  15
HETATM   15  C   UNL     1      41.369 -12.050   1.548  1.00  0.00     0.051 A 
HETATM   16  C   UNL     1      41.634 -10.680   1.360  1.00  0.00     0.031 A 
HETATM   17  C   UNL     1      41.528 -10.069   0.105  1.00  0.00     0.002 A 
HETATM   18  C   UNL     1      41.143 -10.813  -1.004  1.00  0.00     0.000 A 
HETATM   19  C   UNL     1      40.857 -12.163  -0.851  1.00  0.00     0.002 A 
HETATM   20  C   UNL     1      40.965 -12.768   0.408  1.00  0.00     0.031 A 
ENDBRANCH   1  15
BRANCH   1  21
HETATM   21  C   UNL     1      41.407 -11.919   4.084  1.00  0.00     0.187 C 
BRANCH  21  22
HETATM   22  C   UNL     1      42.590 -12.128   5.018  1.00  0.00    -0.038 A 
HETATM   23  C   UNL     1      42.584 -13.035   6.090  1.00  0.00     0.009 A 
HETATM   24  C   UNL     1      43.687 -13.149   6.939  1.00  0.00     0.001 A 
HETATM   25  C   UNL     1      44.809 -12.350   6.741  1.00  0.00     0.000 A 
HETATM   26  C   UNL     1      44.829 -11.434   5.692  1.00  0.00     0.001 A 
HETATM   27  C   UNL     1      43.729 -11.322   4.840  1.00  0.00     0.009 A 
ENDBRANCH  21  22
ENDBRANCH   1  21
TORSDOF 5
ENDMDL
MODEL 9
REMARK VINA RESULT:      -7.3     14.426     16.131
REMARK  5 active torsions:
REMARK  status: ('A' for Active; 'I' for Inactive)
REMARK    1  A    between atoms: C_3  and  N_4 
REMARK       I    between atoms: N_4  and  C_5 
REMARK       I    between atoms: C_5  and  N_6 
REMARK    2  A    between atoms: N_6  and  N_7 
REMARK    3  A    between atoms: N_7  and  C_8 
REMARK    4  A    between atoms: N_7  and  C_14 
REMARK    5  A    between atoms: C_14  and  C_15 
ROOT
HETATM    1  N   UNL     1      47.155 -28.818   2.024  1.00  0.00    -0.284 N 
ENDROOT
BRANCH   1   2
HETATM    2  N   UNL     1      45.783 -28.706   2.344  1.00  0.00    -0.249 N 
HETATM    3  C   UNL     1      44.967 -29.829   2.216  1.00  0.00     0.339 C 
HETATM    4  N   UNL     1      43.731 -29.605   2.801  1.00  0.00    -0.306 N 
HETATM    5  O   UNL     1      45.323 -30.871   1.679  1.00  0.00    -0.245 OA
HETATM    6  H   UNL     1      43.768 -28.960   3.577  1.00  0.00     0.171 HD
HETATM    7  H   UNL     1      45.573 -27.980   3.016  1.00  0.00     0.192 HD
BRANCH   4   8
HETATM    8  C   UNL     1      42.648 -30.517   2.819  1.00  0.00     0.059 A 
HETATM    9  C   UNL     1      42.479 -31.581   3.717  1.00  0.00    -0.032 A 
HETATM   10  C   UNL     1      43.478 -31.985   4.764  1.00  0.00     0.050 C 
HETATM   11  C   UNL     1      41.307 -32.353   3.619  1.00  0.00     0.028 A 
HETATM   12  C   UNL     1      40.394 -32.091   2.611  1.00  0.00     0.117 A 
HETATM   13  N   UNL     1      40.563 -31.126   1.689  1.00  0.00    -0.271 NA
HETATM   14  C   UNL     1      41.681 -30.372   1.817  1.00  0.00     0.146 A 
ENDBRANCH   4   8
ENDBRANCH   1   2
BRANCH   1  15
HETATM   15  C   UNL     1      47.476 -28.813   0.658  1.00  0.00     0.051 A 
HETATM   16  C   UNL     1      48.541 -29.580   0.151  1.00  0.00     0.031 A 
HETATM   17  C   UNL     1      48.866 -29.592  -1.210  1.00  0.00     0.002 A 
HETATM   18  C   UNL     1      48.134 -28.826  -2.109  1.00  0.00     0.000 A 
HETATM   19  C   UNL     1      47.086 -28.043  -1.642  1.00  0.00     0.002 A 
HETATM   20  C   UNL     1      46.768 -28.036  -0.278  1.00  0.00     0.031 A 
ENDBRANCH   1  15
BRANCH   1  21
HETATM   21  C   UNL     1      48.106 -28.484   3.096  1.00  0.00     0.187 C 
BRANCH  21  22
HETATM   22  C   UNL     1      48.703 -29.684   3.817  1.00  0.00    -0.038 A 
HETATM   23  C   UNL     1      47.932 -30.674   4.446  1.00  0.00     0.009 A 
HETATM   24  C   UNL     1      48.540 -31.730   5.130  1.00  0.00     0.001 A 
HETATM   25  C   UNL     1      49.928 -31.806   5.209  1.00  0.00     0.000 A 
HETATM   26  C   UNL     1      50.710 -30.825   4.604  1.00  0.00     0.001 A 
HETATM   27  C   UNL     1      50.103 -29.772   3.916  1.00  0.00     0.009 A 
ENDBRANCH  21  22
ENDBRANCH   1  21
TORSDOF 5
ENDMDL
MODEL 10
REMARK VINA RESULT:      -7.3     14.066     16.083
REMARK  5 active torsions:
REMARK  status: ('A' for Active; 'I' for Inactive)
REMARK    1  A    between atoms: C_3  and  N_4 
REMARK       I    between atoms: N_4  and  C_5 
REMARK       I    between atoms: C_5  and  N_6 
REMARK    2  A    between atoms: N_6  and  N_7 
REMARK    3  A    between atoms: N_7  and  C_8 
REMARK    4  A    between atoms: N_7  and  C_14 
REMARK    5  A    between atoms: C_14  and  C_15 
ROOT
HETATM    1  N   UNL     1      44.850 -28.883  -0.262  1.00  0.00    -0.284 N 
ENDROOT
BRANCH   1   2
HETATM    2  N   UNL     1      43.627 -28.844   0.444  1.00  0.00    -0.249 N 
HETATM    3  C   UNL     1      43.296 -29.912   1.277  1.00  0.00     0.339 C 
HETATM    4  N   UNL     1      42.202 -29.596   2.067  1.00  0.00    -0.306 N 
HETATM    5  O   UNL     1      43.917 -30.968   1.309  1.00  0.00    -0.245 OA
HETATM    6  H   UNL     1      42.133 -28.612   2.277  1.00  0.00     0.171 HD
HETATM    7  H   UNL     1      43.284 -27.911   0.628  1.00  0.00     0.192 HD
BRANCH   4   8
HETATM    8  C   UNL     1      41.576 -30.463   2.996  1.00  0.00     0.059 A 
HETATM    9  C   UNL     1      40.666 -31.484   2.689  1.00  0.00    -0.032 A 
HETATM   10  C   UNL     1      40.131 -31.770   1.314  1.00  0.00     0.050 C 
HETATM   11  C   UNL     1      40.186 -32.285   3.741  1.00  0.00     0.028 A 
HETATM   12  C   UNL     1      40.566 -32.007   5.044  1.00  0.00     0.117 A 
HETATM   13  N   UNL     1      41.380 -30.990   5.379  1.00  0.00    -0.271 NA
HETATM   14  C   UNL     1      41.857 -30.248   4.351  1.00  0.00     0.146 A 
ENDBRANCH   4   8
ENDBRANCH   1   2
BRANCH   1  15
HETATM   15  C   UNL     1      44.758 -29.027  -1.655  1.00  0.00     0.051 A 
HETATM   16  C   UNL     1      45.194 -28.012  -2.528  1.00  0.00     0.031 A 
HETATM   17  C   UNL     1      45.118 -28.146  -3.919  1.00  0.00     0.002 A 
HETATM   18  C   UNL     1      44.594 -29.304  -4.481  1.00  0.00     0.000 A 
HETATM   19  C   UNL     1      44.139 -30.319  -3.650  1.00  0.00     0.002 A 
HETATM   20  C   UNL     1      44.218 -30.177  -2.258  1.00  0.00     0.031 A 
ENDBRANCH   1  15
BRANCH   1  21
HETATM   21  C   UNL     1      46.025 -28.335   0.434  1.00  0.00     0.187 C 
BRANCH  21  22
HETATM   22  C   UNL     1      47.298 -29.154   0.280  1.00  0.00    -0.038 A 
HETATM   23  C   UNL     1      48.315 -28.844  -0.636  1.00  0.00     0.009 A 
HETATM   24  C   UNL     1      49.442 -29.660  -0.761  1.00  0.00     0.001 A 
HETATM   25  C   UNL     1      49.565 -30.807   0.018  1.00  0.00     0.000 A 
HETATM   26  C   UNL     1      48.560 -31.140   0.923  1.00  0.00     0.001 A 
HETATM   27  C   UNL     1      47.436 -30.322   1.051  1.00  0.00     0.009 A 
ENDBRANCH  21  22
ENDBRANCH   1  21
TORSDOF 5
ENDMDL
