MODEL 1
REMARK VINA RESULT:      -8.2      0.000      0.000
REMARK  8 active torsions:
REMARK  status: ('A' for Active; 'I' for Inactive)
REMARK    1  A    between atoms: C_2  and  C_4 
REMARK    2  A    between atoms: C_2  and  C_29 
REMARK    3  A    between atoms: C_2  and  O_3 
REMARK    4  A    between atoms: N_11  and  C_13 
REMARK    5  A    between atoms: C_13  and  C_14 
REMARK    6  A    between atoms: C_16  and  S_17 
REMARK    7  A    between atoms: S_17  and  C_18 
REMARK    8  A    between atoms: C_29  and  N_30 
ROOT
HETATM    1  C   UNL     1      41.547 -15.716   2.746  1.00  0.00    -0.022 A 
HETATM    2  C   UNL     1      41.188 -15.144   3.984  1.00  0.00     0.022 A 
HETATM    3  C   UNL     1      41.621 -15.686   5.207  1.00  0.00     0.002 A 
HETATM    4  C   UNL     1      42.405 -16.836   5.189  1.00  0.00     0.076 A 
HETATM    5  O   UNL     1      42.805 -17.435   6.350  1.00  0.00    -0.349 OA
HETATM    6  C   UNL     1      43.802 -16.669   7.040  1.00  0.00     0.203 C 
HETATM    7  C   UNL     1      43.184 -15.643   8.001  1.00  0.00     0.262 C 
HETATM    8  N   UNL     1      42.474 -14.509   7.282  1.00  0.00    -0.059 N 
HETATM    9  H   UNL     1      42.062 -13.910   8.008  1.00  0.00     0.280 HD
HETATM   10  C   UNL     1      41.273 -15.015   6.504  1.00  0.00     0.276 C 
HETATM   11  C   UNL     1      42.755 -17.437   3.985  1.00  0.00     0.038 A 
HETATM   12  C   UNL     1      42.356 -16.864   2.771  1.00  0.00     0.013 A 
ENDROOT
BRANCH   8  13
HETATM   13  C   UNL     1      43.424 -13.603   6.515  1.00  0.00     0.299 C 
BRANCH  13  14
HETATM   14  C   UNL     1      43.466 -12.187   6.961  1.00  0.00     0.080 A 
HETATM   15  O   UNL     1      44.265 -11.902   8.022  1.00  0.00    -0.306 OA
HETATM   16  C   UNL     1      44.224 -10.554   8.238  1.00  0.00     0.120 A 
HETATM   17  C   UNL     1      43.306  -9.993   7.375  1.00  0.00     0.047 A 
HETATM   18  C   UNL     1      42.824 -11.039   6.546  1.00  0.00     0.038 A 
BRANCH  16  19
HETATM   19  S   UNL     1      45.227  -9.769   9.428  1.00  0.00    -0.025 SA
BRANCH  19  20
HETATM   20  C   UNL     1      44.200 -10.051  10.796  1.00  0.00     0.197 A 
HETATM   21  N   UNL     1      43.338  -9.121  11.304  1.00  0.00    -0.322 N 
HETATM   22  C   UNL     1      43.085  -7.783  10.839  1.00  0.00     0.159 C 
HETATM   23  C   UNL     1      42.745  -9.721  12.378  1.00  0.00     0.235 A 
HETATM   24  N   UNL     1      43.192 -10.951  12.499  1.00  0.00    -0.143 NA
HETATM   25  N   UNL     1      44.106 -11.160  11.497  1.00  0.00    -0.123 NA
ENDBRANCH  19  20
ENDBRANCH  16  19
ENDBRANCH  13  14
ENDBRANCH   8  13
BRANCH   1  26
HETATM   26  C   UNL     1      41.130 -15.033   1.438  1.00  0.00     0.105 C 
HETATM   27  C   UNL     1      39.881 -15.745   0.888  1.00  0.00     0.053 C 
BRANCH  26  28
HETATM   28  C   UNL     1      40.827 -13.501   1.559  1.00  0.00     0.276 C 
BRANCH  28  29
HETATM   29  N   UNL     1      39.340 -13.138   1.482  1.00  0.00    -0.076 N 
HETATM   30  H   UNL     1      38.813 -14.000   1.295  1.00  0.00     0.279 HD
HETATM   31  C   UNL     1      38.780 -12.584   2.768  1.00  0.00     0.269 C 
HETATM   32  C   UNL     1      39.077 -12.199   0.334  1.00  0.00     0.269 C 
ENDBRANCH  28  29
ENDBRANCH  26  28
BRANCH  26  33
HETATM   33  O   UNL     1      42.192 -15.174   0.479  1.00  0.00    -0.384 OA
HETATM   34  H   UNL     1      42.264 -14.355  -0.046  1.00  0.00     0.211 HD
ENDBRANCH  26  33
ENDBRANCH   1  26
TORSDOF 8
ENDMDL
MODEL 2
REMARK VINA RESULT:      -8.1      2.144      4.560
REMARK  8 active torsions:
REMARK  status: ('A' for Active; 'I' for Inactive)
REMARK    1  A    between atoms: C_2  and  C_4 
REMARK    2  A    between atoms: C_2  and  C_29 
REMARK    3  A    between atoms: C_2  and  O_3 
REMARK    4  A    between atoms: N_11  and  C_13 
REMARK    5  A    between atoms: C_13  and  C_14 
REMARK    6  A    between atoms: C_16  and  S_17 
REMARK    7  A    between atoms: S_17  and  C_18 
REMARK    8  A    between atoms: C_29  and  N_30 
ROOT
HETATM    1  C   UNL     1      42.904 -16.286   4.873  1.00  0.00    -0.022 A 
HETATM    2  C   UNL     1      43.290 -15.010   4.413  1.00  0.00     0.022 A 
HETATM    3  C   UNL     1      42.373 -14.122   3.825  1.00  0.00     0.002 A 
HETATM    4  C   UNL     1      41.051 -14.531   3.671  1.00  0.00     0.076 A 
HETATM    5  O   UNL     1      40.131 -13.730   3.055  1.00  0.00    -0.349 OA
HETATM    6  C   UNL     1      39.772 -12.598   3.860  1.00  0.00     0.203 C 
HETATM    7  C   UNL     1      40.701 -11.399   3.623  1.00  0.00     0.262 C 
HETATM    8  N   UNL     1      42.108 -11.624   4.151  1.00  0.00    -0.059 N 
HETATM    9  H   UNL     1      42.654 -10.789   3.903  1.00  0.00     0.280 HD
HETATM   10  C   UNL     1      42.804 -12.747   3.404  1.00  0.00     0.276 C 
HETATM   11  C   UNL     1      40.645 -15.793   4.094  1.00  0.00     0.038 A 
HETATM   12  C   UNL     1      41.556 -16.652   4.718  1.00  0.00     0.013 A 
ENDROOT
BRANCH   8  13
HETATM   13  C   UNL     1      42.170 -11.701   5.668  1.00  0.00     0.299 C 
BRANCH  13  14
HETATM   14  C   UNL     1      43.483 -11.367   6.277  1.00  0.00     0.080 A 
HETATM   15  O   UNL     1      43.519 -10.288   7.101  1.00  0.00    -0.306 OA
HETATM   16  C   UNL     1      44.781 -10.182   7.613  1.00  0.00     0.120 A 
HETATM   17  C   UNL     1      45.581 -11.139   7.022  1.00  0.00     0.047 A 
HETATM   18  C   UNL     1      44.746 -11.908   6.170  1.00  0.00     0.038 A 
BRANCH  16  19
HETATM   19  S   UNL     1      45.202  -9.003   8.825  1.00  0.00    -0.025 SA
BRANCH  19  20
HETATM   20  C   UNL     1      44.423  -9.781  10.163  1.00  0.00     0.197 A 
HETATM   21  N   UNL     1      43.334  -9.271  10.811  1.00  0.00    -0.322 N 
HETATM   22  C   UNL     1      42.615  -8.054  10.537  1.00  0.00     0.159 C 
HETATM   23  C   UNL     1      43.050 -10.162  11.806  1.00  0.00     0.235 A 
HETATM   24  N   UNL     1      43.892 -11.170  11.750  1.00  0.00    -0.143 NA
HETATM   25  N   UNL     1      44.754 -10.931  10.710  1.00  0.00    -0.123 NA
ENDBRANCH  19  20
ENDBRANCH  16  19
ENDBRANCH  13  14
ENDBRANCH   8  13
BRANCH   1  26
HETATM   26  C   UNL     1      43.920 -17.179   5.594  1.00  0.00     0.105 C 
HETATM   27  C   UNL     1      43.195 -17.946   6.713  1.00  0.00     0.053 C 
BRANCH  26  28
HETATM   28  C   UNL     1      44.665 -18.207   4.676  1.00  0.00     0.276 C 
BRANCH  28  29
HETATM   29  N   UNL     1      43.808 -19.393   4.222  1.00  0.00    -0.076 N 
HETATM   30  H   UNL     1      42.851 -19.243   4.566  1.00  0.00     0.279 HD
HETATM   31  C   UNL     1      43.689 -19.522   2.724  1.00  0.00     0.269 C 
HETATM   32  C   UNL     1      44.302 -20.677   4.832  1.00  0.00     0.269 C 
ENDBRANCH  28  29
ENDBRANCH  26  28
BRANCH  26  33
HETATM   33  O   UNL     1      44.930 -16.348   6.193  1.00  0.00    -0.384 OA
HETATM   34  H   UNL     1      45.670 -16.906   6.496  1.00  0.00     0.211 HD
ENDBRANCH  26  33
ENDBRANCH   1  26
TORSDOF 8
ENDMDL
MODEL 3
REMARK VINA RESULT:      -8.0      1.539      2.100
REMARK  8 active torsions:
REMARK  status: ('A' for Active; 'I' for Inactive)
REMARK    1  A    between atoms: C_2  and  C_4 
REMARK    2  A    between atoms: C_2  and  C_29 
REMARK    3  A    between atoms: C_2  and  O_3 
REMARK    4  A    between atoms: N_11  and  C_13 
REMARK    5  A    between atoms: C_13  and  C_14 
REMARK    6  A    between atoms: C_16  and  S_17 
REMARK    7  A    between atoms: S_17  and  C_18 
REMARK    8  A    between atoms: C_29  and  N_30 
ROOT
HETATM    1  C   UNL     1      41.312 -15.494   2.847  1.00  0.00    -0.022 A 
HETATM    2  C   UNL     1      41.142 -14.740   4.026  1.00  0.00     0.022 A 
HETATM    3  C   UNL     1      41.545 -15.224   5.283  1.00  0.00     0.002 A 
HETATM    4  C   UNL     1      42.104 -16.496   5.362  1.00  0.00     0.076 A 
HETATM    5  O   UNL     1      42.460 -17.037   6.566  1.00  0.00    -0.349 OA
HETATM    6  C   UNL     1      43.622 -16.405   7.122  1.00  0.00     0.203 C 
HETATM    7  C   UNL     1      43.262 -15.187   7.985  1.00  0.00     0.262 C 
HETATM    8  N   UNL     1      42.727 -14.020   7.173  1.00  0.00    -0.059 N 
HETATM    9  H   UNL     1      42.476 -13.282   7.844  1.00  0.00     0.280 HD
HETATM   10  C   UNL     1      41.407 -14.369   6.510  1.00  0.00     0.276 C 
HETATM   11  C   UNL     1      42.263 -17.274   4.220  1.00  0.00     0.038 A 
HETATM   12  C   UNL     1      41.899 -16.765   2.968  1.00  0.00     0.013 A 
ENDROOT
BRANCH   8  13
HETATM   13  C   UNL     1      43.776 -13.393   6.269  1.00  0.00     0.299 C 
BRANCH  13  14
HETATM   14  C   UNL     1      44.535 -12.257   6.853  1.00  0.00     0.080 A 
HETATM   15  O   UNL     1      44.068 -11.746   8.021  1.00  0.00    -0.306 OA
HETATM   16  C   UNL     1      44.927 -10.766   8.432  1.00  0.00     0.120 A 
HETATM   17  C   UNL     1      45.888 -10.581   7.460  1.00  0.00     0.047 A 
HETATM   18  C   UNL     1      45.643 -11.545   6.448  1.00  0.00     0.038 A 
BRANCH  16  19
HETATM   19  S   UNL     1      44.754  -9.956   9.966  1.00  0.00    -0.025 SA
BRANCH  19  20
HETATM   20  C   UNL     1      43.832  -8.605   9.394  1.00  0.00     0.197 A 
HETATM   21  N   UNL     1      42.503  -8.426   9.656  1.00  0.00    -0.322 N 
HETATM   22  C   UNL     1      41.622  -9.257  10.434  1.00  0.00     0.159 C 
HETATM   23  C   UNL     1      42.155  -7.274   9.012  1.00  0.00     0.235 A 
HETATM   24  N   UNL     1      43.212  -6.762   8.421  1.00  0.00    -0.143 NA
HETATM   25  N   UNL     1      44.270  -7.600   8.667  1.00  0.00    -0.123 NA
ENDBRANCH  19  20
ENDBRANCH  16  19
ENDBRANCH  13  14
ENDBRANCH   8  13
BRANCH   1  26
HETATM   26  C   UNL     1      40.945 -14.884   1.489  1.00  0.00     0.105 C 
HETATM   27  C   UNL     1      39.872 -15.766   0.828  1.00  0.00     0.053 C 
BRANCH  26  28
HETATM   28  C   UNL     1      40.423 -13.408   1.546  1.00  0.00     0.276 C 
BRANCH  28  29
HETATM   29  N   UNL     1      41.413 -12.362   1.024  1.00  0.00    -0.076 N 
HETATM   30  H   UNL     1      42.226 -12.860   0.639  1.00  0.00     0.279 HD
HETATM   31  C   UNL     1      40.873 -11.521  -0.105  1.00  0.00     0.269 C 
HETATM   32  C   UNL     1      41.916 -11.493   2.147  1.00  0.00     0.269 C 
ENDBRANCH  28  29
ENDBRANCH  26  28
BRANCH  26  33
HETATM   33  O   UNL     1      42.113 -14.881   0.648  1.00  0.00    -0.384 OA
HETATM   34  H   UNL     1      42.878 -15.209   1.156  1.00  0.00     0.211 HD
ENDBRANCH  26  33
ENDBRANCH   1  26
TORSDOF 8
ENDMDL
MODEL 4
REMARK VINA RESULT:      -7.9      1.800      2.306
REMARK  8 active torsions:
REMARK  status: ('A' for Active; 'I' for Inactive)
REMARK    1  A    between atoms: C_2  and  C_4 
REMARK    2  A    between atoms: C_2  and  C_29 
REMARK    3  A    between atoms: C_2  and  O_3 
REMARK    4  A    between atoms: N_11  and  C_13 
REMARK    5  A    between atoms: C_13  and  C_14 
REMARK    6  A    between atoms: C_16  and  S_17 
REMARK    7  A    between atoms: S_17  and  C_18 
REMARK    8  A    between atoms: C_29  and  N_30 
ROOT
HETATM    1  C   UNL     1      40.240 -14.190   2.080  1.00  0.00    -0.022 A 
HETATM    2  C   UNL     1      40.212 -13.624   3.371  1.00  0.00     0.022 A 
HETATM    3  C   UNL     1      40.596 -14.352   4.512  1.00  0.00     0.002 A 
HETATM    4  C   UNL     1      40.987 -15.679   4.357  1.00  0.00     0.076 A 
HETATM    5  O   UNL     1      41.315 -16.448   5.438  1.00  0.00    -0.349 OA
HETATM    6  C   UNL     1      42.568 -16.062   6.019  1.00  0.00     0.203 C 
HETATM    7  C   UNL     1      42.401 -14.966   7.083  1.00  0.00     0.262 C 
HETATM    8  N   UNL     1      41.993 -13.626   6.497  1.00  0.00    -0.059 N 
HETATM    9  H   UNL     1      41.865 -12.983   7.288  1.00  0.00     0.280 HD
HETATM   10  C   UNL     1      40.615 -13.699   5.863  1.00  0.00     0.276 C 
HETATM   11  C   UNL     1      41.002 -16.273   3.100  1.00  0.00     0.038 A 
HETATM   12  C   UNL     1      40.662 -15.526   1.966  1.00  0.00     0.013 A 
ENDROOT
BRANCH   8  13
HETATM   13  C   UNL     1      43.080 -12.992   5.643  1.00  0.00     0.299 C 
BRANCH  13  14
HETATM   14  C   UNL     1      43.952 -12.009   6.336  1.00  0.00     0.080 A 
HETATM   15  O   UNL     1      43.330 -10.989   6.982  1.00  0.00    -0.306 OA
HETATM   16  C   UNL     1      44.283 -10.237   7.609  1.00  0.00     0.120 A 
HETATM   17  C   UNL     1      45.528 -10.722   7.267  1.00  0.00     0.047 A 
HETATM   18  C   UNL     1      45.317 -11.868   6.456  1.00  0.00     0.038 A 
BRANCH  16  19
HETATM   19  S   UNL     1      43.880  -8.909   8.664  1.00  0.00    -0.025 SA
BRANCH  19  20
HETATM   20  C   UNL     1      43.695  -9.836  10.117  1.00  0.00     0.197 A 
HETATM   21  N   UNL     1      42.706  -9.622  11.034  1.00  0.00    -0.322 N 
HETATM   22  C   UNL     1      41.644  -8.650  11.000  1.00  0.00     0.159 C 
HETATM   23  C   UNL     1      42.927 -10.531  12.028  1.00  0.00     0.235 A 
HETATM   24  N   UNL     1      43.965 -11.277  11.722  1.00  0.00    -0.143 NA
HETATM   25  N   UNL     1      44.446 -10.841  10.514  1.00  0.00    -0.123 NA
ENDBRANCH  19  20
ENDBRANCH  16  19
ENDBRANCH  13  14
ENDBRANCH   8  13
BRANCH   1  26
HETATM   26  C   UNL     1      39.905 -13.327   0.859  1.00  0.00     0.105 C 
HETATM   27  C   UNL     1      40.979 -12.234   0.719  1.00  0.00     0.053 C 
BRANCH  26  28
HETATM   28  C   UNL     1      39.800 -14.108  -0.495  1.00  0.00     0.276 C 
BRANCH  28  29
HETATM   29  N   UNL     1      39.473 -13.235  -1.710  1.00  0.00    -0.076 N 
HETATM   30  H   UNL     1      39.448 -12.256  -1.399  1.00  0.00     0.279 HD
HETATM   31  C   UNL     1      40.512 -13.293  -2.802  1.00  0.00     0.269 C 
HETATM   32  C   UNL     1      38.107 -13.563  -2.254  1.00  0.00     0.269 C 
ENDBRANCH  28  29
ENDBRANCH  26  28
BRANCH  26  33
HETATM   33  O   UNL     1      38.633 -12.690   1.072  1.00  0.00    -0.384 OA
HETATM   34  H   UNL     1      38.075 -13.262   1.631  1.00  0.00     0.211 HD
ENDBRANCH  26  33
ENDBRANCH   1  26
TORSDOF 8
ENDMDL
MODEL 5
REMARK VINA RESULT:      -7.7      3.058      9.073
REMARK  8 active torsions:
REMARK  status: ('A' for Active; 'I' for Inactive)
REMARK    1  A    between atoms: C_2  and  C_4 
REMARK    2  A    between atoms: C_2  and  C_29 
REMARK    3  A    between atoms: C_2  and  O_3 
REMARK    4  A    between atoms: N_11  and  C_13 
REMARK    5  A    between atoms: C_13  and  C_14 
REMARK    6  A    between atoms: C_16  and  S_17 
REMARK    7  A    between atoms: S_17  and  C_18 
REMARK    8  A    between atoms: C_29  and  N_30 
ROOT
HETATM    1  C   UNL     1      43.475  -9.564  10.484  1.00  0.00    -0.022 A 
HETATM    2  C   UNL     1      42.910  -9.933   9.245  1.00  0.00     0.022 A 
HETATM    3  C   UNL     1      43.689 -10.070   8.083  1.00  0.00     0.002 A 
HETATM    4  C   UNL     1      45.054  -9.806   8.158  1.00  0.00     0.076 A 
HETATM    5  O   UNL     1      45.846  -9.869   7.046  1.00  0.00    -0.349 OA
HETATM    6  C   UNL     1      46.050 -11.217   6.601  1.00  0.00     0.203 C 
HETATM    7  C   UNL     1      44.959 -11.675   5.622  1.00  0.00     0.262 C 
HETATM    8  N   UNL     1      43.603 -11.850   6.282  1.00  0.00    -0.059 N 
HETATM    9  H   UNL     1      42.943 -12.111   5.539  1.00  0.00     0.280 HD
HETATM   10  C   UNL     1      43.065 -10.527   6.796  1.00  0.00     0.276 C 
HETATM   11  C   UNL     1      45.636  -9.416   9.359  1.00  0.00     0.038 A 
HETATM   12  C   UNL     1      44.860  -9.326  10.520  1.00  0.00     0.013 A 
ENDROOT
BRANCH   8  13
HETATM   13  C   UNL     1      43.565 -13.007   7.269  1.00  0.00     0.299 C 
BRANCH  13  14
HETATM   14  C   UNL     1      42.766 -14.186   6.849  1.00  0.00     0.080 A 
HETATM   15  O   UNL     1      42.028 -14.053   5.716  1.00  0.00    -0.306 OA
HETATM   16  C   UNL     1      41.423 -15.251   5.457  1.00  0.00     0.120 A 
HETATM   17  C   UNL     1      41.693 -16.119   6.495  1.00  0.00     0.047 A 
HETATM   18  C   UNL     1      42.564 -15.439   7.386  1.00  0.00     0.038 A 
BRANCH  16  19
HETATM   19  S   UNL     1      40.496 -15.535   4.009  1.00  0.00    -0.025 SA
BRANCH  19  20
HETATM   20  C   UNL     1      41.818 -16.015   2.997  1.00  0.00     0.197 A 
HETATM   21  N   UNL     1      42.514 -15.154   2.196  1.00  0.00    -0.322 N 
HETATM   22  C   UNL     1      42.334 -13.735   2.034  1.00  0.00     0.159 C 
HETATM   23  C   UNL     1      43.441 -15.923   1.553  1.00  0.00     0.235 A 
HETATM   24  N   UNL     1      43.340 -17.169   1.958  1.00  0.00    -0.143 NA
HETATM   25  N   UNL     1      42.319 -17.225   2.873  1.00  0.00    -0.123 NA
ENDBRANCH  19  20
ENDBRANCH  16  19
ENDBRANCH  13  14
ENDBRANCH   8  13
BRANCH   1  26
HETATM   26  C   UNL     1      42.600  -9.521  11.742  1.00  0.00     0.105 C 
HETATM   27  C   UNL     1      43.214  -8.519  12.734  1.00  0.00     0.053 C 
BRANCH  26  28
HETATM   28  C   UNL     1      41.102  -9.135  11.493  1.00  0.00     0.276 C 
BRANCH  28  29
HETATM   29  N   UNL     1      40.132 -10.320  11.489  1.00  0.00    -0.076 N 
HETATM   30  H   UNL     1      40.675 -11.174  11.309  1.00  0.00     0.279 HD
HETATM   31  C   UNL     1      39.439 -10.546  12.810  1.00  0.00     0.269 C 
HETATM   32  C   UNL     1      39.129 -10.188  10.374  1.00  0.00     0.269 C 
ENDBRANCH  28  29
ENDBRANCH  26  28
BRANCH  26  33
HETATM   33  O   UNL     1      42.599 -10.824  12.353  1.00  0.00    -0.384 OA
HETATM   34  H   UNL     1      41.706 -11.211  12.287  1.00  0.00     0.211 HD
ENDBRANCH  26  33
ENDBRANCH   1  26
TORSDOF 8
ENDMDL
MODEL 6
REMARK VINA RESULT:      -7.4     17.332     19.659
REMARK  8 active torsions:
REMARK  status: ('A' for Active; 'I' for Inactive)
REMARK    1  A    between atoms: C_2  and  C_4 
REMARK    2  A    between atoms: C_2  and  C_29 
REMARK    3  A    between atoms: C_2  and  O_3 
REMARK    4  A    between atoms: N_11  and  C_13 
REMARK    5  A    between atoms: C_13  and  C_14 
REMARK    6  A    between atoms: C_16  and  S_17 
REMARK    7  A    between atoms: S_17  and  C_18 
REMARK    8  A    between atoms: C_29  and  N_30 
ROOT
HETATM    1  C   UNL     1      46.921 -28.500   0.417  1.00  0.00    -0.022 A 
HETATM    2  C   UNL     1      45.608 -28.864   0.053  1.00  0.00     0.022 A 
HETATM    3  C   UNL     1      45.132 -28.717  -1.262  1.00  0.00     0.002 A 
HETATM    4  C   UNL     1      45.979 -28.170  -2.222  1.00  0.00     0.076 A 
HETATM    5  O   UNL     1      45.548 -27.953  -3.501  1.00  0.00    -0.349 OA
HETATM    6  C   UNL     1      45.378 -29.176  -4.231  1.00  0.00     0.203 C 
HETATM    7  C   UNL     1      43.971 -29.765  -4.055  1.00  0.00     0.262 C 
HETATM    8  N   UNL     1      43.719 -30.294  -2.653  1.00  0.00    -0.059 N 
HETATM    9  H   UNL     1      42.745 -30.620  -2.630  1.00  0.00     0.280 HD
HETATM   10  C   UNL     1      43.750 -29.174  -1.628  1.00  0.00     0.276 C 
HETATM   11  C   UNL     1      47.271 -27.779  -1.888  1.00  0.00     0.038 A 
HETATM   12  C   UNL     1      47.750 -27.971  -0.587  1.00  0.00     0.013 A 
ENDROOT
BRANCH   8  13
HETATM   13  C   UNL     1      44.555 -31.519  -2.319  1.00  0.00     0.299 C 
BRANCH  13  14
HETATM   14  C   UNL     1      43.837 -32.618  -1.622  1.00  0.00     0.080 A 
HETATM   15  O   UNL     1      43.304 -32.327  -0.407  1.00  0.00    -0.306 OA
HETATM   16  C   UNL     1      42.633 -33.430   0.039  1.00  0.00     0.120 A 
HETATM   17  C   UNL     1      42.835 -34.464  -0.851  1.00  0.00     0.047 A 
HETATM   18  C   UNL     1      43.601 -33.941  -1.925  1.00  0.00     0.038 A 
BRANCH  16  19
HETATM   19  S   UNL     1      41.689 -33.419   1.505  1.00  0.00    -0.025 SA
BRANCH  19  20
HETATM   20  C   UNL     1      41.866 -31.732   1.863  1.00  0.00     0.197 A 
HETATM   21  N   UNL     1      42.855 -31.223   2.656  1.00  0.00    -0.322 N 
HETATM   22  C   UNL     1      43.922 -31.924   3.321  1.00  0.00     0.159 C 
HETATM   23  C   UNL     1      42.628 -29.878   2.705  1.00  0.00     0.235 A 
HETATM   24  N   UNL     1      41.585 -29.578   1.963  1.00  0.00    -0.143 NA
HETATM   25  N   UNL     1      41.109 -30.748   1.427  1.00  0.00    -0.123 NA
ENDBRANCH  19  20
ENDBRANCH  16  19
ENDBRANCH  13  14
ENDBRANCH   8  13
BRANCH   1  26
HETATM   26  C   UNL     1      47.423 -28.769   1.840  1.00  0.00     0.105 C 
HETATM   27  C   UNL     1      46.208 -28.971   2.761  1.00  0.00     0.053 C 
BRANCH  26  28
HETATM   28  C   UNL     1      48.376 -30.004   1.983  1.00  0.00     0.276 C 
BRANCH  28  29
HETATM   29  N   UNL     1      49.860 -29.692   1.762  1.00  0.00    -0.076 N 
HETATM   30  H   UNL     1      49.951 -28.680   1.607  1.00  0.00     0.279 HD
HETATM   31  C   UNL     1      50.733 -30.006   2.950  1.00  0.00     0.269 C 
HETATM   32  C   UNL     1      50.373 -30.378   0.524  1.00  0.00     0.269 C 
ENDBRANCH  28  29
ENDBRANCH  26  28
BRANCH  26  33
HETATM   33  O   UNL     1      48.157 -27.621   2.301  1.00  0.00    -0.384 OA
HETATM   34  H   UNL     1      48.600 -27.837   3.142  1.00  0.00     0.211 HD
ENDBRANCH  26  33
ENDBRANCH   1  26
TORSDOF 8
ENDMDL
MODEL 7
REMARK VINA RESULT:      -7.4      3.404      9.102
REMARK  8 active torsions:
REMARK  status: ('A' for Active; 'I' for Inactive)
REMARK    1  A    between atoms: C_2  and  C_4 
REMARK    2  A    between atoms: C_2  and  C_29 
REMARK    3  A    between atoms: C_2  and  O_3 
REMARK    4  A    between atoms: N_11  and  C_13 
REMARK    5  A    between atoms: C_13  and  C_14 
REMARK    6  A    between atoms: C_16  and  S_17 
REMARK    7  A    between atoms: S_17  and  C_18 
REMARK    8  A    between atoms: C_29  and  N_30 
ROOT
HETATM    1  C   UNL     1      43.285  -9.675  10.617  1.00  0.00    -0.022 A 
HETATM    2  C   UNL     1      42.826  -9.687   9.283  1.00  0.00     0.022 A 
HETATM    3  C   UNL     1      43.705  -9.816   8.194  1.00  0.00     0.002 A 
HETATM    4  C   UNL     1      45.072  -9.908   8.445  1.00  0.00     0.076 A 
HETATM    5  O   UNL     1      45.974  -9.978   7.421  1.00  0.00    -0.349 OA
HETATM    6  C   UNL     1      45.932 -11.243   6.747  1.00  0.00     0.203 C 
HETATM    7  C   UNL     1      44.910 -11.255   5.601  1.00  0.00     0.262 C 
HETATM    8  N   UNL     1      43.472 -11.201   6.085  1.00  0.00    -0.059 N 
HETATM    9  H   UNL     1      42.877 -11.168   5.248  1.00  0.00     0.280 HD
HETATM   10  C   UNL     1      43.177  -9.890   6.791  1.00  0.00     0.276 C 
HETATM   11  C   UNL     1      45.557  -9.875   9.748  1.00  0.00     0.038 A 
HETATM   12  C   UNL     1      44.670  -9.790  10.827  1.00  0.00     0.013 A 
ENDROOT
BRANCH   8  13
HETATM   13  C   UNL     1      43.044 -12.460   6.824  1.00  0.00     0.299 C 
BRANCH  13  14
HETATM   14  C   UNL     1      42.154 -13.378   6.070  1.00  0.00     0.080 A 
HETATM   15  O   UNL     1      42.740 -14.164   5.130  1.00  0.00    -0.306 OA
HETATM   16  C   UNL     1      41.782 -14.980   4.597  1.00  0.00     0.120 A 
HETATM   17  C   UNL     1      40.557 -14.632   5.127  1.00  0.00     0.047 A 
HETATM   18  C   UNL     1      40.795 -13.609   6.081  1.00  0.00     0.038 A 
BRANCH  16  19
HETATM   19  S   UNL     1      42.159 -16.238   3.451  1.00  0.00    -0.025 SA
BRANCH  19  20
HETATM   20  C   UNL     1      42.860 -17.354   4.577  1.00  0.00     0.197 A 
HETATM   21  N   UNL     1      43.695 -18.373   4.219  1.00  0.00    -0.322 N 
HETATM   22  C   UNL     1      44.171 -18.723   2.906  1.00  0.00     0.159 C 
HETATM   23  C   UNL     1      43.998 -19.024   5.380  1.00  0.00     0.235 A 
HETATM   24  N   UNL     1      43.411 -18.421   6.390  1.00  0.00    -0.143 NA
HETATM   25  N   UNL     1      42.698 -17.364   5.883  1.00  0.00    -0.123 NA
ENDBRANCH  19  20
ENDBRANCH  16  19
ENDBRANCH  13  14
ENDBRANCH   8  13
BRANCH   1  26
HETATM   26  C   UNL     1      42.279  -9.629  11.772  1.00  0.00     0.105 C 
HETATM   27  C   UNL     1      42.720  -8.540  12.765  1.00  0.00     0.053 C 
BRANCH  26  28
HETATM   28  C   UNL     1      40.796  -9.355  11.348  1.00  0.00     0.276 C 
BRANCH  28  29
HETATM   29  N   UNL     1      40.333  -7.909  11.548  1.00  0.00    -0.076 N 
HETATM   30  H   UNL     1      41.066  -7.411  12.070  1.00  0.00     0.279 HD
HETATM   31  C   UNL     1      40.152  -7.142  10.262  1.00  0.00     0.269 C 
HETATM   32  C   UNL     1      39.081  -7.858  12.382  1.00  0.00     0.269 C 
ENDBRANCH  28  29
ENDBRANCH  26  28
BRANCH  26  33
HETATM   33  O   UNL     1      42.291 -10.896  12.452  1.00  0.00    -0.384 OA
HETATM   34  H   UNL     1      43.028 -11.438  12.113  1.00  0.00     0.211 HD
ENDBRANCH  26  33
ENDBRANCH   1  26
TORSDOF 8
ENDMDL
MODEL 8
REMARK VINA RESULT:      -7.4      2.346      4.550
REMARK  8 active torsions:
REMARK  status: ('A' for Active; 'I' for Inactive)
REMARK    1  A    between atoms: C_2  and  C_4 
REMARK    2  A    between atoms: C_2  and  C_29 
REMARK    3  A    between atoms: C_2  and  O_3 
REMARK    4  A    between atoms: N_11  and  C_13 
REMARK    5  A    between atoms: C_13  and  C_14 
REMARK    6  A    between atoms: C_16  and  S_17 
REMARK    7  A    between atoms: S_17  and  C_18 
REMARK    8  A    between atoms: C_29  and  N_30 
ROOT
HETATM    1  C   UNL     1      41.655 -14.711   2.685  1.00  0.00    -0.022 A 
HETATM    2  C   UNL     1      42.307 -13.463   2.768  1.00  0.00     0.022 A 
HETATM    3  C   UNL     1      41.596 -12.250   2.757  1.00  0.00     0.002 A 
HETATM    4  C   UNL     1      40.210 -12.289   2.634  1.00  0.00     0.076 A 
HETATM    5  O   UNL     1      39.476 -11.139   2.561  1.00  0.00    -0.349 OA
HETATM    6  C   UNL     1      39.425 -10.447   3.817  1.00  0.00     0.203 C 
HETATM    7  C   UNL     1      40.597  -9.469   3.988  1.00  0.00     0.262 C 
HETATM    8  N   UNL     1      41.934 -10.168   4.160  1.00  0.00    -0.059 N 
HETATM    9  H   UNL     1      42.648  -9.431   4.219  1.00  0.00     0.280 HD
HETATM   10  C   UNL     1      42.316 -10.942   2.911  1.00  0.00     0.276 C 
HETATM   11  C   UNL     1      39.540 -13.504   2.526  1.00  0.00     0.038 A 
HETATM   12  C   UNL     1      40.254 -14.707   2.583  1.00  0.00     0.013 A 
ENDROOT
BRANCH   8  13
HETATM   13  C   UNL     1      42.043 -10.931   5.470  1.00  0.00     0.299 C 
BRANCH  13  14
HETATM   14  C   UNL     1      43.407 -11.017   6.054  1.00  0.00     0.080 A 
HETATM   15  O   UNL     1      43.623 -10.332   7.207  1.00  0.00    -0.306 OA
HETATM   16  C   UNL     1      44.900 -10.586   7.621  1.00  0.00     0.120 A 
HETATM   17  C   UNL     1      45.534 -11.351   6.664  1.00  0.00     0.047 A 
HETATM   18  C   UNL     1      44.573 -11.637   5.660  1.00  0.00     0.038 A 
BRANCH  16  19
HETATM   19  S   UNL     1      45.522 -10.002   9.141  1.00  0.00    -0.025 SA
BRANCH  19  20
HETATM   20  C   UNL     1      44.547  -8.572   9.238  1.00  0.00     0.197 A 
HETATM   21  N   UNL     1      43.491  -8.427  10.092  1.00  0.00    -0.322 N 
HETATM   22  C   UNL     1      42.986  -9.364  11.061  1.00  0.00     0.159 C 
HETATM   23  C   UNL     1      42.983  -7.186   9.838  1.00  0.00     0.235 A 
HETATM   24  N   UNL     1      43.704  -6.594   8.911  1.00  0.00    -0.143 NA
HETATM   25  N   UNL     1      44.694  -7.468   8.537  1.00  0.00    -0.123 NA
ENDBRANCH  19  20
ENDBRANCH  16  19
ENDBRANCH  13  14
ENDBRANCH   8  13
BRANCH   1  26
HETATM   26  C   UNL     1      42.467 -16.007   2.798  1.00  0.00     0.105 C 
HETATM   27  C   UNL     1      43.338 -16.153   1.539  1.00  0.00     0.053 C 
BRANCH  26  28
HETATM   28  C   UNL     1      43.386 -16.104   4.063  1.00  0.00     0.276 C 
BRANCH  28  29
HETATM   29  N   UNL     1      42.632 -16.132   5.396  1.00  0.00    -0.076 N 
HETATM   30  H   UNL     1      41.626 -16.191   5.191  1.00  0.00     0.279 HD
HETATM   31  C   UNL     1      42.947 -17.335   6.250  1.00  0.00     0.269 C 
HETATM   32  C   UNL     1      42.854 -14.857   6.165  1.00  0.00     0.269 C 
ENDBRANCH  28  29
ENDBRANCH  26  28
BRANCH  26  33
HETATM   33  O   UNL     1      41.560 -17.122   2.855  1.00  0.00    -0.384 OA
HETATM   34  H   UNL     1      41.845 -17.803   2.217  1.00  0.00     0.211 HD
ENDBRANCH  26  33
ENDBRANCH   1  26
TORSDOF 8
ENDMDL
MODEL 9
REMARK VINA RESULT:      -7.4      2.259      2.769
REMARK  8 active torsions:
REMARK  status: ('A' for Active; 'I' for Inactive)
REMARK    1  A    between atoms: C_2  and  C_4 
REMARK    2  A    between atoms: C_2  and  C_29 
REMARK    3  A    between atoms: C_2  and  O_3 
REMARK    4  A    between atoms: N_11  and  C_13 
REMARK    5  A    between atoms: C_13  and  C_14 
REMARK    6  A    between atoms: C_16  and  S_17 
REMARK    7  A    between atoms: S_17  and  C_18 
REMARK    8  A    between atoms: C_29  and  N_30 
ROOT
HETATM    1  C   UNL     1      40.813 -14.789   2.789  1.00  0.00    -0.022 A 
HETATM    2  C   UNL     1      40.758 -14.448   4.156  1.00  0.00     0.022 A 
HETATM    3  C   UNL     1      41.334 -15.260   5.149  1.00  0.00     0.002 A 
HETATM    4  C   UNL     1      41.950 -16.448   4.767  1.00  0.00     0.076 A 
HETATM    5  O   UNL     1      42.475 -17.301   5.697  1.00  0.00    -0.349 OA
HETATM    6  C   UNL     1      43.669 -16.781   6.298  1.00  0.00     0.203 C 
HETATM    7  C   UNL     1      43.368 -15.918   7.531  1.00  0.00     0.262 C 
HETATM    8  N   UNL     1      42.689 -14.604   7.186  1.00  0.00    -0.059 N 
HETATM    9  H   UNL     1      42.493 -14.128   8.076  1.00  0.00     0.280 HD
HETATM   10  C   UNL     1      41.313 -14.835   6.589  1.00  0.00     0.276 C 
HETATM   11  C   UNL     1      41.999 -16.824   3.429  1.00  0.00     0.038 A 
HETATM   12  C   UNL     1      41.463 -15.987   2.444  1.00  0.00     0.013 A 
ENDROOT
BRANCH   8  13
HETATM   13  C   UNL     1      43.592 -13.650   6.419  1.00  0.00     0.299 C 
BRANCH  13  14
HETATM   14  C   UNL     1      43.607 -12.246   6.904  1.00  0.00     0.080 A 
HETATM   15  O   UNL     1      42.637 -11.423   6.427  1.00  0.00    -0.306 OA
HETATM   16  C   UNL     1      42.773 -10.207   7.034  1.00  0.00     0.120 A 
HETATM   17  C   UNL     1      43.905 -10.227   7.821  1.00  0.00     0.047 A 
HETATM   18  C   UNL     1      44.438 -11.540   7.747  1.00  0.00     0.038 A 
BRANCH  16  19
HETATM   19  S   UNL     1      41.631  -8.912   6.795  1.00  0.00    -0.025 SA
BRANCH  19  20
HETATM   20  C   UNL     1      40.693  -9.184   8.227  1.00  0.00     0.197 A 
HETATM   21  N   UNL     1      39.571  -9.961   8.265  1.00  0.00    -0.322 N 
HETATM   22  C   UNL     1      38.957 -10.703   7.195  1.00  0.00     0.159 C 
HETATM   23  C   UNL     1      39.123  -9.894   9.553  1.00  0.00     0.235 A 
HETATM   24  N   UNL     1      39.938  -9.149  10.266  1.00  0.00    -0.143 NA
HETATM   25  N   UNL     1      40.931  -8.705   9.430  1.00  0.00    -0.123 NA
ENDBRANCH  19  20
ENDBRANCH  16  19
ENDBRANCH  13  14
ENDBRANCH   8  13
BRANCH   1  26
HETATM   26  C   UNL     1      40.256 -13.824   1.736  1.00  0.00     0.105 C 
HETATM   27  C   UNL     1      39.165 -12.959   2.391  1.00  0.00     0.053 C 
BRANCH  26  28
HETATM   28  C   UNL     1      41.318 -12.883   1.073  1.00  0.00     0.276 C 
BRANCH  28  29
HETATM   29  N   UNL     1      41.427 -11.495   1.713  1.00  0.00    -0.076 N 
HETATM   30  H   UNL     1      40.563 -11.321   2.241  1.00  0.00     0.279 HD
HETATM   31  C   UNL     1      42.551 -11.370   2.711  1.00  0.00     0.269 C 
HETATM   32  C   UNL     1      41.526 -10.425   0.658  1.00  0.00     0.269 C 
ENDBRANCH  28  29
ENDBRANCH  26  28
BRANCH  26  33
HETATM   33  O   UNL     1      39.654 -14.587   0.675  1.00  0.00    -0.384 OA
HETATM   34  H   UNL     1      40.307 -14.720  -0.037  1.00  0.00     0.211 HD
ENDBRANCH  26  33
ENDBRANCH   1  26
TORSDOF 8
ENDMDL
MODEL 10
REMARK VINA RESULT:      -7.3      3.388      9.095
REMARK  8 active torsions:
REMARK  status: ('A' for Active; 'I' for Inactive)
REMARK    1  A    between atoms: C_2  and  C_4 
REMARK    2  A    between atoms: C_2  and  C_29 
REMARK    3  A    between atoms: C_2  and  O_3 
REMARK    4  A    between atoms: N_11  and  C_13 
REMARK    5  A    between atoms: C_13  and  C_14 
REMARK    6  A    between atoms: C_16  and  S_17 
REMARK    7  A    between atoms: S_17  and  C_18 
REMARK    8  A    between atoms: C_29  and  N_30 
ROOT
HETATM    1  C   UNL     1      43.608 -12.671   6.424  1.00  0.00    -0.022 A 
HETATM    2  C   UNL     1      43.560 -12.512   5.024  1.00  0.00     0.022 A 
HETATM    3  C   UNL     1      43.128 -13.544   4.172  1.00  0.00     0.002 A 
HETATM    4  C   UNL     1      42.763 -14.765   4.733  1.00  0.00     0.076 A 
HETATM    5  O   UNL     1      42.390 -15.819   3.947  1.00  0.00    -0.349 OA
HETATM    6  C   UNL     1      41.102 -15.619   3.347  1.00  0.00     0.203 C 
HETATM    7  C   UNL     1      41.198 -14.887   2.000  1.00  0.00     0.262 C 
HETATM    8  N   UNL     1      41.618 -13.435   2.140  1.00  0.00    -0.059 N 
HETATM    9  H   UNL     1      41.696 -13.055   1.189  1.00  0.00     0.280 HD
HETATM   10  C   UNL     1      43.028 -13.320   2.691  1.00  0.00     0.276 C 
HETATM   11  C   UNL     1      42.822 -14.960   6.109  1.00  0.00     0.038 A 
HETATM   12  C   UNL     1      43.212 -13.912   6.951  1.00  0.00     0.013 A 
ENDROOT
BRANCH   8  13
HETATM   13  C   UNL     1      40.569 -12.574   2.826  1.00  0.00     0.299 C 
BRANCH  13  14
HETATM   14  C   UNL     1      39.539 -11.982   1.935  1.00  0.00     0.080 A 
HETATM   15  O   UNL     1      39.957 -11.557   0.714  1.00  0.00    -0.306 OA
HETATM   16  C   UNL     1      38.867 -11.112   0.020  1.00  0.00     0.120 A 
HETATM   17  C   UNL     1      37.765 -11.153   0.849  1.00  0.00     0.047 A 
HETATM   18  C   UNL     1      38.193 -11.721   2.078  1.00  0.00     0.038 A 
BRANCH  16  19
HETATM   19  S   UNL     1      38.962 -10.611  -1.647  1.00  0.00    -0.025 SA
BRANCH  19  20
HETATM   20  C   UNL     1      39.404 -12.150  -2.310  1.00  0.00     0.197 A 
HETATM   21  N   UNL     1      38.503 -13.117  -2.656  1.00  0.00    -0.322 N 
HETATM   22  C   UNL     1      37.066 -13.076  -2.571  1.00  0.00     0.159 C 
HETATM   23  C   UNL     1      39.249 -14.168  -3.105  1.00  0.00     0.235 A 
HETATM   24  N   UNL     1      40.524 -13.853  -3.068  1.00  0.00    -0.143 NA
HETATM   25  N   UNL     1      40.621 -12.578  -2.571  1.00  0.00    -0.123 NA
ENDBRANCH  19  20
ENDBRANCH  16  19
ENDBRANCH  13  14
ENDBRANCH   8  13
BRANCH   1  26
HETATM   26  C   UNL     1      43.995 -11.486   7.316  1.00  0.00     0.105 C 
HETATM   27  C   UNL     1      45.479 -11.156   7.079  1.00  0.00     0.053 C 
BRANCH  26  28
HETATM   28  C   UNL     1      43.146 -10.188   7.096  1.00  0.00     0.276 C 
BRANCH  28  29
HETATM   29  N   UNL     1      41.712 -10.267   7.629  1.00  0.00    -0.076 N 
HETATM   30  H   UNL     1      41.606 -11.163   8.122  1.00  0.00     0.279 HD
HETATM   31  C   UNL     1      41.378  -9.200   8.641  1.00  0.00     0.269 C 
HETATM   32  C   UNL     1      40.718 -10.262   6.498  1.00  0.00     0.269 C 
ENDBRANCH  28  29
ENDBRANCH  26  28
BRANCH  26  33
HETATM   33  O   UNL     1      43.828 -11.864   8.694  1.00  0.00    -0.384 OA
HETATM   34  H   UNL     1      43.327 -11.170   9.161  1.00  0.00     0.211 HD
ENDBRANCH  26  33
ENDBRANCH   1  26
TORSDOF 8
ENDMDL
