MODEL 1
REMARK VINA RESULT:      -9.5      0.000      0.000
REMARK  6 active torsions:
REMARK  status: ('A' for Active; 'I' for Inactive)
REMARK       I    between atoms: N_2  and  C_3 
REMARK    1  A    between atoms: N_2  and  C_15 
REMARK       I    between atoms: C_3  and  N_4 
REMARK    2  A    between atoms: N_4  and  C_5 
REMARK    3  A    between atoms: C_15  and  C_16 
REMARK    4  A    between atoms: C_16  and  C_17 
REMARK    5  A    between atoms: C_17  and  C_18 
REMARK    6  A    between atoms: C_22  and  C_23 
ROOT
HETATM    1  C   UNL     1      41.742 -12.450   6.014  1.00  0.00     0.154 C 
HETATM    2  N   UNL     1      42.836 -13.395   5.818  1.00  0.00    -0.338 N 
HETATM    3  C   UNL     1      42.561 -14.540   5.066  1.00  0.00     0.322 C 
HETATM    4  N   UNL     1      43.556 -15.493   5.068  1.00  0.00    -0.309 N 
HETATM    5  O   UNL     1      41.497 -14.656   4.462  1.00  0.00    -0.247 OA
HETATM    6  H   UNL     1      44.309 -15.357   5.717  1.00  0.00     0.170 HD
ENDROOT
BRANCH   2   7
HETATM    7  C   UNL     1      44.051 -13.124   6.592  1.00  0.00     0.127 C 
BRANCH   7   8
HETATM    8  C   UNL     1      44.596 -11.694   6.459  1.00  0.00     0.026 C 
BRANCH   8   9
HETATM    9  C   UNL     1      45.358 -11.158   7.673  1.00  0.00     0.060 C 
BRANCH   9  10
HETATM   10  C   UNL     1      44.512 -10.435   8.662  1.00  0.00     0.030 A 
HETATM   11  N   UNL     1      43.492  -9.617   8.267  1.00  0.00    -0.282 N 
HETATM   12  H   UNL     1      43.196  -9.399   7.321  1.00  0.00     0.189 HD
HETATM   13  N   UNL     1      42.801  -9.086   9.281  1.00  0.00    -0.174 NA
HETATM   14  C   UNL     1      43.418  -9.525  10.392  1.00  0.00     0.089 A 
HETATM   15  C   UNL     1      44.513 -10.366  10.038  1.00  0.00     0.060 A 
BRANCH  14  16
HETATM   16  C   UNL     1      42.944  -9.151  11.730  1.00  0.00    -0.006 A 
HETATM   17  C   UNL     1      41.914  -9.880  12.347  1.00  0.00     0.014 A 
HETATM   18  C   UNL     1      41.460  -9.544  13.624  1.00  0.00     0.001 A 
HETATM   19  C   UNL     1      42.028  -8.471  14.304  1.00  0.00     0.000 A 
HETATM   20  C   UNL     1      43.048  -7.733  13.708  1.00  0.00     0.001 A 
HETATM   21  C   UNL     1      43.504  -8.071  12.429  1.00  0.00     0.014 A 
ENDBRANCH  14  16
ENDBRANCH   9  10
ENDBRANCH   8   9
ENDBRANCH   7   8
ENDBRANCH   2   7
BRANCH   4  22
HETATM   22  C   UNL     1      43.579 -16.719   4.366  1.00  0.00     0.036 A 
HETATM   23  C   UNL     1      43.874 -17.951   4.955  1.00  0.00     0.039 A 
HETATM   24  C   UNL     1      43.874 -19.090   4.162  1.00  0.00    -0.024 A 
HETATM   25  C   UNL     1      43.589 -19.031   2.809  1.00  0.00    -0.026 A 
HETATM   26  C   UNL     1      44.183 -20.492   4.539  1.00  0.00     0.207 C 
HETATM   27  C   UNL     1      43.697 -20.390   2.226  1.00  0.00     0.207 C 
HETATM   28  C   UNL     1      43.290 -17.827   2.200  1.00  0.00     0.012 A 
HETATM   29  O   UNL     1      43.846 -21.269   3.366  1.00  0.00    -0.382 OA
HETATM   30  C   UNL     1      43.283 -16.670   2.987  1.00  0.00     0.030 A 
ENDBRANCH   4  22
TORSDOF 6
ENDMDL
MODEL 2
REMARK VINA RESULT:      -9.4      1.358      2.120
REMARK  6 active torsions:
REMARK  status: ('A' for Active; 'I' for Inactive)
REMARK       I    between atoms: N_2  and  C_3 
REMARK    1  A    between atoms: N_2  and  C_15 
REMARK       I    between atoms: C_3  and  N_4 
REMARK    2  A    between atoms: N_4  and  C_5 
REMARK    3  A    between atoms: C_15  and  C_16 
REMARK    4  A    between atoms: C_16  and  C_17 
REMARK    5  A    between atoms: C_17  and  C_18 
REMARK    6  A    between atoms: C_22  and  C_23 
ROOT
HETATM    1  C   UNL     1      40.808 -12.480   4.528  1.00  0.00     0.154 C 
HETATM    2  N   UNL     1      41.973 -13.227   4.065  1.00  0.00    -0.338 N 
HETATM    3  C   UNL     1      41.929 -14.617   4.192  1.00  0.00     0.322 C 
HETATM    4  N   UNL     1      43.115 -15.266   3.926  1.00  0.00    -0.309 N 
HETATM    5  O   UNL     1      40.891 -15.187   4.522  1.00  0.00    -0.247 OA
HETATM    6  H   UNL     1      43.929 -14.690   3.817  1.00  0.00     0.170 HD
ENDROOT
BRANCH   2   7
HETATM    7  C   UNL     1      43.134 -12.415   3.689  1.00  0.00     0.127 C 
BRANCH   7   8
HETATM    8  C   UNL     1      43.544 -11.357   4.723  1.00  0.00     0.026 C 
BRANCH   8   9
HETATM    9  C   UNL     1      44.845 -11.635   5.479  1.00  0.00     0.060 C 
BRANCH   9  10
HETATM   10  C   UNL     1      44.844 -11.181   6.896  1.00  0.00     0.030 A 
HETATM   11  N   UNL     1      46.002 -11.072   7.612  1.00  0.00    -0.282 N 
HETATM   12  H   UNL     1      46.948 -11.275   7.305  1.00  0.00     0.189 HD
HETATM   13  N   UNL     1      45.829 -10.603   8.852  1.00  0.00    -0.174 NA
HETATM   14  C   UNL     1      44.501 -10.445   8.983  1.00  0.00     0.089 A 
HETATM   15  C   UNL     1      43.847 -10.816   7.773  1.00  0.00     0.060 A 
BRANCH  14  16
HETATM   16  C   UNL     1      43.908  -9.937  10.227  1.00  0.00    -0.006 A 
HETATM   17  C   UNL     1      43.525 -10.827  11.244  1.00  0.00     0.014 A 
HETATM   18  C   UNL     1      42.971 -10.359  12.438  1.00  0.00     0.001 A 
HETATM   19  C   UNL     1      42.788  -8.993  12.632  1.00  0.00     0.000 A 
HETATM   20  C   UNL     1      43.159  -8.095  11.633  1.00  0.00     0.001 A 
HETATM   21  C   UNL     1      43.715  -8.564  10.438  1.00  0.00     0.014 A 
ENDBRANCH  14  16
ENDBRANCH   9  10
ENDBRANCH   8   9
ENDBRANCH   7   8
ENDBRANCH   2   7
BRANCH   4  22
HETATM   22  C   UNL     1      43.358 -16.658   3.926  1.00  0.00     0.036 A 
HETATM   23  C   UNL     1      43.186 -17.480   2.810  1.00  0.00     0.039 A 
HETATM   24  C   UNL     1      43.450 -18.838   2.931  1.00  0.00    -0.024 A 
HETATM   25  C   UNL     1      43.878 -19.389   4.126  1.00  0.00    -0.026 A 
HETATM   26  C   UNL     1      43.315 -19.911   1.915  1.00  0.00     0.207 C 
HETATM   27  C   UNL     1      44.046 -20.852   3.959  1.00  0.00     0.207 C 
HETATM   28  C   UNL     1      44.060 -18.599   5.246  1.00  0.00     0.012 A 
HETATM   29  O   UNL     1      43.900 -21.080   2.538  1.00  0.00    -0.382 OA
HETATM   30  C   UNL     1      43.802 -17.228   5.139  1.00  0.00     0.030 A 
ENDBRANCH   4  22
TORSDOF 6
ENDMDL
MODEL 3
REMARK VINA RESULT:      -9.2      3.162     11.379
REMARK  6 active torsions:
REMARK  status: ('A' for Active; 'I' for Inactive)
REMARK       I    between atoms: N_2  and  C_3 
REMARK    1  A    between atoms: N_2  and  C_15 
REMARK       I    between atoms: C_3  and  N_4 
REMARK    2  A    between atoms: N_4  and  C_5 
REMARK    3  A    between atoms: C_15  and  C_16 
REMARK    4  A    between atoms: C_16  and  C_17 
REMARK    5  A    between atoms: C_17  and  C_18 
REMARK    6  A    between atoms: C_22  and  C_23 
ROOT
HETATM    1  C   UNL     1      45.844 -11.263   6.697  1.00  0.00     0.154 C 
HETATM    2  N   UNL     1      44.589 -11.136   7.432  1.00  0.00    -0.338 N 
HETATM    3  C   UNL     1      44.614 -10.382   8.608  1.00  0.00     0.322 C 
HETATM    4  N   UNL     1      43.468 -10.448   9.367  1.00  0.00    -0.309 N 
HETATM    5  O   UNL     1      45.606  -9.723   8.912  1.00  0.00    -0.247 OA
HETATM    6  H   UNL     1      42.787 -11.135   9.099  1.00  0.00     0.170 HD
ENDROOT
BRANCH   2   7
HETATM    7  C   UNL     1      43.487 -11.972   6.947  1.00  0.00     0.127 C 
BRANCH   7   8
HETATM    8  C   UNL     1      43.885 -13.401   6.553  1.00  0.00     0.026 C 
BRANCH   8   9
HETATM    9  C   UNL     1      43.206 -14.522   7.343  1.00  0.00     0.060 C 
BRANCH   9  10
HETATM   10  C   UNL     1      43.336 -15.873   6.734  1.00  0.00     0.030 A 
HETATM   11  N   UNL     1      43.362 -17.003   7.500  1.00  0.00    -0.282 N 
HETATM   12  H   UNL     1      43.308 -17.075   8.511  1.00  0.00     0.189 HD
HETATM   13  N   UNL     1      43.433 -18.135   6.792  1.00  0.00    -0.174 NA
HETATM   14  C   UNL     1      43.510 -17.741   5.509  1.00  0.00     0.089 A 
HETATM   15  C   UNL     1      43.469 -16.318   5.437  1.00  0.00     0.060 A 
BRANCH  14  16
HETATM   16  C   UNL     1      43.602 -18.713   4.412  1.00  0.00    -0.006 A 
HETATM   17  C   UNL     1      43.914 -20.056   4.679  1.00  0.00     0.014 A 
HETATM   18  C   UNL     1      43.994 -20.994   3.648  1.00  0.00     0.001 A 
HETATM   19  C   UNL     1      43.765 -20.604   2.333  1.00  0.00     0.000 A 
HETATM   20  C   UNL     1      43.458 -19.275   2.047  1.00  0.00     0.001 A 
HETATM   21  C   UNL     1      43.376 -18.335   3.080  1.00  0.00     0.014 A 
ENDBRANCH  14  16
ENDBRANCH   9  10
ENDBRANCH   8   9
ENDBRANCH   7   8
ENDBRANCH   2   7
BRANCH   4  22
HETATM   22  C   UNL     1      43.187  -9.760  10.570  1.00  0.00     0.036 A 
HETATM   23  C   UNL     1      42.917  -8.391  10.642  1.00  0.00     0.039 A 
HETATM   24  C   UNL     1      42.661  -7.823  11.883  1.00  0.00    -0.024 A 
HETATM   25  C   UNL     1      42.667  -8.581  13.041  1.00  0.00    -0.026 A 
HETATM   26  C   UNL     1      42.384  -6.406  12.223  1.00  0.00     0.207 C 
HETATM   27  C   UNL     1      42.395  -7.701  14.203  1.00  0.00     0.207 C 
HETATM   28  C   UNL     1      42.927  -9.938  13.000  1.00  0.00     0.012 A 
HETATM   29  O   UNL     1      42.015  -6.431  13.623  1.00  0.00    -0.382 OA
HETATM   30  C   UNL     1      43.184 -10.525  11.756  1.00  0.00     0.030 A 
ENDBRANCH   4  22
TORSDOF 6
ENDMDL
MODEL 4
REMARK VINA RESULT:      -9.1      4.987      8.739
REMARK  6 active torsions:
REMARK  status: ('A' for Active; 'I' for Inactive)
REMARK       I    between atoms: N_2  and  C_3 
REMARK    1  A    between atoms: N_2  and  C_15 
REMARK       I    between atoms: C_3  and  N_4 
REMARK    2  A    between atoms: N_4  and  C_5 
REMARK    3  A    between atoms: C_15  and  C_16 
REMARK    4  A    between atoms: C_16  and  C_17 
REMARK    5  A    between atoms: C_17  and  C_18 
REMARK    6  A    between atoms: C_22  and  C_23 
ROOT
HETATM    1  C   UNL     1      41.631  -9.564   4.404  1.00  0.00     0.154 C 
HETATM    2  N   UNL     1      42.130 -10.612   3.520  1.00  0.00    -0.338 N 
HETATM    3  C   UNL     1      41.266 -11.067   2.521  1.00  0.00     0.322 C 
HETATM    4  N   UNL     1      41.699 -12.181   1.838  1.00  0.00    -0.309 N 
HETATM    5  O   UNL     1      40.202 -10.493   2.299  1.00  0.00    -0.247 OA
HETATM    6  H   UNL     1      42.505 -12.653   2.207  1.00  0.00     0.170 HD
ENDROOT
BRANCH   2   7
HETATM    7  C   UNL     1      43.419 -11.197   3.900  1.00  0.00     0.127 C 
BRANCH   7   8
HETATM    8  C   UNL     1      43.559 -11.540   5.390  1.00  0.00     0.026 C 
BRANCH   8   9
HETATM    9  C   UNL     1      42.599 -12.608   5.918  1.00  0.00     0.060 C 
BRANCH   9  10
HETATM   10  C   UNL     1      43.013 -14.008   5.628  1.00  0.00     0.030 A 
HETATM   11  N   UNL     1      43.744 -14.736   6.523  1.00  0.00    -0.282 N 
HETATM   12  H   UNL     1      44.086 -14.447   7.434  1.00  0.00     0.189 HD
HETATM   13  N   UNL     1      43.988 -15.990   6.128  1.00  0.00    -0.174 NA
HETATM   14  C   UNL     1      43.445 -16.082   4.902  1.00  0.00     0.089 A 
HETATM   15  C   UNL     1      42.835 -14.844   4.548  1.00  0.00     0.060 A 
BRANCH  14  16
HETATM   16  C   UNL     1      43.506 -17.329   4.128  1.00  0.00    -0.006 A 
HETATM   17  C   UNL     1      44.202 -18.441   4.629  1.00  0.00     0.014 A 
HETATM   18  C   UNL     1      44.260 -19.637   3.910  1.00  0.00     0.001 A 
HETATM   19  C   UNL     1      43.624 -19.738   2.676  1.00  0.00     0.000 A 
HETATM   20  C   UNL     1      42.932 -18.644   2.160  1.00  0.00     0.001 A 
HETATM   21  C   UNL     1      42.873 -17.446   2.881  1.00  0.00     0.014 A 
ENDBRANCH  14  16
ENDBRANCH   9  10
ENDBRANCH   8   9
ENDBRANCH   7   8
ENDBRANCH   2   7
BRANCH   4  22
HETATM   22  C   UNL     1      41.065 -12.832   0.754  1.00  0.00     0.036 A 
HETATM   23  C   UNL     1      40.905 -12.263  -0.512  1.00  0.00     0.039 A 
HETATM   24  C   UNL     1      40.259 -12.996  -1.498  1.00  0.00    -0.024 A 
HETATM   25  C   UNL     1      39.775 -14.270  -1.254  1.00  0.00    -0.026 A 
HETATM   26  C   UNL     1      39.939 -12.607  -2.894  1.00  0.00     0.207 C 
HETATM   27  C   UNL     1      39.111 -14.784  -2.476  1.00  0.00     0.207 C 
HETATM   28  C   UNL     1      39.922 -14.859  -0.013  1.00  0.00     0.012 A 
HETATM   29  O   UNL     1      39.434 -13.819  -3.505  1.00  0.00    -0.382 OA
HETATM   30  C   UNL     1      40.574 -14.134   0.991  1.00  0.00     0.030 A 
ENDBRANCH   4  22
TORSDOF 6
ENDMDL
MODEL 5
REMARK VINA RESULT:      -9.0      4.676      8.461
REMARK  6 active torsions:
REMARK  status: ('A' for Active; 'I' for Inactive)
REMARK       I    between atoms: N_2  and  C_3 
REMARK    1  A    between atoms: N_2  and  C_15 
REMARK       I    between atoms: C_3  and  N_4 
REMARK    2  A    between atoms: N_4  and  C_5 
REMARK    3  A    between atoms: C_15  and  C_16 
REMARK    4  A    between atoms: C_16  and  C_17 
REMARK    5  A    between atoms: C_17  and  C_18 
REMARK    6  A    between atoms: C_22  and  C_23 
ROOT
HETATM    1  C   UNL     1      40.448 -13.292   6.226  1.00  0.00     0.154 C 
HETATM    2  N   UNL     1      41.620 -13.763   5.495  1.00  0.00    -0.338 N 
HETATM    3  C   UNL     1      41.592 -15.079   5.028  1.00  0.00     0.322 C 
HETATM    4  N   UNL     1      42.784 -15.544   4.518  1.00  0.00    -0.309 N 
HETATM    5  O   UNL     1      40.561 -15.746   5.087  1.00  0.00    -0.247 OA
HETATM    6  H   UNL     1      43.592 -14.966   4.662  1.00  0.00     0.170 HD
ENDROOT
BRANCH   2   7
HETATM    7  C   UNL     1      42.772 -12.856   5.497  1.00  0.00     0.127 C 
BRANCH   7   8
HETATM    8  C   UNL     1      42.765 -11.801   4.382  1.00  0.00     0.026 C 
BRANCH   8   9
HETATM    9  C   UNL     1      43.019 -12.326   2.968  1.00  0.00     0.060 C 
BRANCH   9  10
HETATM   10  C   UNL     1      41.791 -12.503   2.146  1.00  0.00     0.030 A 
HETATM   11  N   UNL     1      40.563 -12.126   2.606  1.00  0.00    -0.282 N 
HETATM   12  H   UNL     1      40.331 -11.712   3.504  1.00  0.00     0.189 HD
HETATM   13  N   UNL     1      39.575 -12.308   1.724  1.00  0.00    -0.174 NA
HETATM   14  C   UNL     1      40.161 -12.876   0.656  1.00  0.00     0.089 A 
HETATM   15  C   UNL     1      41.557 -13.030   0.894  1.00  0.00     0.060 A 
BRANCH  14  16
HETATM   16  C   UNL     1      39.391 -13.233  -0.542  1.00  0.00    -0.006 A 
HETATM   17  C   UNL     1      38.419 -12.353  -1.048  1.00  0.00     0.014 A 
HETATM   18  C   UNL     1      37.686 -12.673  -2.193  1.00  0.00     0.001 A 
HETATM   19  C   UNL     1      37.911 -13.879  -2.849  1.00  0.00     0.000 A 
HETATM   20  C   UNL     1      38.868 -14.767  -2.360  1.00  0.00     0.001 A 
HETATM   21  C   UNL     1      39.604 -14.446  -1.214  1.00  0.00     0.014 A 
ENDBRANCH  14  16
ENDBRANCH   9  10
ENDBRANCH   8   9
ENDBRANCH   7   8
ENDBRANCH   2   7
BRANCH   4  22
HETATM   22  C   UNL     1      43.042 -16.805   3.935  1.00  0.00     0.036 A 
HETATM   23  C   UNL     1      43.481 -17.921   4.652  1.00  0.00     0.039 A 
HETATM   24  C   UNL     1      43.709 -19.109   3.969  1.00  0.00    -0.024 A 
HETATM   25  C   UNL     1      43.510 -19.208   2.603  1.00  0.00    -0.026 A 
HETATM   26  C   UNL     1      44.202 -20.407   4.491  1.00  0.00     0.207 C 
HETATM   27  C   UNL     1      43.863 -20.577   2.155  1.00  0.00     0.207 C 
HETATM   28  C   UNL     1      43.073 -18.122   1.869  1.00  0.00     0.012 A 
HETATM   29  O   UNL     1      44.067 -21.323   3.378  1.00  0.00    -0.382 OA
HETATM   30  C   UNL     1      42.836 -16.919   2.543  1.00  0.00     0.030 A 
ENDBRANCH   4  22
TORSDOF 6
ENDMDL
MODEL 6
REMARK VINA RESULT:      -8.8      3.002      4.426
REMARK  6 active torsions:
REMARK  status: ('A' for Active; 'I' for Inactive)
REMARK       I    between atoms: N_2  and  C_3 
REMARK    1  A    between atoms: N_2  and  C_15 
REMARK       I    between atoms: C_3  and  N_4 
REMARK    2  A    between atoms: N_4  and  C_5 
REMARK    3  A    between atoms: C_15  and  C_16 
REMARK    4  A    between atoms: C_16  and  C_17 
REMARK    5  A    between atoms: C_17  and  C_18 
REMARK    6  A    between atoms: C_22  and  C_23 
ROOT
HETATM    1  C   UNL     1      41.833 -12.160   1.540  1.00  0.00     0.154 C 
HETATM    2  N   UNL     1      41.394 -13.333   2.288  1.00  0.00    -0.338 N 
HETATM    3  C   UNL     1      42.283 -14.409   2.363  1.00  0.00     0.322 C 
HETATM    4  N   UNL     1      41.761 -15.561   2.907  1.00  0.00    -0.309 N 
HETATM    5  O   UNL     1      43.439 -14.300   1.959  1.00  0.00    -0.247 OA
HETATM    6  H   UNL     1      40.769 -15.580   3.058  1.00  0.00     0.170 HD
ENDROOT
BRANCH   2   7
HETATM    7  C   UNL     1      39.994 -13.320   2.720  1.00  0.00     0.127 C 
BRANCH   7   8
HETATM    8  C   UNL     1      39.632 -12.199   3.705  1.00  0.00     0.026 C 
BRANCH   8   9
HETATM    9  C   UNL     1      39.712 -12.566   5.188  1.00  0.00     0.060 C 
BRANCH   9  10
HETATM   10  C   UNL     1      41.042 -12.327   5.812  1.00  0.00     0.030 A 
HETATM   11  N   UNL     1      41.889 -13.357   6.105  1.00  0.00    -0.282 N 
HETATM   12  H   UNL     1      41.741 -14.350   5.956  1.00  0.00     0.189 HD
HETATM   13  N   UNL     1      43.062 -12.964   6.614  1.00  0.00    -0.174 NA
HETATM   14  C   UNL     1      42.969 -11.627   6.713  1.00  0.00     0.089 A 
HETATM   15  C   UNL     1      41.701 -11.192   6.231  1.00  0.00     0.060 A 
BRANCH  14  16
HETATM   16  C   UNL     1      44.077 -10.819   7.238  1.00  0.00    -0.006 A 
HETATM   17  C   UNL     1      43.818  -9.627   7.934  1.00  0.00     0.014 A 
HETATM   18  C   UNL     1      44.860  -8.853   8.449  1.00  0.00     0.001 A 
HETATM   19  C   UNL     1      46.180  -9.258   8.272  1.00  0.00     0.000 A 
HETATM   20  C   UNL     1      46.458 -10.435   7.580  1.00  0.00     0.001 A 
HETATM   21  C   UNL     1      45.413 -11.211   7.066  1.00  0.00     0.014 A 
ENDBRANCH  14  16
ENDBRANCH   9  10
ENDBRANCH   8   9
ENDBRANCH   7   8
ENDBRANCH   2   7
BRANCH   4  22
HETATM   22  C   UNL     1      42.429 -16.782   3.151  1.00  0.00     0.036 A 
HETATM   23  C   UNL     1      42.395 -17.878   2.286  1.00  0.00     0.039 A 
HETATM   24  C   UNL     1      43.087 -19.030   2.635  1.00  0.00    -0.024 A 
HETATM   25  C   UNL     1      43.805 -19.113   3.815  1.00  0.00    -0.026 A 
HETATM   26  C   UNL     1      43.177 -20.322   1.912  1.00  0.00     0.207 C 
HETATM   27  C   UNL     1      44.405 -20.464   3.929  1.00  0.00     0.207 C 
HETATM   28  C   UNL     1      43.860 -18.044   4.689  1.00  0.00     0.012 A 
HETATM   29  O   UNL     1      44.171 -21.081   2.641  1.00  0.00    -0.382 OA
HETATM   30  C   UNL     1      43.171 -16.875   4.349  1.00  0.00     0.030 A 
ENDBRANCH   4  22
TORSDOF 6
ENDMDL
MODEL 7
REMARK VINA RESULT:      -8.8      3.075     11.035
REMARK  6 active torsions:
REMARK  status: ('A' for Active; 'I' for Inactive)
REMARK       I    between atoms: N_2  and  C_3 
REMARK    1  A    between atoms: N_2  and  C_15 
REMARK       I    between atoms: C_3  and  N_4 
REMARK    2  A    between atoms: N_4  and  C_5 
REMARK    3  A    between atoms: C_15  and  C_16 
REMARK    4  A    between atoms: C_16  and  C_17 
REMARK    5  A    between atoms: C_17  and  C_18 
REMARK    6  A    between atoms: C_22  and  C_23 
ROOT
HETATM    1  C   UNL     1      45.674 -11.274   6.274  1.00  0.00     0.154 C 
HETATM    2  N   UNL     1      44.521 -11.444   7.153  1.00  0.00    -0.338 N 
HETATM    3  C   UNL     1      44.327 -10.476   8.141  1.00  0.00     0.322 C 
HETATM    4  N   UNL     1      43.350 -10.774   9.066  1.00  0.00    -0.309 N 
HETATM    5  O   UNL     1      44.998  -9.447   8.156  1.00  0.00    -0.247 OA
HETATM    6  H   UNL     1      42.977 -11.705   9.044  1.00  0.00     0.170 HD
ENDROOT
BRANCH   2   7
HETATM    7  C   UNL     1      43.805 -12.715   7.015  1.00  0.00     0.127 C 
BRANCH   7   8
HETATM    8  C   UNL     1      42.545 -12.655   6.141  1.00  0.00     0.026 C 
BRANCH   8   9
HETATM    9  C   UNL     1      42.785 -12.616   4.630  1.00  0.00     0.060 C 
BRANCH   9  10
HETATM   10  C   UNL     1      42.937 -13.954   3.995  1.00  0.00     0.030 A 
HETATM   11  N   UNL     1      42.955 -14.102   2.638  1.00  0.00    -0.282 N 
HETATM   12  H   UNL     1      42.868 -13.381   1.929  1.00  0.00     0.189 HD
HETATM   13  N   UNL     1      43.149 -15.362   2.234  1.00  0.00    -0.174 NA
HETATM   14  C   UNL     1      43.209 -16.086   3.365  1.00  0.00     0.089 A 
HETATM   15  C   UNL     1      43.062 -15.231   4.496  1.00  0.00     0.060 A 
BRANCH  14  16
HETATM   16  C   UNL     1      43.419 -17.539   3.335  1.00  0.00    -0.006 A 
HETATM   17  C   UNL     1      43.984 -18.197   4.440  1.00  0.00     0.014 A 
HETATM   18  C   UNL     1      44.179 -19.580   4.432  1.00  0.00     0.001 A 
HETATM   19  C   UNL     1      43.814 -20.327   3.316  1.00  0.00     0.000 A 
HETATM   20  C   UNL     1      43.256 -19.692   2.208  1.00  0.00     0.001 A 
HETATM   21  C   UNL     1      43.059 -18.306   2.217  1.00  0.00     0.014 A 
ENDBRANCH  14  16
ENDBRANCH   9  10
ENDBRANCH   8   9
ENDBRANCH   7   8
ENDBRANCH   2   7
BRANCH   4  22
HETATM   22  C   UNL     1      42.903  -9.971  10.140  1.00  0.00     0.036 A 
HETATM   23  C   UNL     1      42.029  -8.890   9.996  1.00  0.00     0.039 A 
HETATM   24  C   UNL     1      41.664  -8.169  11.124  1.00  0.00    -0.024 A 
HETATM   25  C   UNL     1      42.143  -8.498  12.380  1.00  0.00    -0.026 A 
HETATM   26  C   UNL     1      40.789  -6.976  11.229  1.00  0.00     0.207 C 
HETATM   27  C   UNL     1      41.608  -7.538  13.376  1.00  0.00     0.207 C 
HETATM   28  C   UNL     1      43.005  -9.564  12.554  1.00  0.00     0.012 A 
HETATM   29  O   UNL     1      40.619  -6.770  12.651  1.00  0.00    -0.382 OA
HETATM   30  C   UNL     1      43.380 -10.303  11.426  1.00  0.00     0.030 A 
ENDBRANCH   4  22
TORSDOF 6
ENDMDL
MODEL 8
REMARK VINA RESULT:      -8.6     17.535     19.032
REMARK  6 active torsions:
REMARK  status: ('A' for Active; 'I' for Inactive)
REMARK       I    between atoms: N_2  and  C_3 
REMARK    1  A    between atoms: N_2  and  C_15 
REMARK       I    between atoms: C_3  and  N_4 
REMARK    2  A    between atoms: N_4  and  C_5 
REMARK    3  A    between atoms: C_15  and  C_16 
REMARK    4  A    between atoms: C_16  and  C_17 
REMARK    5  A    between atoms: C_17  and  C_18 
REMARK    6  A    between atoms: C_22  and  C_23 
ROOT
HETATM    1  C   UNL     1      51.950 -32.334   0.023  1.00  0.00     0.154 C 
HETATM    2  N   UNL     1      50.636 -31.785   0.342  1.00  0.00    -0.338 N 
HETATM    3  C   UNL     1      49.925 -31.188  -0.702  1.00  0.00     0.322 C 
HETATM    4  N   UNL     1      48.785 -30.515  -0.323  1.00  0.00    -0.309 N 
HETATM    5  O   UNL     1      50.320 -31.274  -1.863  1.00  0.00    -0.247 OA
HETATM    6  H   UNL     1      48.646 -30.382   0.662  1.00  0.00     0.170 HD
ENDROOT
BRANCH   2   7
HETATM    7  C   UNL     1      50.292 -31.759   1.766  1.00  0.00     0.127 C 
BRANCH   7   8
HETATM    8  C   UNL     1      50.869 -30.571   2.549  1.00  0.00     0.026 C 
BRANCH   8   9
HETATM    9  C   UNL     1      49.952 -29.971   3.617  1.00  0.00     0.060 C 
BRANCH   9  10
HETATM   10  C   UNL     1      48.632 -29.509   3.108  1.00  0.00     0.030 A 
HETATM   11  N   UNL     1      48.449 -28.236   2.648  1.00  0.00    -0.282 N 
HETATM   12  H   UNL     1      49.130 -27.485   2.598  1.00  0.00     0.189 HD
HETATM   13  N   UNL     1      47.218 -28.001   2.181  1.00  0.00    -0.174 NA
HETATM   14  C   UNL     1      46.542 -29.145   2.388  1.00  0.00     0.089 A 
HETATM   15  C   UNL     1      47.400 -30.113   2.987  1.00  0.00     0.060 A 
BRANCH  14  16
HETATM   16  C   UNL     1      45.133 -29.283   2.000  1.00  0.00    -0.006 A 
HETATM   17  C   UNL     1      44.750 -29.141   0.657  1.00  0.00     0.014 A 
HETATM   18  C   UNL     1      43.415 -29.281   0.270  1.00  0.00     0.001 A 
HETATM   19  C   UNL     1      42.441 -29.563   1.223  1.00  0.00     0.000 A 
HETATM   20  C   UNL     1      42.801 -29.703   2.562  1.00  0.00     0.001 A 
HETATM   21  C   UNL     1      44.138 -29.565   2.949  1.00  0.00     0.014 A 
ENDBRANCH  14  16
ENDBRANCH   9  10
ENDBRANCH   8   9
ENDBRANCH   7   8
ENDBRANCH   2   7
BRANCH   4  22
HETATM   22  C   UNL     1      47.848 -29.862  -1.156  1.00  0.00     0.036 A 
HETATM   23  C   UNL     1      46.957 -30.527  -2.001  1.00  0.00     0.039 A 
HETATM   24  C   UNL     1      46.086 -29.778  -2.780  1.00  0.00    -0.024 A 
HETATM   25  C   UNL     1      46.082 -28.395  -2.735  1.00  0.00    -0.026 A 
HETATM   26  C   UNL     1      45.081 -30.241  -3.768  1.00  0.00     0.207 C 
HETATM   27  C   UNL     1      45.075 -27.876  -3.692  1.00  0.00     0.207 C 
HETATM   28  C   UNL     1      46.950 -27.709  -1.906  1.00  0.00     0.012 A 
HETATM   29  O   UNL     1      44.346 -29.047  -4.130  1.00  0.00    -0.382 OA
HETATM   30  C   UNL     1      47.832 -28.451  -1.112  1.00  0.00     0.030 A 
ENDBRANCH   4  22
TORSDOF 6
ENDMDL
MODEL 9
REMARK VINA RESULT:      -8.5      5.939      9.036
REMARK  6 active torsions:
REMARK  status: ('A' for Active; 'I' for Inactive)
REMARK       I    between atoms: N_2  and  C_3 
REMARK    1  A    between atoms: N_2  and  C_15 
REMARK       I    between atoms: C_3  and  N_4 
REMARK    2  A    between atoms: N_4  and  C_5 
REMARK    3  A    between atoms: C_15  and  C_16 
REMARK    4  A    between atoms: C_16  and  C_17 
REMARK    5  A    between atoms: C_17  and  C_18 
REMARK    6  A    between atoms: C_22  and  C_23 
ROOT
HETATM    1  C   UNL     1      38.687  -9.584   4.183  1.00  0.00     0.154 C 
HETATM    2  N   UNL     1      39.494 -10.007   3.043  1.00  0.00    -0.338 N 
HETATM    3  C   UNL     1      38.956 -10.997   2.217  1.00  0.00     0.322 C 
HETATM    4  N   UNL     1      39.822 -11.504   1.273  1.00  0.00    -0.309 N 
HETATM    5  O   UNL     1      37.792 -11.368   2.352  1.00  0.00    -0.247 OA
HETATM    6  H   UNL     1      40.787 -11.237   1.357  1.00  0.00     0.170 HD
ENDROOT
BRANCH   2   7
HETATM    7  C   UNL     1      40.859  -9.475   3.003  1.00  0.00     0.127 C 
BRANCH   7   8
HETATM    8  C   UNL     1      41.893 -10.291   3.792  1.00  0.00     0.026 C 
BRANCH   8   9
HETATM    9  C   UNL     1      42.803 -11.195   2.957  1.00  0.00     0.060 C 
BRANCH   9  10
HETATM   10  C   UNL     1      42.648 -12.649   3.232  1.00  0.00     0.030 A 
HETATM   11  N   UNL     1      41.576 -13.135   3.925  1.00  0.00    -0.282 N 
HETATM   12  H   UNL     1      40.801 -12.614   4.323  1.00  0.00     0.189 HD
HETATM   13  N   UNL     1      41.565 -14.467   4.040  1.00  0.00    -0.174 NA
HETATM   14  C   UNL     1      42.699 -14.878   3.448  1.00  0.00     0.089 A 
HETATM   15  C   UNL     1      43.416 -13.755   2.941  1.00  0.00     0.060 A 
BRANCH  14  16
HETATM   16  C   UNL     1      43.051 -16.301   3.369  1.00  0.00    -0.006 A 
HETATM   17  C   UNL     1      42.630 -17.076   2.276  1.00  0.00     0.014 A 
HETATM   18  C   UNL     1      42.965 -18.428   2.181  1.00  0.00     0.001 A 
HETATM   19  C   UNL     1      43.725 -19.029   3.180  1.00  0.00     0.000 A 
HETATM   20  C   UNL     1      44.148 -18.278   4.275  1.00  0.00     0.001 A 
HETATM   21  C   UNL     1      43.814 -16.922   4.369  1.00  0.00     0.014 A 
ENDBRANCH  14  16
ENDBRANCH   9  10
ENDBRANCH   8   9
ENDBRANCH   7   8
ENDBRANCH   2   7
BRANCH   4  22
HETATM   22  C   UNL     1      39.549 -12.470   0.278  1.00  0.00     0.036 A 
HETATM   23  C   UNL     1      38.710 -12.247  -0.817  1.00  0.00     0.039 A 
HETATM   24  C   UNL     1      38.511 -13.275  -1.728  1.00  0.00    -0.024 A 
HETATM   25  C   UNL     1      39.123 -14.506  -1.576  1.00  0.00    -0.026 A 
HETATM   26  C   UNL     1      37.653 -13.298  -2.938  1.00  0.00     0.207 C 
HETATM   27  C   UNL     1      38.699 -15.404  -2.677  1.00  0.00     0.207 C 
HETATM   28  C   UNL     1      39.961 -14.755  -0.505  1.00  0.00     0.012 A 
HETATM   29  O   UNL     1      37.978 -14.547  -3.594  1.00  0.00    -0.382 OA
HETATM   30  C   UNL     1      40.174 -13.727   0.421  1.00  0.00     0.030 A 
ENDBRANCH   4  22
TORSDOF 6
ENDMDL
MODEL 10
REMARK VINA RESULT:      -8.2      2.534      4.390
REMARK  6 active torsions:
REMARK  status: ('A' for Active; 'I' for Inactive)
REMARK       I    between atoms: N_2  and  C_3 
REMARK    1  A    between atoms: N_2  and  C_15 
REMARK       I    between atoms: C_3  and  N_4 
REMARK    2  A    between atoms: N_4  and  C_5 
REMARK    3  A    between atoms: C_15  and  C_16 
REMARK    4  A    between atoms: C_16  and  C_17 
REMARK    5  A    between atoms: C_17  and  C_18 
REMARK    6  A    between atoms: C_22  and  C_23 
ROOT
HETATM    1  C   UNL     1      45.791  -9.599   8.427  1.00  0.00     0.154 C 
HETATM    2  N   UNL     1      44.779 -10.650   8.442  1.00  0.00    -0.338 N 
HETATM    3  C   UNL     1      44.811 -11.579   7.400  1.00  0.00     0.322 C 
HETATM    4  N   UNL     1      43.730 -12.431   7.343  1.00  0.00    -0.309 N 
HETATM    5  O   UNL     1      45.750 -11.604   6.607  1.00  0.00    -0.247 OA
HETATM    6  H   UNL     1      42.956 -12.218   7.946  1.00  0.00     0.170 HD
ENDROOT
BRANCH   2   7
HETATM    7  C   UNL     1      43.727 -10.498   9.452  1.00  0.00     0.127 C 
BRANCH   7   8
HETATM    8  C   UNL     1      44.232 -10.219  10.874  1.00  0.00     0.026 C 
BRANCH   8   9
HETATM    9  C   UNL     1      44.095  -8.773  11.356  1.00  0.00     0.060 C 
BRANCH   9  10
HETATM   10  C   UNL     1      43.235  -8.602  12.559  1.00  0.00     0.030 A 
HETATM   11  N   UNL     1      42.302  -9.536  12.908  1.00  0.00    -0.282 N 
HETATM   12  H   UNL     1      42.077 -10.403  12.431  1.00  0.00     0.189 HD
HETATM   13  N   UNL     1      41.651  -9.253  14.041  1.00  0.00    -0.174 NA
HETATM   14  C   UNL     1      42.132  -8.060  14.431  1.00  0.00     0.089 A 
HETATM   15  C   UNL     1      43.122  -7.612  13.510  1.00  0.00     0.060 A 
BRANCH  14  16
HETATM   16  C   UNL     1      41.656  -7.405  15.656  1.00  0.00    -0.006 A 
HETATM   17  C   UNL     1      40.927  -8.132  16.611  1.00  0.00     0.014 A 
HETATM   18  C   UNL     1      40.477  -7.526  17.787  1.00  0.00     0.001 A 
HETATM   19  C   UNL     1      40.748  -6.182  18.024  1.00  0.00     0.000 A 
HETATM   20  C   UNL     1      41.466  -5.443  17.086  1.00  0.00     0.001 A 
HETATM   21  C   UNL     1      41.919  -6.050  15.910  1.00  0.00     0.014 A 
ENDBRANCH  14  16
ENDBRANCH   9  10
ENDBRANCH   8   9
ENDBRANCH   7   8
ENDBRANCH   2   7
BRANCH   4  22
HETATM   22  C   UNL     1      43.514 -13.494   6.437  1.00  0.00     0.036 A 
HETATM   23  C   UNL     1      43.870 -14.821   6.692  1.00  0.00     0.039 A 
HETATM   24  C   UNL     1      43.613 -15.781   5.722  1.00  0.00    -0.024 A 
HETATM   25  C   UNL     1      43.015 -15.452   4.518  1.00  0.00    -0.026 A 
HETATM   26  C   UNL     1      43.922 -17.232   5.738  1.00  0.00     0.207 C 
HETATM   27  C   UNL     1      42.901 -16.670   3.680  1.00  0.00     0.207 C 
HETATM   28  C   UNL     1      42.649 -14.149   4.241  1.00  0.00     0.012 A 
HETATM   29  O   UNL     1      43.268 -17.759   4.559  1.00  0.00    -0.382 OA
HETATM   30  C   UNL     1      42.898 -13.171   5.209  1.00  0.00     0.030 A 
ENDBRANCH   4  22
TORSDOF 6
ENDMDL
