MODEL 1
REMARK VINA RESULT:     -10.7      0.000      0.000
REMARK  4 active torsions:
REMARK  status: ('A' for Active; 'I' for Inactive)
REMARK    1  A    between atoms: C_8  and  C_9 
REMARK    2  A    between atoms: C_12  and  N_13 
REMARK       I    between atoms: N_13  and  C_14 
REMARK    3  A    between atoms: C_14  and  C_15 
REMARK    4  A    between atoms: C_17  and  N_18 
ROOT
HETATM    1  C   UNL     1      43.316 -10.154   8.113  1.00  0.00     0.010 A 
HETATM    2  C   UNL     1      42.468  -9.981   7.013  1.00  0.00     0.017 A 
HETATM    3  C   UNL     1      42.498 -10.875   5.935  1.00  0.00     0.030 A 
HETATM    4  C   UNL     1      43.376 -11.958   5.929  1.00  0.00     0.035 A 
HETATM    5  C   UNL     1      44.279 -12.091   6.989  1.00  0.00     0.030 A 
HETATM    6  C   UNL     1      44.247 -11.200   8.071  1.00  0.00     0.017 A 
ENDROOT
BRANCH   4   7
HETATM    7  N   UNL     1      43.373 -12.965   4.937  1.00  0.00    -0.323 N 
HETATM    8  C   UNL     1      42.419 -13.955   4.784  1.00  0.00     0.256 C 
HETATM    9  O   UNL     1      41.361 -14.070   5.392  1.00  0.00    -0.267 OA
HETATM   10  H   UNL     1      44.229 -13.059   4.402  1.00  0.00     0.169 HD
BRANCH   8  11
HETATM   11  C   UNL     1      42.788 -15.041   3.841  1.00  0.00     0.034 A 
HETATM   12  C   UNL     1      43.029 -16.354   4.277  1.00  0.00     0.047 A 
HETATM   13  C   UNL     1      43.386 -17.366   3.366  1.00  0.00     0.046 A 
HETATM   14  C   UNL     1      43.476 -17.004   2.009  1.00  0.00     0.030 A 
HETATM   15  C   UNL     1      43.245 -15.694   1.575  1.00  0.00     0.003 A 
HETATM   16  C   UNL     1      42.909 -14.710   2.492  1.00  0.00     0.017 A 
BRANCH  13  17
HETATM   17  N   UNL     1      43.659 -18.704   3.797  1.00  0.00    -0.252 N 
HETATM   18  C   UNL     1      43.937 -19.065   5.100  1.00  0.00     0.231 C 
HETATM   19  O   UNL     1      43.884 -18.387   6.118  1.00  0.00    -0.273 OA
HETATM   20  C   UNL     1      44.349 -20.505   5.132  1.00  0.00     0.113 C 
HETATM   21  C   UNL     1      43.869 -21.041   3.810  1.00  0.00     0.113 C 
HETATM   22  C   UNL     1      43.673 -19.812   2.974  1.00  0.00     0.231 C 
HETATM   23  O   UNL     1      43.541 -19.885   1.759  1.00  0.00    -0.273 OA
ENDBRANCH  13  17
ENDBRANCH   8  11
ENDBRANCH   4   7
BRANCH   1  24
HETATM   24  C   UNL     1      43.222  -9.308   9.307  1.00  0.00     0.139 A 
HETATM   25  N   UNL     1      42.750  -8.013   9.286  1.00  0.00    -0.338 N 
HETATM   26  C   UNL     1      42.697  -7.535  10.568  1.00  0.00     0.063 A 
HETATM   27  H   UNL     1      42.438  -7.518   8.466  1.00  0.00     0.167 HD
HETATM   28  C   UNL     1      43.173  -8.586  11.340  1.00  0.00     0.086 A 
HETATM   29  C   UNL     1      42.275  -6.317  11.100  1.00  0.00     0.032 A 
HETATM   30  C   UNL     1      43.250  -8.429  12.732  1.00  0.00     0.040 A 
HETATM   31  N   UNL     1      43.488  -9.667  10.551  1.00  0.00    -0.228 NA
HETATM   32  C   UNL     1      42.843  -7.211  13.307  1.00  0.00    -0.060 A 
HETATM   33  C   UNL     1      42.882  -7.024  14.796  1.00  0.00     0.048 C 
HETATM   34  C   UNL     1      42.354  -6.180  12.491  1.00  0.00     0.009 A 
ENDBRANCH   1  24
TORSDOF 4
ENDMDL
MODEL 2
REMARK VINA RESULT:     -10.6      3.768      7.635
REMARK  4 active torsions:
REMARK  status: ('A' for Active; 'I' for Inactive)
REMARK    1  A    between atoms: C_8  and  C_9 
REMARK    2  A    between atoms: C_12  and  N_13 
REMARK       I    between atoms: N_13  and  C_14 
REMARK    3  A    between atoms: C_14  and  C_15 
REMARK    4  A    between atoms: C_17  and  N_18 
ROOT
HETATM    1  C   UNL     1      42.043  -7.865  14.978  1.00  0.00     0.010 A 
HETATM    2  C   UNL     1      41.598  -9.010  14.309  1.00  0.00     0.017 A 
HETATM    3  C   UNL     1      42.161  -9.392  13.084  1.00  0.00     0.030 A 
HETATM    4  C   UNL     1      43.177  -8.637  12.500  1.00  0.00     0.035 A 
HETATM    5  C   UNL     1      43.571  -7.450  13.125  1.00  0.00     0.030 A 
HETATM    6  C   UNL     1      43.012  -7.069  14.352  1.00  0.00     0.017 A 
ENDROOT
BRANCH   4   7
HETATM    7  N   UNL     1      43.873  -9.029  11.333  1.00  0.00    -0.323 N 
HETATM    8  C   UNL     1      43.429  -8.882  10.031  1.00  0.00     0.256 C 
HETATM    9  O   UNL     1      42.426  -8.290   9.650  1.00  0.00    -0.267 OA
HETATM   10  H   UNL     1      44.689  -9.613  11.481  1.00  0.00     0.169 HD
BRANCH   8  11
HETATM   11  C   UNL     1      44.221  -9.615   9.012  1.00  0.00     0.034 A 
HETATM   12  C   UNL     1      43.630 -10.537   8.134  1.00  0.00     0.047 A 
HETATM   13  C   UNL     1      44.402 -11.227   7.179  1.00  0.00     0.046 A 
HETATM   14  C   UNL     1      45.780 -10.940   7.141  1.00  0.00     0.030 A 
HETATM   15  C   UNL     1      46.371 -10.028   8.022  1.00  0.00     0.003 A 
HETATM   16  C   UNL     1      45.593  -9.371   8.964  1.00  0.00     0.017 A 
BRANCH  13  17
HETATM   17  N   UNL     1      43.819 -12.188   6.292  1.00  0.00    -0.252 N 
HETATM   18  C   UNL     1      43.491 -13.481   6.647  1.00  0.00     0.231 C 
HETATM   19  O   UNL     1      43.505 -14.006   7.752  1.00  0.00    -0.273 OA
HETATM   20  C   UNL     1      43.081 -14.235   5.419  1.00  0.00     0.113 C 
HETATM   21  C   UNL     1      42.793 -13.152   4.415  1.00  0.00     0.113 C 
HETATM   22  C   UNL     1      43.498 -11.951   4.971  1.00  0.00     0.231 C 
HETATM   23  O   UNL     1      43.698 -10.958   4.283  1.00  0.00    -0.273 OA
ENDBRANCH  13  17
ENDBRANCH   8  11
ENDBRANCH   4   7
BRANCH   1  24
HETATM   24  C   UNL     1      41.559  -7.509  16.316  1.00  0.00     0.139 A 
HETATM   25  N   UNL     1      40.832  -8.366  17.114  1.00  0.00    -0.338 N 
HETATM   26  C   UNL     1      40.620  -7.774  18.330  1.00  0.00     0.063 A 
HETATM   27  H   UNL     1      40.552  -9.302  16.864  1.00  0.00     0.167 HD
HETATM   28  C   UNL     1      41.230  -6.533  18.212  1.00  0.00     0.086 A 
HETATM   29  C   UNL     1      39.979  -8.210  19.489  1.00  0.00     0.032 A 
HETATM   30  C   UNL     1      41.201  -5.652  19.303  1.00  0.00     0.040 A 
HETATM   31  N   UNL     1      41.804  -6.387  16.971  1.00  0.00    -0.228 NA
HETATM   32  C   UNL     1      40.556  -6.051  20.488  1.00  0.00    -0.060 A 
HETATM   33  C   UNL     1      40.536  -5.144  21.685  1.00  0.00     0.048 C 
HETATM   34  C   UNL     1      39.965  -7.321  20.570  1.00  0.00     0.009 A 
ENDBRANCH   1  24
TORSDOF 4
ENDMDL
MODEL 3
REMARK VINA RESULT:     -10.2      3.320     11.781
REMARK  4 active torsions:
REMARK  status: ('A' for Active; 'I' for Inactive)
REMARK    1  A    between atoms: C_8  and  C_9 
REMARK    2  A    between atoms: C_12  and  N_13 
REMARK       I    between atoms: N_13  and  C_14 
REMARK    3  A    between atoms: C_14  and  C_15 
REMARK    4  A    between atoms: C_17  and  N_18 
ROOT
HETATM    1  C   UNL     1      43.451 -13.597   5.701  1.00  0.00     0.010 A 
HETATM    2  C   UNL     1      44.599 -13.188   6.390  1.00  0.00     0.017 A 
HETATM    3  C   UNL     1      44.621 -11.978   7.096  1.00  0.00     0.030 A 
HETATM    4  C   UNL     1      43.500 -11.149   7.128  1.00  0.00     0.035 A 
HETATM    5  C   UNL     1      42.378 -11.515   6.377  1.00  0.00     0.030 A 
HETATM    6  C   UNL     1      42.353 -12.727   5.674  1.00  0.00     0.017 A 
ENDROOT
BRANCH   4   7
HETATM    7  N   UNL     1      43.411  -9.981   7.918  1.00  0.00    -0.323 N 
HETATM    8  C   UNL     1      43.573  -9.911   9.290  1.00  0.00     0.256 C 
HETATM    9  O   UNL     1      43.934 -10.808  10.044  1.00  0.00    -0.267 OA
HETATM   10  H   UNL     1      43.036  -9.162   7.454  1.00  0.00     0.169 HD
BRANCH   8  11
HETATM   11  C   UNL     1      43.165  -8.623   9.905  1.00  0.00     0.034 A 
HETATM   12  C   UNL     1      42.607  -8.558  11.192  1.00  0.00     0.047 A 
HETATM   13  C   UNL     1      42.220  -7.326  11.753  1.00  0.00     0.046 A 
HETATM   14  C   UNL     1      42.428  -6.173  10.973  1.00  0.00     0.030 A 
HETATM   15  C   UNL     1      42.976  -6.238   9.687  1.00  0.00     0.003 A 
HETATM   16  C   UNL     1      43.336  -7.464   9.149  1.00  0.00     0.017 A 
BRANCH  13  17
HETATM   17  N   UNL     1      41.626  -7.245  13.054  1.00  0.00    -0.252 N 
HETATM   18  C   UNL     1      40.268  -7.260  13.297  1.00  0.00     0.231 C 
HETATM   19  O   UNL     1      39.346  -7.464  12.518  1.00  0.00    -0.273 OA
HETATM   20  C   UNL     1      40.028  -6.972  14.747  1.00  0.00     0.113 C 
HETATM   21  C   UNL     1      41.368  -7.218  15.386  1.00  0.00     0.113 C 
HETATM   22  C   UNL     1      42.330  -7.150  14.238  1.00  0.00     0.231 C 
HETATM   23  O   UNL     1      43.535  -7.042  14.425  1.00  0.00    -0.273 OA
ENDBRANCH  13  17
ENDBRANCH   8  11
ENDBRANCH   4   7
BRANCH   1  24
HETATM   24  C   UNL     1      43.358 -14.911   5.058  1.00  0.00     0.139 A 
HETATM   25  N   UNL     1      42.900 -15.097   3.771  1.00  0.00    -0.338 N 
HETATM   26  C   UNL     1      43.028 -16.418   3.436  1.00  0.00     0.063 A 
HETATM   27  H   UNL     1      42.577 -14.368   3.155  1.00  0.00     0.167 HD
HETATM   28  C   UNL     1      43.559 -17.005   4.577  1.00  0.00     0.086 A 
HETATM   29  C   UNL     1      42.748 -17.122   2.266  1.00  0.00     0.032 A 
HETATM   30  C   UNL     1      43.824 -18.383   4.575  1.00  0.00     0.040 A 
HETATM   31  N   UNL     1      43.758 -16.066   5.562  1.00  0.00    -0.228 NA
HETATM   32  C   UNL     1      43.545 -19.131   3.416  1.00  0.00    -0.060 A 
HETATM   33  C   UNL     1      43.848 -20.601   3.371  1.00  0.00     0.048 C 
HETATM   34  C   UNL     1      43.023 -18.495   2.280  1.00  0.00     0.009 A 
ENDBRANCH   1  24
TORSDOF 4
ENDMDL
MODEL 4
REMARK VINA RESULT:     -10.2      3.090     11.649
REMARK  4 active torsions:
REMARK  status: ('A' for Active; 'I' for Inactive)
REMARK    1  A    between atoms: C_8  and  C_9 
REMARK    2  A    between atoms: C_12  and  N_13 
REMARK       I    between atoms: N_13  and  C_14 
REMARK    3  A    between atoms: C_14  and  C_15 
REMARK    4  A    between atoms: C_17  and  N_18 
ROOT
HETATM    1  C   UNL     1      43.126 -14.622   5.559  1.00  0.00     0.010 A 
HETATM    2  C   UNL     1      42.574 -13.529   4.881  1.00  0.00     0.017 A 
HETATM    3  C   UNL     1      42.475 -12.275   5.498  1.00  0.00     0.030 A 
HETATM    4  C   UNL     1      42.920 -12.086   6.805  1.00  0.00     0.035 A 
HETATM    5  C   UNL     1      43.400 -13.192   7.514  1.00  0.00     0.030 A 
HETATM    6  C   UNL     1      43.504 -14.446   6.897  1.00  0.00     0.017 A 
ENDROOT
BRANCH   4   7
HETATM    7  N   UNL     1      42.965 -10.826   7.444  1.00  0.00    -0.323 N 
HETATM    8  C   UNL     1      43.849 -10.447   8.438  1.00  0.00     0.256 C 
HETATM    9  O   UNL     1      44.812 -11.078   8.857  1.00  0.00    -0.267 OA
HETATM   10  H   UNL     1      42.176 -10.213   7.267  1.00  0.00     0.169 HD
BRANCH   8  11
HETATM   11  C   UNL     1      43.513  -9.174   9.124  1.00  0.00     0.034 A 
HETATM   12  C   UNL     1      42.862  -9.150  10.368  1.00  0.00     0.047 A 
HETATM   13  C   UNL     1      42.546  -7.929  10.997  1.00  0.00     0.046 A 
HETATM   14  C   UNL     1      42.923  -6.749  10.331  1.00  0.00     0.030 A 
HETATM   15  C   UNL     1      43.565  -6.772   9.087  1.00  0.00     0.003 A 
HETATM   16  C   UNL     1      43.852  -7.985   8.479  1.00  0.00     0.017 A 
BRANCH  13  17
HETATM   17  N   UNL     1      41.860  -7.887  12.253  1.00  0.00    -0.252 N 
HETATM   18  C   UNL     1      40.496  -8.026  12.404  1.00  0.00     0.231 C 
HETATM   19  O   UNL     1      39.652  -8.325  11.570  1.00  0.00    -0.273 OA
HETATM   20  C   UNL     1      40.130  -7.742  13.829  1.00  0.00     0.113 C 
HETATM   21  C   UNL     1      41.440  -7.852  14.561  1.00  0.00     0.113 C 
HETATM   22  C   UNL     1      42.468  -7.711  13.480  1.00  0.00     0.231 C 
HETATM   23  O   UNL     1      43.643  -7.489  13.745  1.00  0.00    -0.273 OA
ENDBRANCH  13  17
ENDBRANCH   8  11
ENDBRANCH   4   7
BRANCH   1  24
HETATM   24  C   UNL     1      43.355 -15.912   4.899  1.00  0.00     0.139 A 
HETATM   25  N   UNL     1      43.811 -17.033   5.559  1.00  0.00    -0.338 N 
HETATM   26  C   UNL     1      43.825 -18.089   4.689  1.00  0.00     0.063 A 
HETATM   27  H   UNL     1      44.042 -17.081   6.539  1.00  0.00     0.167 HD
HETATM   28  C   UNL     1      43.380 -17.546   3.491  1.00  0.00     0.086 A 
HETATM   29  C   UNL     1      44.164 -19.432   4.847  1.00  0.00     0.032 A 
HETATM   30  C   UNL     1      43.270 -18.376   2.365  1.00  0.00     0.040 A 
HETATM   31  N   UNL     1      43.093 -16.210   3.638  1.00  0.00    -0.228 NA
HETATM   32  C   UNL     1      43.612 -19.736   2.481  1.00  0.00    -0.060 A 
HETATM   33  C   UNL     1      43.474 -20.656   1.303  1.00  0.00     0.048 C 
HETATM   34  C   UNL     1      44.043 -20.247   3.715  1.00  0.00     0.009 A 
ENDBRANCH   1  24
TORSDOF 4
ENDMDL
MODEL 5
REMARK VINA RESULT:     -10.0      3.329     11.994
REMARK  4 active torsions:
REMARK  status: ('A' for Active; 'I' for Inactive)
REMARK    1  A    between atoms: C_8  and  C_9 
REMARK    2  A    between atoms: C_12  and  N_13 
REMARK       I    between atoms: N_13  and  C_14 
REMARK    3  A    between atoms: C_14  and  C_15 
REMARK    4  A    between atoms: C_17  and  N_18 
ROOT
HETATM    1  C   UNL     1      43.313 -12.518   5.897  1.00  0.00     0.010 A 
HETATM    2  C   UNL     1      44.456 -12.331   6.683  1.00  0.00     0.017 A 
HETATM    3  C   UNL     1      44.508 -11.314   7.646  1.00  0.00     0.030 A 
HETATM    4  C   UNL     1      43.424 -10.460   7.842  1.00  0.00     0.035 A 
HETATM    5  C   UNL     1      42.310 -10.592   7.006  1.00  0.00     0.030 A 
HETATM    6  C   UNL     1      42.255 -11.612   6.046  1.00  0.00     0.017 A 
ENDROOT
BRANCH   4   7
HETATM    7  N   UNL     1      43.360  -9.497   8.875  1.00  0.00    -0.323 N 
HETATM    8  C   UNL     1      43.459  -9.750  10.231  1.00  0.00     0.256 C 
HETATM    9  O   UNL     1      43.733 -10.815  10.772  1.00  0.00    -0.267 OA
HETATM   10  H   UNL     1      43.053  -8.572   8.597  1.00  0.00     0.169 HD
BRANCH   8  11
HETATM   11  C   UNL     1      43.093  -8.611  11.110  1.00  0.00     0.034 A 
HETATM   12  C   UNL     1      42.438  -7.472  10.615  1.00  0.00     0.047 A 
HETATM   13  C   UNL     1      42.106  -6.399  11.465  1.00  0.00     0.046 A 
HETATM   14  C   UNL     1      42.449  -6.529  12.824  1.00  0.00     0.030 A 
HETATM   15  C   UNL     1      43.110  -7.660  13.316  1.00  0.00     0.003 A 
HETATM   16  C   UNL     1      43.440  -8.698  12.458  1.00  0.00     0.017 A 
BRANCH  13  17
HETATM   17  N   UNL     1      41.460  -5.220  10.972  1.00  0.00    -0.252 N 
HETATM   18  C   UNL     1      40.105  -5.110  10.736  1.00  0.00     0.231 C 
HETATM   19  O   UNL     1      39.208  -5.898  11.004  1.00  0.00    -0.273 OA
HETATM   20  C   UNL     1      39.832  -3.804  10.055  1.00  0.00     0.113 C 
HETATM   21  C   UNL     1      41.079  -3.002  10.310  1.00  0.00     0.113 C 
HETATM   22  C   UNL     1      42.102  -4.034  10.674  1.00  0.00     0.231 C 
HETATM   23  O   UNL     1      43.296  -3.767  10.689  1.00  0.00    -0.273 OA
ENDBRANCH  13  17
ENDBRANCH   8  11
ENDBRANCH   4   7
BRANCH   1  24
HETATM   24  C   UNL     1      43.184 -13.647   4.971  1.00  0.00     0.139 A 
HETATM   25  N   UNL     1      43.130 -13.503   3.601  1.00  0.00    -0.338 N 
HETATM   26  C   UNL     1      43.107 -14.744   3.021  1.00  0.00     0.063 A 
HETATM   27  H   UNL     1      43.160 -12.628   3.103  1.00  0.00     0.167 HD
HETATM   28  C   UNL     1      43.131 -15.619   4.098  1.00  0.00     0.086 A 
HETATM   29  C   UNL     1      43.084 -15.159   1.691  1.00  0.00     0.032 A 
HETATM   30  C   UNL     1      43.120 -17.001   3.854  1.00  0.00     0.040 A 
HETATM   31  N   UNL     1      43.181 -14.930   5.287  1.00  0.00    -0.228 NA
HETATM   32  C   UNL     1      43.086 -17.461   2.524  1.00  0.00    -0.060 A 
HETATM   33  C   UNL     1      43.107 -18.933   2.229  1.00  0.00     0.048 C 
HETATM   34  C   UNL     1      43.079 -16.540   1.465  1.00  0.00     0.009 A 
ENDBRANCH   1  24
TORSDOF 4
ENDMDL
MODEL 6
REMARK VINA RESULT:      -9.7      3.949      6.931
REMARK  4 active torsions:
REMARK  status: ('A' for Active; 'I' for Inactive)
REMARK    1  A    between atoms: C_8  and  C_9 
REMARK    2  A    between atoms: C_12  and  N_13 
REMARK       I    between atoms: N_13  and  C_14 
REMARK    3  A    between atoms: C_14  and  C_15 
REMARK    4  A    between atoms: C_17  and  N_18 
ROOT
HETATM    1  C   UNL     1      42.032  -8.036  13.821  1.00  0.00     0.010 A 
HETATM    2  C   UNL     1      41.059  -8.831  13.206  1.00  0.00     0.017 A 
HETATM    3  C   UNL     1      41.291  -9.412  11.952  1.00  0.00     0.030 A 
HETATM    4  C   UNL     1      42.497  -9.209  11.284  1.00  0.00     0.035 A 
HETATM    5  C   UNL     1      43.443  -8.352  11.857  1.00  0.00     0.030 A 
HETATM    6  C   UNL     1      43.213  -7.774  13.113  1.00  0.00     0.017 A 
ENDROOT
BRANCH   4   7
HETATM    7  N   UNL     1      42.846  -9.861  10.079  1.00  0.00    -0.323 N 
HETATM    8  C   UNL     1      44.075 -10.426   9.785  1.00  0.00     0.256 C 
HETATM    9  O   UNL     1      45.029 -10.568  10.540  1.00  0.00    -0.267 OA
HETATM   10  H   UNL     1      42.189  -9.757   9.314  1.00  0.00     0.169 HD
BRANCH   8  11
HETATM   11  C   UNL     1      44.266 -10.805   8.362  1.00  0.00     0.034 A 
HETATM   12  C   UNL     1      43.182 -11.100   7.520  1.00  0.00     0.047 A 
HETATM   13  C   UNL     1      43.387 -11.465   6.175  1.00  0.00     0.046 A 
HETATM   14  C   UNL     1      44.717 -11.509   5.719  1.00  0.00     0.030 A 
HETATM   15  C   UNL     1      45.799 -11.224   6.560  1.00  0.00     0.003 A 
HETATM   16  C   UNL     1      45.574 -10.881   7.885  1.00  0.00     0.017 A 
BRANCH  13  17
HETATM   17  N   UNL     1      42.294 -11.792   5.310  1.00  0.00    -0.252 N 
HETATM   18  C   UNL     1      41.706 -10.912   4.424  1.00  0.00     0.231 C 
HETATM   19  O   UNL     1      42.053  -9.780   4.115  1.00  0.00    -0.273 OA
HETATM   20  C   UNL     1      40.488 -11.553   3.834  1.00  0.00     0.113 C 
HETATM   21  C   UNL     1      40.676 -13.016   4.132  1.00  0.00     0.113 C 
HETATM   22  C   UNL     1      41.687 -13.030   5.238  1.00  0.00     0.231 C 
HETATM   23  O   UNL     1      41.882 -14.036   5.907  1.00  0.00    -0.273 OA
ENDBRANCH  13  17
ENDBRANCH   8  11
ENDBRANCH   4   7
BRANCH   1  24
HETATM   24  C   UNL     1      41.866  -7.518  15.182  1.00  0.00     0.139 A 
HETATM   25  N   UNL     1      42.105  -6.205  15.530  1.00  0.00    -0.338 N 
HETATM   26  C   UNL     1      41.765  -6.022  16.844  1.00  0.00     0.063 A 
HETATM   27  H   UNL     1      42.423  -5.483  14.904  1.00  0.00     0.167 HD
HETATM   28  C   UNL     1      41.337  -7.275  17.260  1.00  0.00     0.086 A 
HETATM   29  C   UNL     1      41.782  -4.900  17.671  1.00  0.00     0.032 A 
HETATM   30  C   UNL     1      40.905  -7.444  18.584  1.00  0.00     0.040 A 
HETATM   31  N   UNL     1      41.403  -8.181  16.228  1.00  0.00    -0.228 NA
HETATM   32  C   UNL     1      40.917  -6.337  19.453  1.00  0.00    -0.060 A 
HETATM   33  C   UNL     1      40.430  -6.477  20.867  1.00  0.00     0.048 C 
HETATM   34  C   UNL     1      41.343  -5.084  18.987  1.00  0.00     0.009 A 
ENDBRANCH   1  24
TORSDOF 4
ENDMDL
MODEL 7
REMARK VINA RESULT:      -9.5      3.416     11.493
REMARK  4 active torsions:
REMARK  status: ('A' for Active; 'I' for Inactive)
REMARK    1  A    between atoms: C_8  and  C_9 
REMARK    2  A    between atoms: C_12  and  N_13 
REMARK       I    between atoms: N_13  and  C_14 
REMARK    3  A    between atoms: C_14  and  C_15 
REMARK    4  A    between atoms: C_17  and  N_18 
ROOT
HETATM    1  C   UNL     1      42.074 -14.168   5.039  1.00  0.00     0.010 A 
HETATM    2  C   UNL     1      42.906 -13.054   5.198  1.00  0.00     0.017 A 
HETATM    3  C   UNL     1      42.436 -11.888   5.817  1.00  0.00     0.030 A 
HETATM    4  C   UNL     1      41.126 -11.807   6.287  1.00  0.00     0.035 A 
HETATM    5  C   UNL     1      40.268 -12.888   6.061  1.00  0.00     0.030 A 
HETATM    6  C   UNL     1      40.738 -14.057   5.446  1.00  0.00     0.017 A 
ENDROOT
BRANCH   4   7
HETATM    7  N   UNL     1      40.625 -10.713   7.029  1.00  0.00    -0.323 N 
HETATM    8  C   UNL     1      39.980  -9.604   6.510  1.00  0.00     0.256 C 
HETATM    9  O   UNL     1      39.626  -9.424   5.351  1.00  0.00    -0.267 OA
HETATM   10  H   UNL     1      40.913 -10.670   8.000  1.00  0.00     0.169 HD
BRANCH   8  11
HETATM   11  C   UNL     1      39.797  -8.482   7.464  1.00  0.00     0.034 A 
HETATM   12  C   UNL     1      40.435  -8.458   8.715  1.00  0.00     0.047 A 
HETATM   13  C   UNL     1      40.241  -7.386   9.608  1.00  0.00     0.046 A 
HETATM   14  C   UNL     1      39.394  -6.346   9.185  1.00  0.00     0.030 A 
HETATM   15  C   UNL     1      38.751  -6.373   7.942  1.00  0.00     0.003 A 
HETATM   16  C   UNL     1      38.945  -7.446   7.085  1.00  0.00     0.017 A 
BRANCH  13  17
HETATM   17  N   UNL     1      40.864  -7.359  10.897  1.00  0.00    -0.252 N 
HETATM   18  C   UNL     1      40.352  -7.963  12.026  1.00  0.00     0.231 C 
HETATM   19  O   UNL     1      39.389  -8.710  12.134  1.00  0.00    -0.273 OA
HETATM   20  C   UNL     1      41.179  -7.564  13.211  1.00  0.00     0.113 C 
HETATM   21  C   UNL     1      42.447  -7.036  12.598  1.00  0.00     0.113 C 
HETATM   22  C   UNL     1      42.063  -6.736  11.181  1.00  0.00     0.231 C 
HETATM   23  O   UNL     1      42.775  -6.046  10.462  1.00  0.00    -0.273 OA
ENDBRANCH  13  17
ENDBRANCH   8  11
ENDBRANCH   4   7
BRANCH   1  24
HETATM   24  C   UNL     1      42.572 -15.440   4.507  1.00  0.00     0.139 A 
HETATM   25  N   UNL     1      43.400 -16.287   5.213  1.00  0.00    -0.338 N 
HETATM   26  C   UNL     1      43.603 -17.426   4.482  1.00  0.00     0.063 A 
HETATM   27  H   UNL     1      43.752 -16.120   6.142  1.00  0.00     0.167 HD
HETATM   28  C   UNL     1      42.882 -17.212   3.315  1.00  0.00     0.086 A 
HETATM   29  C   UNL     1      44.320 -18.593   4.741  1.00  0.00     0.032 A 
HETATM   30  C   UNL     1      42.872 -18.207   2.326  1.00  0.00     0.040 A 
HETATM   31  N   UNL     1      42.253 -15.989   3.348  1.00  0.00    -0.228 NA
HETATM   32  C   UNL     1      43.593 -19.396   2.545  1.00  0.00    -0.060 A 
HETATM   33  C   UNL     1      43.575 -20.493   1.520  1.00  0.00     0.048 C 
HETATM   34  C   UNL     1      44.295 -19.578   3.746  1.00  0.00     0.009 A 
ENDBRANCH   1  24
TORSDOF 4
ENDMDL
MODEL 8
REMARK VINA RESULT:      -9.4      4.852      7.482
REMARK  4 active torsions:
REMARK  status: ('A' for Active; 'I' for Inactive)
REMARK    1  A    between atoms: C_8  and  C_9 
REMARK    2  A    between atoms: C_12  and  N_13 
REMARK       I    between atoms: N_13  and  C_14 
REMARK    3  A    between atoms: C_14  and  C_15 
REMARK    4  A    between atoms: C_17  and  N_18 
ROOT
HETATM    1  C   UNL     1      42.354  -8.199  14.105  1.00  0.00     0.010 A 
HETATM    2  C   UNL     1      43.344  -7.723  13.237  1.00  0.00     0.017 A 
HETATM    3  C   UNL     1      43.550  -8.318  11.986  1.00  0.00     0.030 A 
HETATM    4  C   UNL     1      42.776  -9.402  11.575  1.00  0.00     0.035 A 
HETATM    5  C   UNL     1      41.839  -9.931  12.469  1.00  0.00     0.030 A 
HETATM    6  C   UNL     1      41.629  -9.334  13.719  1.00  0.00     0.017 A 
ENDROOT
BRANCH   4   7
HETATM    7  N   UNL     1      42.845  -9.970  10.282  1.00  0.00    -0.323 N 
HETATM    8  C   UNL     1      43.985 -10.453   9.664  1.00  0.00     0.256 C 
HETATM    9  O   UNL     1      45.099 -10.585  10.157  1.00  0.00    -0.267 OA
HETATM   10  H   UNL     1      42.018  -9.859   9.707  1.00  0.00     0.169 HD
BRANCH   8  11
HETATM   11  C   UNL     1      43.838 -10.745   8.216  1.00  0.00     0.034 A 
HETATM   12  C   UNL     1      42.639 -10.500   7.527  1.00  0.00     0.047 A 
HETATM   13  C   UNL     1      42.519 -10.792   6.155  1.00  0.00     0.046 A 
HETATM   14  C   UNL     1      43.652 -11.325   5.511  1.00  0.00     0.030 A 
HETATM   15  C   UNL     1      44.844 -11.577   6.200  1.00  0.00     0.003 A 
HETATM   16  C   UNL     1      44.935 -11.295   7.555  1.00  0.00     0.017 A 
BRANCH  13  17
HETATM   17  N   UNL     1      41.296 -10.572   5.443  1.00  0.00    -0.252 N 
HETATM   18  C   UNL     1      40.291 -11.507   5.306  1.00  0.00     0.231 C 
HETATM   19  O   UNL     1      40.179 -12.604   5.837  1.00  0.00    -0.273 OA
HETATM   20  C   UNL     1      39.264 -10.984   4.350  1.00  0.00     0.113 C 
HETATM   21  C   UNL     1      39.552  -9.508   4.290  1.00  0.00     0.113 C 
HETATM   22  C   UNL     1      40.954  -9.395   4.807  1.00  0.00     0.231 C 
HETATM   23  O   UNL     1      41.607  -8.371   4.652  1.00  0.00    -0.273 OA
ENDBRANCH  13  17
ENDBRANCH   8  11
ENDBRANCH   4   7
BRANCH   1  24
HETATM   24  C   UNL     1      42.035  -7.522  15.366  1.00  0.00     0.139 A 
HETATM   25  N   UNL     1      42.157  -6.161  15.550  1.00  0.00    -0.338 N 
HETATM   26  C   UNL     1      41.691  -5.834  16.794  1.00  0.00     0.063 A 
HETATM   27  H   UNL     1      42.483  -5.504  14.858  1.00  0.00     0.167 HD
HETATM   28  C   UNL     1      41.309  -7.050  17.342  1.00  0.00     0.086 A 
HETATM   29  C   UNL     1      41.562  -4.615  17.459  1.00  0.00     0.032 A 
HETATM   30  C   UNL     1      40.772  -7.077  18.638  1.00  0.00     0.040 A 
HETATM   31  N   UNL     1      41.524  -8.076  16.452  1.00  0.00    -0.228 NA
HETATM   32  C   UNL     1      40.635  -5.869  19.347  1.00  0.00    -0.060 A 
HETATM   33  C   UNL     1      40.035  -5.860  20.723  1.00  0.00     0.048 C 
HETATM   34  C   UNL     1      41.020  -4.659  18.749  1.00  0.00     0.009 A 
ENDBRANCH   1  24
TORSDOF 4
ENDMDL
MODEL 9
REMARK VINA RESULT:      -9.3      3.649     11.594
REMARK  4 active torsions:
REMARK  status: ('A' for Active; 'I' for Inactive)
REMARK    1  A    between atoms: C_8  and  C_9 
REMARK    2  A    between atoms: C_12  and  N_13 
REMARK       I    between atoms: N_13  and  C_14 
REMARK    3  A    between atoms: C_14  and  C_15 
REMARK    4  A    between atoms: C_17  and  N_18 
ROOT
HETATM    1  C   UNL     1      43.145 -14.233   5.608  1.00  0.00     0.010 A 
HETATM    2  C   UNL     1      41.997 -13.486   5.320  1.00  0.00     0.017 A 
HETATM    3  C   UNL     1      41.855 -12.173   5.790  1.00  0.00     0.030 A 
HETATM    4  C   UNL     1      42.855 -11.580   6.560  1.00  0.00     0.035 A 
HETATM    5  C   UNL     1      43.968 -12.348   6.917  1.00  0.00     0.030 A 
HETATM    6  C   UNL     1      44.112 -13.659   6.444  1.00  0.00     0.017 A 
ENDROOT
BRANCH   4   7
HETATM    7  N   UNL     1      42.834 -10.224   6.962  1.00  0.00    -0.323 N 
HETATM    8  C   UNL     1      43.248  -9.731   8.187  1.00  0.00     0.256 C 
HETATM    9  O   UNL     1      43.807 -10.347   9.087  1.00  0.00    -0.267 OA
HETATM   10  H   UNL     1      42.321  -9.593   6.357  1.00  0.00     0.169 HD
BRANCH   8  11
HETATM   11  C   UNL     1      42.873  -8.320   8.453  1.00  0.00     0.034 A 
HETATM   12  C   UNL     1      42.068  -7.585   7.568  1.00  0.00     0.047 A 
HETATM   13  C   UNL     1      41.731  -6.244   7.837  1.00  0.00     0.046 A 
HETATM   14  C   UNL     1      42.226  -5.686   9.030  1.00  0.00     0.030 A 
HETATM   15  C   UNL     1      43.035  -6.415   9.909  1.00  0.00     0.003 A 
HETATM   16  C   UNL     1      43.367  -7.730   9.616  1.00  0.00     0.017 A 
BRANCH  13  17
HETATM   17  N   UNL     1      40.932  -5.474   6.932  1.00  0.00    -0.252 N 
HETATM   18  C   UNL     1      39.590  -5.204   7.108  1.00  0.00     0.231 C 
HETATM   19  O   UNL     1      38.875  -5.438   8.074  1.00  0.00    -0.273 OA
HETATM   20  C   UNL     1      39.060  -4.536   5.877  1.00  0.00     0.113 C 
HETATM   21  C   UNL     1      40.300  -4.065   5.166  1.00  0.00     0.113 C 
HETATM   22  C   UNL     1      41.395  -4.890   5.770  1.00  0.00     0.231 C 
HETATM   23  O   UNL     1      42.500  -4.961   5.246  1.00  0.00    -0.273 OA
ENDBRANCH  13  17
ENDBRANCH   8  11
ENDBRANCH   4   7
BRANCH   1  24
HETATM   24  C   UNL     1      43.374 -15.560   5.030  1.00  0.00     0.139 A 
HETATM   25  N   UNL     1      43.738 -16.662   5.774  1.00  0.00    -0.338 N 
HETATM   26  C   UNL     1      43.777 -17.760   4.958  1.00  0.00     0.063 A 
HETATM   27  H   UNL     1      43.893 -16.669   6.770  1.00  0.00     0.167 HD
HETATM   28  C   UNL     1      43.443 -17.263   3.707  1.00  0.00     0.086 A 
HETATM   29  C   UNL     1      44.054 -19.104   5.205  1.00  0.00     0.032 A 
HETATM   30  C   UNL     1      43.386 -18.144   2.616  1.00  0.00     0.040 A 
HETATM   31  N   UNL     1      43.196 -15.912   3.768  1.00  0.00    -0.228 NA
HETATM   32  C   UNL     1      43.668 -19.507   2.821  1.00  0.00    -0.060 A 
HETATM   33  C   UNL     1      43.584 -20.480   1.681  1.00  0.00     0.048 C 
HETATM   34  C   UNL     1      43.987 -19.970   4.107  1.00  0.00     0.009 A 
ENDBRANCH   1  24
TORSDOF 4
ENDMDL
MODEL 10
REMARK VINA RESULT:      -9.3      7.554     12.014
REMARK  4 active torsions:
REMARK  status: ('A' for Active; 'I' for Inactive)
REMARK    1  A    between atoms: C_8  and  C_9 
REMARK    2  A    between atoms: C_12  and  N_13 
REMARK       I    between atoms: N_13  and  C_14 
REMARK    3  A    between atoms: C_14  and  C_15 
REMARK    4  A    between atoms: C_17  and  N_18 
ROOT
HETATM    1  C   UNL     1      41.334 -15.156   1.461  1.00  0.00     0.010 A 
HETATM    2  C   UNL     1      41.611 -13.785   1.407  1.00  0.00     0.017 A 
HETATM    3  C   UNL     1      40.869 -12.933   0.579  1.00  0.00     0.030 A 
HETATM    4  C   UNL     1      39.836 -13.430  -0.214  1.00  0.00     0.035 A 
HETATM    5  C   UNL     1      39.605 -14.810  -0.223  1.00  0.00     0.030 A 
HETATM    6  C   UNL     1      40.344 -15.663   0.608  1.00  0.00     0.017 A 
ENDROOT
BRANCH   4   7
HETATM    7  N   UNL     1      38.968 -12.613  -0.975  1.00  0.00    -0.323 N 
HETATM    8  C   UNL     1      39.010 -12.437  -2.347  1.00  0.00     0.256 C 
HETATM    9  O   UNL     1      39.713 -13.035  -3.153  1.00  0.00    -0.267 OA
HETATM   10  H   UNL     1      38.377 -11.983  -0.445  1.00  0.00     0.169 HD
BRANCH   8  11
HETATM   11  C   UNL     1      38.170 -11.327  -2.862  1.00  0.00     0.034 A 
HETATM   12  C   UNL     1      36.775 -11.315  -2.702  1.00  0.00     0.047 A 
HETATM   13  C   UNL     1      35.997 -10.255  -3.206  1.00  0.00     0.046 A 
HETATM   14  C   UNL     1      36.680  -9.213  -3.861  1.00  0.00     0.030 A 
HETATM   15  C   UNL     1      38.069  -9.229  -4.028  1.00  0.00     0.003 A 
HETATM   16  C   UNL     1      38.814 -10.291  -3.537  1.00  0.00     0.017 A 
BRANCH  13  17
HETATM   17  N   UNL     1      34.571 -10.240  -3.073  1.00  0.00    -0.252 N 
HETATM   18  C   UNL     1      33.712 -11.068  -3.766  1.00  0.00     0.231 C 
HETATM   19  O   UNL     1      33.972 -12.016  -4.494  1.00  0.00    -0.273 OA
HETATM   20  C   UNL     1      32.301 -10.636  -3.505  1.00  0.00     0.113 C 
HETATM   21  C   UNL     1      32.414  -9.774  -2.277  1.00  0.00     0.113 C 
HETATM   22  C   UNL     1      33.865  -9.404  -2.231  1.00  0.00     0.231 C 
HETATM   23  O   UNL     1      34.266  -8.496  -1.514  1.00  0.00    -0.273 OA
ENDBRANCH  13  17
ENDBRANCH   8  11
ENDBRANCH   4   7
BRANCH   1  24
HETATM   24  C   UNL     1      42.011 -16.049   2.406  1.00  0.00     0.139 A 
HETATM   25  N   UNL     1      42.051 -15.828   3.766  1.00  0.00    -0.338 N 
HETATM   26  C   UNL     1      42.670 -16.887   4.374  1.00  0.00     0.063 A 
HETATM   27  H   UNL     1      41.639 -15.041   4.243  1.00  0.00     0.167 HD
HETATM   28  C   UNL     1      43.009 -17.727   3.324  1.00  0.00     0.086 A 
HETATM   29  C   UNL     1      42.939 -17.176   5.711  1.00  0.00     0.032 A 
HETATM   30  C   UNL     1      43.670 -18.934   3.601  1.00  0.00     0.040 A 
HETATM   31  N   UNL     1      42.596 -17.200   2.123  1.00  0.00    -0.228 NA
HETATM   32  C   UNL     1      43.969 -19.258   4.937  1.00  0.00    -0.060 A 
HETATM   33  C   UNL     1      44.646 -20.556   5.270  1.00  0.00     0.048 C 
HETATM   34  C   UNL     1      43.594 -18.386   5.970  1.00  0.00     0.009 A 
ENDBRANCH   1  24
TORSDOF 4
ENDMDL
