MODEL 1
REMARK VINA RESULT:      -9.1      0.000      0.000
REMARK  7 active torsions:
REMARK  status: ('A' for Active; 'I' for Inactive)
REMARK    1  A    between atoms: N_2  and  C_4 
REMARK    2  A    between atoms: C_4  and  C_5 
REMARK    3  A    between atoms: C_5  and  C_6 
REMARK    4  A    between atoms: C_6  and  N_7 
REMARK    5  A    between atoms: N_7  and  C_8 
REMARK    6  A    between atoms: C_23  and  N_24 
REMARK    7  A    between atoms: N_27  and  C_29 
ROOT
HETATM    1  C   UNL     1      42.570 -14.494   2.542  1.00  0.00     0.025 A 
HETATM    2  C   UNL     1      42.922 -15.749   3.079  1.00  0.00     0.052 A 
HETATM    3  C   UNL     1      43.106 -15.677   4.436  1.00  0.00     0.050 A 
HETATM    4  C   UNL     1      43.451 -16.778   5.139  1.00  0.00     0.126 A 
HETATM    5  C   UNL     1      43.643 -18.109   4.623  1.00  0.00     0.015 A 
HETATM    6  C   UNL     1      43.477 -18.251   3.219  1.00  0.00     0.028 A 
HETATM    7  C   UNL     1      43.138 -17.040   2.381  1.00  0.00     0.196 A 
HETATM    8  O   UNL     1      43.059 -17.079   1.157  1.00  0.00    -0.287 OA
HETATM    9  C   UNL     1      43.955 -19.219   5.405  1.00  0.00     0.015 A 
HETATM   10  C   UNL     1      44.098 -20.468   4.792  1.00  0.00     0.001 A 
HETATM   11  C   UNL     1      43.935 -20.607   3.409  1.00  0.00     0.001 A 
HETATM   12  C   UNL     1      43.625 -19.499   2.616  1.00  0.00     0.016 A 
HETATM   13  C   UNL     1      42.983 -14.591   5.333  1.00  0.00     0.125 A 
HETATM   14  N   UNL     1      43.313 -15.050   6.566  1.00  0.00    -0.125 NA
HETATM   15  O   UNL     1      43.586 -16.424   6.439  1.00  0.00    -0.211 OA
HETATM   16  C   UNL     1      42.591 -13.305   4.853  1.00  0.00     0.064 A 
HETATM   17  C   UNL     1      42.383 -13.348   3.419  1.00  0.00     0.056 A 
ENDROOT
BRANCH  16  18
HETATM   18  N   UNL     1      42.336 -12.150   5.600  1.00  0.00    -0.376 N 
HETATM   19  C   UNL     1      41.005 -11.960   6.195  1.00  0.00     0.150 C 
HETATM   20  C   UNL     1      40.080 -11.161   5.249  1.00  0.00     0.255 C 
HETATM   21  N   UNL     1      40.705  -9.813   4.841  1.00  0.00    -0.064 N 
HETATM   22  H   UNL     1      40.862  -9.277   5.703  1.00  0.00     0.280 HD
HETATM   23  C   UNL     1      42.110 -10.070   4.233  1.00  0.00     0.255 C 
HETATM   24  C   UNL     1      42.987 -10.882   5.213  1.00  0.00     0.150 C 
BRANCH  21  25
HETATM   25  C   UNL     1      39.788  -8.989   3.919  1.00  0.00     0.188 C 
HETATM   26  C   UNL     1      38.426  -8.717   4.589  1.00  0.00     0.033 C 
HETATM   27  C   UNL     1      38.541  -7.824   5.824  1.00  0.00     0.002 C 
HETATM   28  C   UNL     1      39.237  -6.505   5.496  1.00  0.00     0.000 C 
HETATM   29  C   UNL     1      40.567  -6.709   4.773  1.00  0.00     0.002 C 
HETATM   30  C   UNL     1      40.415  -7.630   3.561  1.00  0.00     0.033 C 
ENDBRANCH  21  25
ENDBRANCH  16  18
BRANCH   1  31
HETATM   31  N   UNL     1      42.299 -14.401   1.148  1.00  0.00    -0.292 NA
HETATM   32  H   UNL     1      43.174 -14.077   0.697  1.00  0.00     0.127 HD
BRANCH  31  33
HETATM   33  C   UNL     1      41.136 -13.613   0.756  1.00  0.00     0.094 C 
BRANCH  33  34
HETATM   34  C   UNL     1      40.072 -14.520   0.132  1.00  0.00     0.042 C 
BRANCH  34  35
HETATM   35  C   UNL     1      39.833 -14.203  -1.343  1.00  0.00     0.235 C 
BRANCH  35  36
HETATM   36  N   UNL     1      38.374 -13.847  -1.585  1.00  0.00    -0.079 N 
HETATM   37  C   UNL     1      37.920 -14.061  -3.004  1.00  0.00     0.269 C 
HETATM   38  H   UNL     1      37.802 -14.455  -0.984  1.00  0.00     0.278 HD
HETATM   39  C   UNL     1      38.075 -12.437  -1.138  1.00  0.00     0.269 C 
ENDBRANCH  35  36
ENDBRANCH  34  35
ENDBRANCH  33  34
ENDBRANCH  31  33
ENDBRANCH   1  31
TORSDOF 7
ENDMDL
MODEL 2
REMARK VINA RESULT:      -9.1      2.135      6.034
REMARK  7 active torsions:
REMARK  status: ('A' for Active; 'I' for Inactive)
REMARK    1  A    between atoms: N_2  and  C_4 
REMARK    2  A    between atoms: C_4  and  C_5 
REMARK    3  A    between atoms: C_5  and  C_6 
REMARK    4  A    between atoms: C_6  and  N_7 
REMARK    5  A    between atoms: N_7  and  C_8 
REMARK    6  A    between atoms: C_23  and  N_24 
REMARK    7  A    between atoms: N_27  and  C_29 
ROOT
HETATM    1  C   UNL     1      42.502 -13.629   5.205  1.00  0.00     0.025 A 
HETATM    2  C   UNL     1      42.737 -14.915   4.678  1.00  0.00     0.052 A 
HETATM    3  C   UNL     1      42.243 -15.030   3.404  1.00  0.00     0.050 A 
HETATM    4  C   UNL     1      42.367 -16.192   2.724  1.00  0.00     0.126 A 
HETATM    5  C   UNL     1      43.010 -17.397   3.182  1.00  0.00     0.015 A 
HETATM    6  C   UNL     1      43.535 -17.348   4.501  1.00  0.00     0.028 A 
HETATM    7  C   UNL     1      43.380 -16.088   5.321  1.00  0.00     0.196 A 
HETATM    8  O   UNL     1      43.740 -16.007   6.490  1.00  0.00    -0.287 OA
HETATM    9  C   UNL     1      43.148 -18.553   2.418  1.00  0.00     0.015 A 
HETATM   10  C   UNL     1      43.811 -19.658   2.963  1.00  0.00     0.001 A 
HETATM   11  C   UNL     1      44.328 -19.609   4.263  1.00  0.00     0.001 A 
HETATM   12  C   UNL     1      44.191 -18.455   5.038  1.00  0.00     0.016 A 
HETATM   13  C   UNL     1      41.584 -14.093   2.575  1.00  0.00     0.125 A 
HETATM   14  N   UNL     1      41.271 -14.730   1.419  1.00  0.00    -0.125 NA
HETATM   15  O   UNL     1      41.782 -16.038   1.514  1.00  0.00    -0.211 OA
HETATM   16  C   UNL     1      41.353 -12.762   3.040  1.00  0.00     0.064 A 
HETATM   17  C   UNL     1      41.870 -12.606   4.385  1.00  0.00     0.056 A 
ENDROOT
BRANCH  16  18
HETATM   18  N   UNL     1      40.801 -11.689   2.332  1.00  0.00    -0.376 N 
HETATM   19  C   UNL     1      39.354 -11.672   2.072  1.00  0.00     0.150 C 
HETATM   20  C   UNL     1      39.025 -12.319   0.708  1.00  0.00     0.255 C 
HETATM   21  N   UNL     1      39.806 -11.659  -0.443  1.00  0.00    -0.064 N 
HETATM   22  H   UNL     1      39.542 -10.667  -0.461  1.00  0.00     0.280 HD
HETATM   23  C   UNL     1      41.322 -11.694  -0.112  1.00  0.00     0.255 C 
HETATM   24  C   UNL     1      41.593 -11.045   1.265  1.00  0.00     0.150 C 
BRANCH  21  25
HETATM   25  C   UNL     1      39.472 -12.272  -1.816  1.00  0.00     0.188 C 
HETATM   26  C   UNL     1      37.977 -12.100  -2.152  1.00  0.00     0.033 C 
HETATM   27  C   UNL     1      37.577 -10.636  -2.339  1.00  0.00     0.002 C 
HETATM   28  C   UNL     1      38.436  -9.954  -3.401  1.00  0.00     0.000 C 
HETATM   29  C   UNL     1      39.932 -10.144  -3.155  1.00  0.00     0.002 C 
HETATM   30  C   UNL     1      40.287 -11.617  -2.944  1.00  0.00     0.033 C 
ENDBRANCH  21  25
ENDBRANCH  16  18
BRANCH   1  31
HETATM   31  N   UNL     1      42.990 -13.325   6.506  1.00  0.00    -0.292 NA
HETATM   32  H   UNL     1      42.268 -12.742   6.965  1.00  0.00     0.127 HD
BRANCH  31  33
HETATM   33  C   UNL     1      44.324 -12.742   6.588  1.00  0.00     0.094 C 
BRANCH  33  34
HETATM   34  C   UNL     1      44.313 -11.532   7.526  1.00  0.00     0.042 C 
BRANCH  34  35
HETATM   35  C   UNL     1      43.438 -10.397   6.998  1.00  0.00     0.235 C 
BRANCH  35  36
HETATM   36  N   UNL     1      42.122 -10.336   7.758  1.00  0.00    -0.079 N 
HETATM   37  C   UNL     1      40.923 -10.081   6.884  1.00  0.00     0.269 C 
HETATM   38  H   UNL     1      41.983 -11.249   8.212  1.00  0.00     0.278 HD
HETATM   39  C   UNL     1      42.186  -9.330   8.881  1.00  0.00     0.269 C 
ENDBRANCH  35  36
ENDBRANCH  34  35
ENDBRANCH  33  34
ENDBRANCH  31  33
ENDBRANCH   1  31
TORSDOF 7
ENDMDL
MODEL 3
REMARK VINA RESULT:      -8.8      2.266      3.301
REMARK  7 active torsions:
REMARK  status: ('A' for Active; 'I' for Inactive)
REMARK    1  A    between atoms: N_2  and  C_4 
REMARK    2  A    between atoms: C_4  and  C_5 
REMARK    3  A    between atoms: C_5  and  C_6 
REMARK    4  A    between atoms: C_6  and  N_7 
REMARK    5  A    between atoms: N_7  and  C_8 
REMARK    6  A    between atoms: C_23  and  N_24 
REMARK    7  A    between atoms: N_27  and  C_29 
ROOT
HETATM    1  C   UNL     1      42.485 -14.936   2.162  1.00  0.00     0.025 A 
HETATM    2  C   UNL     1      42.880 -16.082   2.881  1.00  0.00     0.052 A 
HETATM    3  C   UNL     1      43.210 -15.770   4.176  1.00  0.00     0.050 A 
HETATM    4  C   UNL     1      43.618 -16.735   5.030  1.00  0.00     0.126 A 
HETATM    5  C   UNL     1      43.741 -18.142   4.750  1.00  0.00     0.015 A 
HETATM    6  C   UNL     1      43.424 -18.532   3.420  1.00  0.00     0.028 A 
HETATM    7  C   UNL     1      43.009 -17.484   2.414  1.00  0.00     0.196 A 
HETATM    8  O   UNL     1      42.799 -17.743   1.233  1.00  0.00    -0.287 OA
HETATM    9  C   UNL     1      44.124 -19.100   5.686  1.00  0.00     0.015 A 
HETATM   10  C   UNL     1      44.189 -20.443   5.301  1.00  0.00     0.001 A 
HETATM   11  C   UNL     1      43.877 -20.827   3.992  1.00  0.00     0.001 A 
HETATM   12  C   UNL     1      43.494 -19.873   3.046  1.00  0.00     0.016 A 
HETATM   13  C   UNL     1      43.194 -14.536   4.866  1.00  0.00     0.125 A 
HETATM   14  N   UNL     1      43.650 -14.773   6.121  1.00  0.00    -0.125 NA
HETATM   15  O   UNL     1      43.894 -16.155   6.221  1.00  0.00    -0.211 OA
HETATM   16  C   UNL     1      42.765 -13.348   4.201  1.00  0.00     0.064 A 
HETATM   17  C   UNL     1      42.404 -13.645   2.828  1.00  0.00     0.056 A 
ENDROOT
BRANCH  16  18
HETATM   18  N   UNL     1      42.603 -12.069   4.745  1.00  0.00    -0.376 N 
HETATM   19  C   UNL     1      43.711 -11.107   4.656  1.00  0.00     0.150 C 
HETATM   20  C   UNL     1      44.610 -11.175   5.912  1.00  0.00     0.255 C 
HETATM   21  N   UNL     1      43.801 -10.974   7.207  1.00  0.00    -0.064 N 
HETATM   22  H   UNL     1      43.359 -10.049   7.150  1.00  0.00     0.280 HD
HETATM   23  C   UNL     1      42.640 -12.004   7.243  1.00  0.00     0.255 C 
HETATM   24  C   UNL     1      41.782 -11.902   5.961  1.00  0.00     0.150 C 
BRANCH  21  25
HETATM   25  C   UNL     1      44.683 -11.012   8.469  1.00  0.00     0.188 C 
HETATM   26  C   UNL     1      45.774  -9.924   8.417  1.00  0.00     0.033 C 
HETATM   27  C   UNL     1      45.200  -8.507   8.457  1.00  0.00     0.002 C 
HETATM   28  C   UNL     1      44.310  -8.299   9.680  1.00  0.00     0.000 C 
HETATM   29  C   UNL     1      43.245  -9.386   9.820  1.00  0.00     0.002 C 
HETATM   30  C   UNL     1      43.855 -10.787   9.747  1.00  0.00     0.033 C 
ENDBRANCH  21  25
ENDBRANCH  16  18
BRANCH   1  31
HETATM   31  N   UNL     1      42.068 -15.090   0.811  1.00  0.00    -0.292 NA
HETATM   32  H   UNL     1      42.615 -14.411   0.252  1.00  0.00     0.127 HD
BRANCH  31  33
HETATM   33  C   UNL     1      40.635 -15.009   0.553  1.00  0.00     0.094 C 
BRANCH  33  34
HETATM   34  C   UNL     1      40.297 -13.682  -0.134  1.00  0.00     0.042 C 
BRANCH  34  35
HETATM   35  C   UNL     1      40.019 -13.857  -1.625  1.00  0.00     0.235 C 
BRANCH  35  36
HETATM   36  N   UNL     1      38.554 -14.190  -1.863  1.00  0.00    -0.079 N 
HETATM   37  C   UNL     1      38.305 -15.003  -3.105  1.00  0.00     0.269 C 
HETATM   38  H   UNL     1      38.228 -14.747  -1.061  1.00  0.00     0.278 HD
HETATM   39  C   UNL     1      37.704 -12.943  -1.863  1.00  0.00     0.269 C 
ENDBRANCH  35  36
ENDBRANCH  34  35
ENDBRANCH  33  34
ENDBRANCH  31  33
ENDBRANCH   1  31
TORSDOF 7
ENDMDL
MODEL 4
REMARK VINA RESULT:      -8.5      3.642      4.670
REMARK  7 active torsions:
REMARK  status: ('A' for Active; 'I' for Inactive)
REMARK    1  A    between atoms: N_2  and  C_4 
REMARK    2  A    between atoms: C_4  and  C_5 
REMARK    3  A    between atoms: C_5  and  C_6 
REMARK    4  A    between atoms: C_6  and  N_7 
REMARK    5  A    between atoms: N_7  and  C_8 
REMARK    6  A    between atoms: C_23  and  N_24 
REMARK    7  A    between atoms: N_27  and  C_29 
ROOT
HETATM    1  C   UNL     1      42.000 -11.551   4.060  1.00  0.00     0.025 A 
HETATM    2  C   UNL     1      42.474 -12.826   4.427  1.00  0.00     0.052 A 
HETATM    3  C   UNL     1      43.064 -12.802   5.666  1.00  0.00     0.050 A 
HETATM    4  C   UNL     1      43.585 -13.930   6.198  1.00  0.00     0.126 A 
HETATM    5  C   UNL     1      43.587 -15.244   5.608  1.00  0.00     0.015 A 
HETATM    6  C   UNL     1      43.000 -15.337   4.317  1.00  0.00     0.028 A 
HETATM    7  C   UNL     1      42.445 -14.095   3.658  1.00  0.00     0.196 A 
HETATM    8  O   UNL     1      41.998 -14.092   2.516  1.00  0.00    -0.287 OA
HETATM    9  C   UNL     1      44.101 -16.382   6.224  1.00  0.00     0.015 A 
HETATM   10  C   UNL     1      44.028 -17.611   5.560  1.00  0.00     0.001 A 
HETATM   11  C   UNL     1      43.450 -17.702   4.288  1.00  0.00     0.001 A 
HETATM   12  C   UNL     1      42.934 -16.565   3.661  1.00  0.00     0.016 A 
HETATM   13  C   UNL     1      43.239 -11.746   6.590  1.00  0.00     0.125 A 
HETATM   14  N   UNL     1      43.919 -12.251   7.650  1.00  0.00    -0.125 NA
HETATM   15  O   UNL     1      44.115 -13.622   7.405  1.00  0.00    -0.211 OA
HETATM   16  C   UNL     1      42.743 -10.441   6.291  1.00  0.00     0.064 A 
HETATM   17  C   UNL     1      42.109 -10.434   4.987  1.00  0.00     0.056 A 
ENDROOT
BRANCH  16  18
HETATM   18  N   UNL     1      42.749  -9.311   7.114  1.00  0.00    -0.376 N 
HETATM   19  C   UNL     1      43.834  -9.142   8.092  1.00  0.00     0.150 C 
HETATM   20  C   UNL     1      43.446  -9.739   9.464  1.00  0.00     0.255 C 
HETATM   21  N   UNL     1      42.124  -9.151   9.992  1.00  0.00    -0.064 N 
HETATM   22  H   UNL     1      42.257  -8.137  10.083  1.00  0.00     0.280 HD
HETATM   23  C   UNL     1      41.020  -9.344   8.918  1.00  0.00     0.255 C 
HETATM   24  C   UNL     1      41.464  -8.741   7.566  1.00  0.00     0.150 C 
BRANCH  21  25
HETATM   25  C   UNL     1      41.733  -9.714  11.371  1.00  0.00     0.188 C 
HETATM   26  C   UNL     1      42.913  -9.631  12.360  1.00  0.00     0.033 C 
HETATM   27  C   UNL     1      43.308  -8.192  12.691  1.00  0.00     0.002 C 
HETATM   28  C   UNL     1      42.120  -7.395  13.224  1.00  0.00     0.000 C 
HETATM   29  C   UNL     1      40.896  -7.491  12.314  1.00  0.00     0.002 C 
HETATM   30  C   UNL     1      40.551  -8.943  11.984  1.00  0.00     0.033 C 
ENDBRANCH  21  25
ENDBRANCH  16  18
BRANCH   1  31
HETATM   31  N   UNL     1      41.321 -11.408   2.819  1.00  0.00    -0.292 NA
HETATM   32  H   UNL     1      41.876 -10.743   2.252  1.00  0.00     0.127 HD
BRANCH  31  33
HETATM   33  C   UNL     1      39.907 -11.055   2.880  1.00  0.00     0.094 C 
BRANCH  33  34
HETATM   34  C   UNL     1      39.054 -12.197   2.323  1.00  0.00     0.042 C 
BRANCH  34  35
HETATM   35  C   UNL     1      39.027 -12.208   0.796  1.00  0.00     0.235 C 
BRANCH  35  36
HETATM   36  N   UNL     1      40.264 -12.897   0.241  1.00  0.00    -0.079 N 
HETATM   37  C   UNL     1      41.005 -12.089  -0.790  1.00  0.00     0.269 C 
HETATM   38  H   UNL     1      40.909 -13.057   1.028  1.00  0.00     0.278 HD
HETATM   39  C   UNL     1      39.931 -14.268  -0.295  1.00  0.00     0.269 C 
ENDBRANCH  35  36
ENDBRANCH  34  35
ENDBRANCH  33  34
ENDBRANCH  31  33
ENDBRANCH   1  31
TORSDOF 7
ENDMDL
MODEL 5
REMARK VINA RESULT:      -8.5      2.613      8.007
REMARK  7 active torsions:
REMARK  status: ('A' for Active; 'I' for Inactive)
REMARK    1  A    between atoms: N_2  and  C_4 
REMARK    2  A    between atoms: C_4  and  C_5 
REMARK    3  A    between atoms: C_5  and  C_6 
REMARK    4  A    between atoms: C_6  and  N_7 
REMARK    5  A    between atoms: N_7  and  C_8 
REMARK    6  A    between atoms: C_23  and  N_24 
REMARK    7  A    between atoms: N_27  and  C_29 
ROOT
HETATM    1  C   UNL     1      42.678 -13.496   5.605  1.00  0.00     0.025 A 
HETATM    2  C   UNL     1      42.715 -12.187   6.126  1.00  0.00     0.052 A 
HETATM    3  C   UNL     1      41.722 -11.408   5.589  1.00  0.00     0.050 A 
HETATM    4  C   UNL     1      41.590 -10.115   5.960  1.00  0.00     0.126 A 
HETATM    5  C   UNL     1      42.394  -9.405   6.922  1.00  0.00     0.015 A 
HETATM    6  C   UNL     1      43.450 -10.153   7.509  1.00  0.00     0.028 A 
HETATM    7  C   UNL     1      43.669 -11.589   7.092  1.00  0.00     0.196 A 
HETATM    8  O   UNL     1      44.609 -12.263   7.501  1.00  0.00    -0.287 OA
HETATM    9  C   UNL     1      42.183  -8.081   7.299  1.00  0.00     0.015 A 
HETATM   10  C   UNL     1      43.018  -7.503   8.260  1.00  0.00     0.001 A 
HETATM   11  C   UNL     1      44.059  -8.239   8.838  1.00  0.00     0.001 A 
HETATM   12  C   UNL     1      44.280  -9.567   8.464  1.00  0.00     0.016 A 
HETATM   13  C   UNL     1      40.705 -11.713   4.655  1.00  0.00     0.125 A 
HETATM   14  N   UNL     1      40.006 -10.571   4.436  1.00  0.00    -0.125 NA
HETATM   15  O   UNL     1      40.555  -9.581   5.271  1.00  0.00    -0.211 OA
HETATM   16  C   UNL     1      40.593 -13.033   4.123  1.00  0.00     0.064 A 
HETATM   17  C   UNL     1      41.629 -13.885   4.675  1.00  0.00     0.056 A 
ENDROOT
BRANCH  16  18
HETATM   18  N   UNL     1      39.607 -13.533   3.265  1.00  0.00    -0.376 N 
HETATM   19  C   UNL     1      39.915 -14.698   2.423  1.00  0.00     0.150 C 
HETATM   20  C   UNL     1      40.441 -14.262   1.037  1.00  0.00     0.255 C 
HETATM   21  N   UNL     1      39.465 -13.304   0.329  1.00  0.00    -0.064 N 
HETATM   22  H   UNL     1      38.575 -13.805   0.216  1.00  0.00     0.280 HD
HETATM   23  C   UNL     1      39.166 -12.102   1.264  1.00  0.00     0.255 C 
HETATM   24  C   UNL     1      38.655 -12.595   2.637  1.00  0.00     0.150 C 
BRANCH  21  25
HETATM   25  C   UNL     1      39.959 -12.878  -1.067  1.00  0.00     0.188 C 
HETATM   26  C   UNL     1      40.165 -14.101  -1.981  1.00  0.00     0.033 C 
HETATM   27  C   UNL     1      38.858 -14.828  -2.302  1.00  0.00     0.002 C 
HETATM   28  C   UNL     1      37.829 -13.881  -2.916  1.00  0.00     0.000 C 
HETATM   29  C   UNL     1      37.628 -12.616  -2.083  1.00  0.00     0.002 C 
HETATM   30  C   UNL     1      38.959 -11.935  -1.759  1.00  0.00     0.033 C 
ENDBRANCH  21  25
ENDBRANCH  16  18
BRANCH   1  31
HETATM   31  N   UNL     1      43.616 -14.449   6.089  1.00  0.00    -0.292 NA
HETATM   32  H   UNL     1      44.086 -14.852   5.258  1.00  0.00     0.127 HD
BRANCH  31  33
HETATM   33  C   UNL     1      43.108 -15.468   7.000  1.00  0.00     0.094 C 
BRANCH  33  34
HETATM   34  C   UNL     1      44.056 -16.670   7.029  1.00  0.00     0.042 C 
BRANCH  34  35
HETATM   35  C   UNL     1      43.457 -17.896   6.343  1.00  0.00     0.235 C 
BRANCH  35  36
HETATM   36  N   UNL     1      44.104 -18.121   4.985  1.00  0.00    -0.079 N 
HETATM   37  C   UNL     1      43.386 -17.447   3.847  1.00  0.00     0.269 C 
HETATM   38  H   UNL     1      45.054 -17.729   5.024  1.00  0.00     0.278 HD
HETATM   39  C   UNL     1      44.284 -19.593   4.703  1.00  0.00     0.269 C 
ENDBRANCH  35  36
ENDBRANCH  34  35
ENDBRANCH  33  34
ENDBRANCH  31  33
ENDBRANCH   1  31
TORSDOF 7
ENDMDL
MODEL 6
REMARK VINA RESULT:      -8.3      1.930      2.846
REMARK  7 active torsions:
REMARK  status: ('A' for Active; 'I' for Inactive)
REMARK    1  A    between atoms: N_2  and  C_4 
REMARK    2  A    between atoms: C_4  and  C_5 
REMARK    3  A    between atoms: C_5  and  C_6 
REMARK    4  A    between atoms: C_6  and  N_7 
REMARK    5  A    between atoms: N_7  and  C_8 
REMARK    6  A    between atoms: C_23  and  N_24 
REMARK    7  A    between atoms: N_27  and  C_29 
ROOT
HETATM    1  C   UNL     1      41.652 -13.331   1.725  1.00  0.00     0.025 A 
HETATM    2  C   UNL     1      42.188 -14.332   2.561  1.00  0.00     0.052 A 
HETATM    3  C   UNL     1      42.229 -13.921   3.869  1.00  0.00     0.050 A 
HETATM    4  C   UNL     1      42.713 -14.740   4.829  1.00  0.00     0.126 A 
HETATM    5  C   UNL     1      43.205 -16.082   4.653  1.00  0.00     0.015 A 
HETATM    6  C   UNL     1      43.199 -16.567   3.317  1.00  0.00     0.028 A 
HETATM    7  C   UNL     1      42.712 -15.672   2.201  1.00  0.00     0.196 A 
HETATM    8  O   UNL     1      42.755 -16.001   1.020  1.00  0.00    -0.287 OA
HETATM    9  C   UNL     1      43.651 -16.899   5.690  1.00  0.00     0.015 A 
HETATM   10  C   UNL     1      44.087 -18.195   5.400  1.00  0.00     0.001 A 
HETATM   11  C   UNL     1      44.082 -18.672   4.084  1.00  0.00     0.001 A 
HETATM   12  C   UNL     1      43.639 -17.860   3.037  1.00  0.00     0.016 A 
HETATM   13  C   UNL     1      41.818 -12.711   4.475  1.00  0.00     0.125 A 
HETATM   14  N   UNL     1      42.115 -12.804   5.795  1.00  0.00    -0.125 NA
HETATM   15  O   UNL     1      42.658 -14.083   6.011  1.00  0.00    -0.211 OA
HETATM   16  C   UNL     1      41.231 -11.676   3.686  1.00  0.00     0.064 A 
HETATM   17  C   UNL     1      41.168 -12.083   2.295  1.00  0.00     0.056 A 
ENDROOT
BRANCH  16  18
HETATM   18  N   UNL     1      40.691 -10.463   4.124  1.00  0.00    -0.376 N 
HETATM   19  C   UNL     1      41.600  -9.363   4.481  1.00  0.00     0.150 C 
HETATM   20  C   UNL     1      41.937  -9.385   5.989  1.00  0.00     0.255 C 
HETATM   21  N   UNL     1      40.667  -9.365   6.861  1.00  0.00    -0.064 N 
HETATM   22  H   UNL     1      40.157  -8.503   6.635  1.00  0.00     0.280 HD
HETATM   23  C   UNL     1      39.741 -10.536   6.434  1.00  0.00     0.255 C 
HETATM   24  C   UNL     1      39.447 -10.471   4.918  1.00  0.00     0.150 C 
BRANCH  21  25
HETATM   25  C   UNL     1      40.981  -9.360   8.369  1.00  0.00     0.188 C 
HETATM   26  C   UNL     1      41.921  -8.194   8.737  1.00  0.00     0.033 C 
HETATM   27  C   UNL     1      41.272  -6.825   8.530  1.00  0.00     0.002 C 
HETATM   28  C   UNL     1      39.960  -6.706   9.302  1.00  0.00     0.000 C 
HETATM   29  C   UNL     1      39.011  -7.870   9.026  1.00  0.00     0.002 C 
HETATM   30  C   UNL     1      39.704  -9.221   9.215  1.00  0.00     0.033 C 
ENDBRANCH  21  25
ENDBRANCH  16  18
BRANCH   1  31
HETATM   31  N   UNL     1      41.498 -13.611   0.339  1.00  0.00    -0.292 NA
HETATM   32  H   UNL     1      42.104 -12.941  -0.168  1.00  0.00     0.127 HD
BRANCH  31  33
HETATM   33  C   UNL     1      40.135 -13.642  -0.177  1.00  0.00     0.094 C 
BRANCH  33  34
HETATM   34  C   UNL     1      40.151 -13.815  -1.699  1.00  0.00     0.042 C 
BRANCH  34  35
HETATM   35  C   UNL     1      39.337 -12.738  -2.412  1.00  0.00     0.235 C 
BRANCH  35  36
HETATM   36  N   UNL     1      38.244 -13.367  -3.264  1.00  0.00    -0.079 N 
HETATM   37  C   UNL     1      36.848 -12.993  -2.842  1.00  0.00     0.269 C 
HETATM   38  H   UNL     1      38.373 -13.034  -4.229  1.00  0.00     0.278 HD
HETATM   39  C   UNL     1      38.398 -14.866  -3.327  1.00  0.00     0.269 C 
ENDBRANCH  35  36
ENDBRANCH  34  35
ENDBRANCH  33  34
ENDBRANCH  31  33
ENDBRANCH   1  31
TORSDOF 7
ENDMDL
MODEL 7
REMARK VINA RESULT:      -8.3      2.168      5.615
REMARK  7 active torsions:
REMARK  status: ('A' for Active; 'I' for Inactive)
REMARK    1  A    between atoms: N_2  and  C_4 
REMARK    2  A    between atoms: C_4  and  C_5 
REMARK    3  A    between atoms: C_5  and  C_6 
REMARK    4  A    between atoms: C_6  and  N_7 
REMARK    5  A    between atoms: N_7  and  C_8 
REMARK    6  A    between atoms: C_23  and  N_24 
REMARK    7  A    between atoms: N_27  and  C_29 
ROOT
HETATM    1  C   UNL     1      42.743 -13.562   5.047  1.00  0.00     0.025 A 
HETATM    2  C   UNL     1      42.875 -14.854   4.500  1.00  0.00     0.052 A 
HETATM    3  C   UNL     1      42.234 -14.952   3.291  1.00  0.00     0.050 A 
HETATM    4  C   UNL     1      42.242 -16.117   2.605  1.00  0.00     0.126 A 
HETATM    5  C   UNL     1      42.895 -17.342   2.988  1.00  0.00     0.015 A 
HETATM    6  C   UNL     1      43.571 -17.311   4.238  1.00  0.00     0.028 A 
HETATM    7  C   UNL     1      43.551 -16.047   5.066  1.00  0.00     0.196 A 
HETATM    8  O   UNL     1      44.046 -15.979   6.186  1.00  0.00    -0.287 OA
HETATM    9  C   UNL     1      42.908 -18.501   2.216  1.00  0.00     0.015 A 
HETATM   10  C   UNL     1      43.593 -19.626   2.684  1.00  0.00     0.001 A 
HETATM   11  C   UNL     1      44.259 -19.596   3.915  1.00  0.00     0.001 A 
HETATM   12  C   UNL     1      44.249 -18.438   4.698  1.00  0.00     0.016 A 
HETATM   13  C   UNL     1      41.513 -13.994   2.542  1.00  0.00     0.125 A 
HETATM   14  N   UNL     1      41.049 -14.620   1.432  1.00  0.00    -0.125 NA
HETATM   15  O   UNL     1      41.526 -15.943   1.470  1.00  0.00    -0.211 OA
HETATM   16  C   UNL     1      41.380 -12.657   3.026  1.00  0.00     0.064 A 
HETATM   17  C   UNL     1      42.053 -12.519   4.303  1.00  0.00     0.056 A 
ENDROOT
BRANCH  16  18
HETATM   18  N   UNL     1      40.784 -11.566   2.385  1.00  0.00    -0.376 N 
HETATM   19  C   UNL     1      41.491 -10.278   2.357  1.00  0.00     0.150 C 
HETATM   20  C   UNL     1      41.075  -9.388   3.551  1.00  0.00     0.255 C 
HETATM   21  N   UNL     1      39.550  -9.186   3.611  1.00  0.00    -0.064 N 
HETATM   22  H   UNL     1      39.268  -8.735   2.732  1.00  0.00     0.280 HD
HETATM   23  C   UNL     1      38.855 -10.573   3.625  1.00  0.00     0.255 C 
HETATM   24  C   UNL     1      39.314 -11.424   2.419  1.00  0.00     0.150 C 
BRANCH  21  25
HETATM   25  C   UNL     1      39.117  -8.280   4.779  1.00  0.00     0.188 C 
HETATM   26  C   UNL     1      39.746  -6.877   4.657  1.00  0.00     0.033 C 
HETATM   27  C   UNL     1      39.241  -6.106   3.437  1.00  0.00     0.002 C 
HETATM   28  C   UNL     1      37.718  -6.001   3.434  1.00  0.00     0.000 C 
HETATM   29  C   UNL     1      37.037  -7.356   3.615  1.00  0.00     0.002 C 
HETATM   30  C   UNL     1      37.588  -8.108   4.827  1.00  0.00     0.033 C 
ENDBRANCH  21  25
ENDBRANCH  16  18
BRANCH   1  31
HETATM   31  N   UNL     1      43.388 -13.275   6.282  1.00  0.00    -0.292 NA
HETATM   32  H   UNL     1      42.642 -13.206   6.997  1.00  0.00     0.127 HD
BRANCH  31  33
HETATM   33  C   UNL     1      44.295 -12.134   6.300  1.00  0.00     0.094 C 
BRANCH  33  34
HETATM   34  C   UNL     1      44.441 -11.599   7.727  1.00  0.00     0.042 C 
BRANCH  34  35
HETATM   35  C   UNL     1      45.675 -10.715   7.891  1.00  0.00     0.235 C 
BRANCH  35  36
HETATM   36  N   UNL     1      45.361  -9.511   8.767  1.00  0.00    -0.079 N 
HETATM   37  C   UNL     1      45.267  -9.831  10.235  1.00  0.00     0.269 C 
HETATM   38  H   UNL     1      46.126  -8.833   8.649  1.00  0.00     0.278 HD
HETATM   39  C   UNL     1      44.115  -8.804   8.296  1.00  0.00     0.269 C 
ENDBRANCH  35  36
ENDBRANCH  34  35
ENDBRANCH  33  34
ENDBRANCH  31  33
ENDBRANCH   1  31
TORSDOF 7
ENDMDL
MODEL 8
REMARK VINA RESULT:      -8.0      2.842      6.321
REMARK  7 active torsions:
REMARK  status: ('A' for Active; 'I' for Inactive)
REMARK    1  A    between atoms: N_2  and  C_4 
REMARK    2  A    between atoms: C_4  and  C_5 
REMARK    3  A    between atoms: C_5  and  C_6 
REMARK    4  A    between atoms: C_6  and  N_7 
REMARK    5  A    between atoms: N_7  and  C_8 
REMARK    6  A    between atoms: C_23  and  N_24 
REMARK    7  A    between atoms: N_27  and  C_29 
ROOT
HETATM    1  C   UNL     1      41.548 -13.245   4.513  1.00  0.00     0.025 A 
HETATM    2  C   UNL     1      41.992 -14.532   4.149  1.00  0.00     0.052 A 
HETATM    3  C   UNL     1      41.434 -14.936   2.963  1.00  0.00     0.050 A 
HETATM    4  C   UNL     1      41.734 -16.147   2.443  1.00  0.00     0.126 A 
HETATM    5  C   UNL     1      42.635 -17.126   2.994  1.00  0.00     0.015 A 
HETATM    6  C   UNL     1      43.239 -16.774   4.231  1.00  0.00     0.028 A 
HETATM    7  C   UNL     1      42.901 -15.451   4.878  1.00  0.00     0.196 A 
HETATM    8  O   UNL     1      43.326 -15.123   5.981  1.00  0.00    -0.287 OA
HETATM    9  C   UNL     1      42.940 -18.343   2.389  1.00  0.00     0.015 A 
HETATM   10  C   UNL     1      43.847 -19.207   3.011  1.00  0.00     0.001 A 
HETATM   11  C   UNL     1      44.442 -18.860   4.229  1.00  0.00     0.001 A 
HETATM   12  C   UNL     1      44.140 -17.643   4.845  1.00  0.00     0.016 A 
HETATM   13  C   UNL     1      40.542 -14.278   2.085  1.00  0.00     0.125 A 
HETATM   14  N   UNL     1      40.274 -15.136   1.069  1.00  0.00    -0.125 NA
HETATM   15  O   UNL     1      41.039 -16.295   1.291  1.00  0.00    -0.211 OA
HETATM   16  C   UNL     1      40.089 -12.956   2.380  1.00  0.00     0.064 A 
HETATM   17  C   UNL     1      40.666 -12.498   3.629  1.00  0.00     0.056 A 
ENDROOT
BRANCH  16  18
HETATM   18  N   UNL     1      39.284 -12.128   1.592  1.00  0.00    -0.376 N 
HETATM   19  C   UNL     1      39.117 -12.439   0.165  1.00  0.00     0.150 C 
HETATM   20  C   UNL     1      40.163 -11.694  -0.695  1.00  0.00     0.255 C 
HETATM   21  N   UNL     1      40.129 -10.174  -0.448  1.00  0.00    -0.064 N 
HETATM   22  H   UNL     1      39.188  -9.847  -0.693  1.00  0.00     0.280 HD
HETATM   23  C   UNL     1      40.297  -9.903   1.071  1.00  0.00     0.255 C 
HETATM   24  C   UNL     1      39.235 -10.681   1.882  1.00  0.00     0.150 C 
BRANCH  21  25
HETATM   25  C   UNL     1      41.147  -9.409  -1.315  1.00  0.00     0.188 C 
HETATM   26  C   UNL     1      40.972  -9.749  -2.809  1.00  0.00     0.033 C 
HETATM   27  C   UNL     1      39.633  -9.269  -3.371  1.00  0.00     0.002 C 
HETATM   28  C   UNL     1      39.437  -7.771  -3.146  1.00  0.00     0.000 C 
HETATM   29  C   UNL     1      39.661  -7.364  -1.691  1.00  0.00     0.002 C 
HETATM   30  C   UNL     1      40.996  -7.886  -1.157  1.00  0.00     0.033 C 
ENDBRANCH  21  25
ENDBRANCH  16  18
BRANCH   1  31
HETATM   31  N   UNL     1      42.064 -12.656   5.700  1.00  0.00    -0.292 NA
HETATM   32  H   UNL     1      41.320 -12.732   6.417  1.00  0.00     0.127 HD
BRANCH  31  33
HETATM   33  C   UNL     1      42.602 -11.306   5.584  1.00  0.00     0.094 C 
BRANCH  33  34
HETATM   34  C   UNL     1      42.955 -10.757   6.969  1.00  0.00     0.042 C 
BRANCH  34  35
HETATM   35  C   UNL     1      44.463 -10.639   7.178  1.00  0.00     0.235 C 
BRANCH  35  36
HETATM   36  N   UNL     1      44.776  -9.637   8.279  1.00  0.00    -0.079 N 
HETATM   37  C   UNL     1      43.824  -8.472   8.335  1.00  0.00     0.269 C 
HETATM   38  H   UNL     1      44.708 -10.133   9.178  1.00  0.00     0.278 HD
HETATM   39  C   UNL     1      46.203  -9.155   8.189  1.00  0.00     0.269 C 
ENDBRANCH  35  36
ENDBRANCH  34  35
ENDBRANCH  33  34
ENDBRANCH  31  33
ENDBRANCH   1  31
TORSDOF 7
ENDMDL
MODEL 9
REMARK VINA RESULT:      -7.9     16.307     19.165
REMARK  7 active torsions:
REMARK  status: ('A' for Active; 'I' for Inactive)
REMARK    1  A    between atoms: N_2  and  C_4 
REMARK    2  A    between atoms: C_4  and  C_5 
REMARK    3  A    between atoms: C_5  and  C_6 
REMARK    4  A    between atoms: C_6  and  N_7 
REMARK    5  A    between atoms: N_7  and  C_8 
REMARK    6  A    between atoms: C_23  and  N_24 
REMARK    7  A    between atoms: N_27  and  C_29 
ROOT
HETATM    1  C   UNL     1      44.928 -31.717   1.561  1.00  0.00     0.025 A 
HETATM    2  C   UNL     1      44.986 -30.860   0.444  1.00  0.00     0.052 A 
HETATM    3  C   UNL     1      45.768 -29.762   0.698  1.00  0.00     0.050 A 
HETATM    4  C   UNL     1      45.949 -28.816  -0.250  1.00  0.00     0.126 A 
HETATM    5  C   UNL     1      45.410 -28.817  -1.587  1.00  0.00     0.015 A 
HETATM    6  C   UNL     1      44.580 -29.924  -1.912  1.00  0.00     0.028 A 
HETATM    7  C   UNL     1      44.308 -30.985  -0.870  1.00  0.00     0.196 A 
HETATM    8  O   UNL     1      43.539 -31.921  -1.061  1.00  0.00    -0.287 OA
HETATM    9  C   UNL     1      45.668 -27.834  -2.539  1.00  0.00     0.015 A 
HETATM   10  C   UNL     1      45.104 -27.953  -3.813  1.00  0.00     0.001 A 
HETATM   11  C   UNL     1      44.286 -29.043  -4.133  1.00  0.00     0.001 A 
HETATM   12  C   UNL     1      44.020 -30.032  -3.183  1.00  0.00     0.016 A 
HETATM   13  C   UNL     1      46.503 -29.392   1.848  1.00  0.00     0.125 A 
HETATM   14  N   UNL     1      47.075 -28.190   1.587  1.00  0.00    -0.125 NA
HETATM   15  O   UNL     1      46.739 -27.846   0.266  1.00  0.00    -0.211 OA
HETATM   16  C   UNL     1      46.515 -30.241   2.995  1.00  0.00     0.064 A 
HETATM   17  C   UNL     1      45.699 -31.415   2.757  1.00  0.00     0.056 A 
ENDROOT
BRANCH  16  18
HETATM   18  N   UNL     1      47.249 -30.079   4.176  1.00  0.00    -0.376 N 
HETATM   19  C   UNL     1      48.654 -29.656   4.093  1.00  0.00     0.150 C 
HETATM   20  C   UNL     1      49.603 -30.876   4.053  1.00  0.00     0.255 C 
HETATM   21  N   UNL     1      49.374 -31.818   5.250  1.00  0.00    -0.064 N 
HETATM   22  H   UNL     1      49.548 -31.275   6.103  1.00  0.00     0.280 HD
HETATM   23  C   UNL     1      47.876 -32.223   5.296  1.00  0.00     0.255 C 
HETATM   24  C   UNL     1      46.974 -30.968   5.323  1.00  0.00     0.150 C 
BRANCH  21  25
HETATM   25  C   UNL     1      50.328 -33.028   5.243  1.00  0.00     0.188 C 
HETATM   26  C   UNL     1      51.801 -32.573   5.237  1.00  0.00     0.033 C 
HETATM   27  C   UNL     1      52.201 -31.844   6.520  1.00  0.00     0.002 C 
HETATM   28  C   UNL     1      51.919 -32.694   7.757  1.00  0.00     0.000 C 
HETATM   29  C   UNL     1      50.488 -33.227   7.786  1.00  0.00     0.002 C 
HETATM   30  C   UNL     1      50.117 -33.924   6.476  1.00  0.00     0.033 C 
ENDBRANCH  21  25
ENDBRANCH  16  18
BRANCH   1  31
HETATM   31  N   UNL     1      44.190 -32.929   1.452  1.00  0.00    -0.292 NA
HETATM   32  H   UNL     1      43.965 -33.050   0.449  1.00  0.00     0.127 HD
BRANCH  31  33
HETATM   33  C   UNL     1      43.022 -33.067   2.314  1.00  0.00     0.094 C 
BRANCH  33  34
HETATM   34  C   UNL     1      41.741 -32.845   1.505  1.00  0.00     0.042 C 
BRANCH  34  35
HETATM   35  C   UNL     1      40.942 -31.644   2.005  1.00  0.00     0.235 C 
BRANCH  35  36
HETATM   36  N   UNL     1      41.854 -30.641   2.696  1.00  0.00    -0.079 N 
HETATM   37  C   UNL     1      41.408 -30.263   4.083  1.00  0.00     0.269 C 
HETATM   38  H   UNL     1      42.784 -31.074   2.779  1.00  0.00     0.278 HD
HETATM   39  C   UNL     1      42.053 -29.410   1.846  1.00  0.00     0.269 C 
ENDBRANCH  35  36
ENDBRANCH  34  35
ENDBRANCH  33  34
ENDBRANCH  31  33
ENDBRANCH   1  31
TORSDOF 7
ENDMDL
MODEL 10
REMARK VINA RESULT:      -7.8      2.252      6.098
REMARK  7 active torsions:
REMARK  status: ('A' for Active; 'I' for Inactive)
REMARK    1  A    between atoms: N_2  and  C_4 
REMARK    2  A    between atoms: C_4  and  C_5 
REMARK    3  A    between atoms: C_5  and  C_6 
REMARK    4  A    between atoms: C_6  and  N_7 
REMARK    5  A    between atoms: N_7  and  C_8 
REMARK    6  A    between atoms: C_23  and  N_24 
REMARK    7  A    between atoms: N_27  and  C_29 
ROOT
HETATM    1  C   UNL     1      42.297 -11.834   3.008  1.00  0.00     0.025 A 
HETATM    2  C   UNL     1      42.548 -13.084   3.608  1.00  0.00     0.052 A 
HETATM    3  C   UNL     1      42.116 -14.116   2.812  1.00  0.00     0.050 A 
HETATM    4  C   UNL     1      42.265 -15.398   3.213  1.00  0.00     0.126 A 
HETATM    5  C   UNL     1      42.874 -15.857   4.435  1.00  0.00     0.015 A 
HETATM    6  C   UNL     1      43.334 -14.837   5.311  1.00  0.00     0.028 A 
HETATM    7  C   UNL     1      43.148 -13.386   4.931  1.00  0.00     0.196 A 
HETATM    8  O   UNL     1      43.451 -12.460   5.676  1.00  0.00    -0.287 OA
HETATM    9  C   UNL     1      43.041 -17.197   4.776  1.00  0.00     0.015 A 
HETATM   10  C   UNL     1      43.666 -17.523   5.983  1.00  0.00     0.001 A 
HETATM   11  C   UNL     1      44.119 -16.518   6.846  1.00  0.00     0.001 A 
HETATM   12  C   UNL     1      43.954 -15.171   6.514  1.00  0.00     0.016 A 
HETATM   13  C   UNL     1      41.507 -14.111   1.537  1.00  0.00     0.125 A 
HETATM   14  N   UNL     1      41.247 -15.402   1.212  1.00  0.00    -0.125 NA
HETATM   15  O   UNL     1      41.741 -16.202   2.259  1.00  0.00    -0.211 OA
HETATM   16  C   UNL     1      41.265 -12.876   0.862  1.00  0.00     0.064 A 
HETATM   17  C   UNL     1      41.715 -11.765   1.676  1.00  0.00     0.056 A 
ENDROOT
BRANCH  16  18
HETATM   18  N   UNL     1      40.757 -12.688  -0.428  1.00  0.00    -0.376 N 
HETATM   19  C   UNL     1      41.163 -11.498  -1.191  1.00  0.00     0.150 C 
HETATM   20  C   UNL     1      40.169 -10.334  -0.980  1.00  0.00     0.255 C 
HETATM   21  N   UNL     1      38.724 -10.746  -1.318  1.00  0.00    -0.064 N 
HETATM   22  H   UNL     1      38.712 -11.033  -2.303  1.00  0.00     0.280 HD
HETATM   23  C   UNL     1      38.353 -12.010  -0.497  1.00  0.00     0.255 C 
HETATM   24  C   UNL     1      39.384 -13.136  -0.736  1.00  0.00     0.150 C 
BRANCH  21  25
HETATM   25  C   UNL     1      37.720  -9.591  -1.139  1.00  0.00     0.188 C 
HETATM   26  C   UNL     1      38.074  -8.401  -2.053  1.00  0.00     0.033 C 
HETATM   27  C   UNL     1      37.934  -8.733  -3.539  1.00  0.00     0.002 C 
HETATM   28  C   UNL     1      36.534  -9.248  -3.866  1.00  0.00     0.000 C 
HETATM   29  C   UNL     1      36.102 -10.391  -2.949  1.00  0.00     0.002 C 
HETATM   30  C   UNL     1      36.284 -10.031  -1.474  1.00  0.00     0.033 C 
ENDBRANCH  21  25
ENDBRANCH  16  18
BRANCH   1  31
HETATM   31  N   UNL     1      42.723 -10.657   3.683  1.00  0.00    -0.292 NA
HETATM   32  H   UNL     1      43.306 -10.967   4.481  1.00  0.00     0.127 HD
BRANCH  31  33
HETATM   33  C   UNL     1      41.684  -9.712   4.075  1.00  0.00     0.094 C 
BRANCH  33  34
HETATM   34  C   UNL     1      41.762  -9.438   5.580  1.00  0.00     0.042 C 
BRANCH  34  35
HETATM   35  C   UNL     1      40.757 -10.271   6.373  1.00  0.00     0.235 C 
BRANCH  35  36
HETATM   36  N   UNL     1      39.727 -10.897   5.445  1.00  0.00    -0.079 N 
HETATM   37  C   UNL     1      38.380 -10.226   5.485  1.00  0.00     0.269 C 
HETATM   38  H   UNL     1      40.084 -10.813   4.484  1.00  0.00     0.278 HD
HETATM   39  C   UNL     1      39.592 -12.378   5.700  1.00  0.00     0.269 C 
ENDBRANCH  35  36
ENDBRANCH  34  35
ENDBRANCH  33  34
ENDBRANCH  31  33
ENDBRANCH   1  31
TORSDOF 7
ENDMDL
