MODEL 1
REMARK VINA RESULT:      -8.1      0.000      0.000
REMARK  8 active torsions:
REMARK  status: ('A' for Active; 'I' for Inactive)
REMARK    1  A    between atoms: C_2  and  N_3 
REMARK    2  A    between atoms: N_3  and  C_5 
REMARK    3  A    between atoms: N_3  and  C_30 
REMARK    4  A    between atoms: C_5  and  C_6 
REMARK    5  A    between atoms: C_6  and  N_7 
REMARK       I    between atoms: N_7  and  C_8 
REMARK    6  A    between atoms: C_8  and  C_9 
REMARK    7  A    between atoms: C_9  and  O_10 
REMARK    8  A    between atoms: N_11  and  C_12 
ROOT
HETATM    1  C   UNL     1      42.538 -13.804   5.198  1.00  0.00     0.256 C 
HETATM    2  N   UNL     1      43.338 -12.602   4.939  1.00  0.00    -0.254 N 
HETATM    3  C   UNL     1      43.463 -12.186   3.614  1.00  0.00     0.330 C 
HETATM    4  O   UNL     1      43.717 -11.049   3.224  1.00  0.00    -0.246 OA
HETATM    5  N   UNL     1      43.359 -13.172   2.659  1.00  0.00    -0.308 N 
HETATM    6  C   UNL     1      43.238 -14.534   2.935  1.00  0.00     0.048 A 
HETATM    7  C   UNL     1      42.854 -14.912   4.221  1.00  0.00     0.034 A 
HETATM    8  C   UNL     1      43.453 -15.479   1.936  1.00  0.00     0.030 A 
HETATM    9  C   UNL     1      43.305 -16.833   2.233  1.00  0.00     0.002 A 
HETATM   10  C   UNL     1      42.930 -17.230   3.517  1.00  0.00     0.001 A 
HETATM   11  C   UNL     1      42.698 -16.275   4.508  1.00  0.00     0.015 A 
HETATM   12  H   UNL     1      43.641 -12.870   1.732  1.00  0.00     0.170 HD
ENDROOT
BRANCH   1  13
HETATM   13  C   UNL     1      41.003 -13.373   5.112  1.00  0.00     0.279 C 
HETATM   14  N   UNL     1      40.649 -12.355   4.240  1.00  0.00    -0.355 N 
HETATM   15  H   UNL     1      41.347 -12.030   3.578  1.00  0.00     0.162 HD
HETATM   16  O   UNL     1      40.142 -13.875   5.843  1.00  0.00    -0.268 OA
BRANCH  14  17
HETATM   17  C   UNL     1      39.258 -12.038   3.983  1.00  0.00     0.150 C 
BRANCH  17  18
HETATM   18  C   UNL     1      38.699 -12.706   2.714  1.00  0.00     0.254 C 
BRANCH  18  19
HETATM   19  N   UNL     1      39.715 -13.585   1.985  1.00  0.00    -0.070 N 
HETATM   20  H   UNL     1      40.630 -13.299   2.363  1.00  0.00     0.279 HD
BRANCH  19  21
HETATM   21  C   UNL     1      39.804 -13.329   0.487  1.00  0.00     0.230 C 
HETATM   22  C   UNL     1      40.899 -12.335   0.150  1.00  0.00     0.034 C 
ENDBRANCH  19  21
BRANCH  19  23
HETATM   23  C   UNL     1      39.603 -15.073   2.265  1.00  0.00     0.230 C 
HETATM   24  C   UNL     1      39.896 -15.901   1.028  1.00  0.00     0.034 C 
ENDBRANCH  19  23
ENDBRANCH  18  19
ENDBRANCH  17  18
ENDBRANCH  14  17
ENDBRANCH   1  13
BRANCH   1  25
HETATM   25  O   UNL     1      42.718 -14.309   6.521  1.00  0.00    -0.359 OA
HETATM   26  H   UNL     1      43.664 -14.170   6.721  1.00  0.00     0.213 HD
ENDBRANCH   1  25
BRANCH   2  27
HETATM   27  C   UNL     1      43.869 -11.802   6.000  1.00  0.00     0.043 A 
HETATM   28  C   UNL     1      43.019 -10.980   6.755  1.00  0.00     0.037 A 
HETATM   29  C   UNL     1      43.481 -10.234   7.855  1.00  0.00    -0.054 A 
HETATM   30  C   UNL     1      42.506  -9.396   8.636  1.00  0.00     0.049 C 
HETATM   31  C   UNL     1      44.838 -10.310   8.212  1.00  0.00    -0.056 A 
HETATM   32  C   UNL     1      45.382  -9.576   9.408  1.00  0.00     0.049 C 
HETATM   33  C   UNL     1      45.686 -11.150   7.478  1.00  0.00     0.009 A 
HETATM   34  C   UNL     1      45.206 -11.890   6.391  1.00  0.00     0.030 A 
ENDBRANCH   2  27
TORSDOF 8
ENDMDL
MODEL 2
REMARK VINA RESULT:      -7.7      1.809      7.209
REMARK  8 active torsions:
REMARK  status: ('A' for Active; 'I' for Inactive)
REMARK    1  A    between atoms: C_2  and  N_3 
REMARK    2  A    between atoms: N_3  and  C_5 
REMARK    3  A    between atoms: N_3  and  C_30 
REMARK    4  A    between atoms: C_5  and  C_6 
REMARK    5  A    between atoms: C_6  and  N_7 
REMARK       I    between atoms: N_7  and  C_8 
REMARK    6  A    between atoms: C_8  and  C_9 
REMARK    7  A    between atoms: C_9  and  O_10 
REMARK    8  A    between atoms: N_11  and  C_12 
ROOT
HETATM    1  C   UNL     1      42.462 -13.987   2.972  1.00  0.00     0.256 C 
HETATM    2  N   UNL     1      41.123 -13.625   2.492  1.00  0.00    -0.254 N 
HETATM    3  C   UNL     1      40.112 -13.494   3.442  1.00  0.00     0.330 C 
HETATM    4  O   UNL     1      39.083 -12.834   3.330  1.00  0.00    -0.246 OA
HETATM    5  N   UNL     1      40.261 -14.241   4.589  1.00  0.00    -0.308 N 
HETATM    6  C   UNL     1      41.283 -15.165   4.806  1.00  0.00     0.048 A 
HETATM    7  C   UNL     1      42.412 -15.101   3.990  1.00  0.00     0.034 A 
HETATM    8  C   UNL     1      41.188 -16.093   5.839  1.00  0.00     0.030 A 
HETATM    9  C   UNL     1      42.232 -16.992   6.048  1.00  0.00     0.002 A 
HETATM   10  C   UNL     1      43.365 -16.949   5.236  1.00  0.00     0.001 A 
HETATM   11  C   UNL     1      43.461 -16.003   4.214  1.00  0.00     0.015 A 
HETATM   12  H   UNL     1      39.428 -14.268   5.167  1.00  0.00     0.170 HD
ENDROOT
BRANCH   1  13
HETATM   13  C   UNL     1      43.112 -12.665   3.588  1.00  0.00     0.279 C 
HETATM   14  N   UNL     1      43.271 -12.584   4.963  1.00  0.00    -0.355 N 
HETATM   15  H   UNL     1      43.114 -13.424   5.511  1.00  0.00     0.162 HD
HETATM   16  O   UNL     1      43.414 -11.696   2.883  1.00  0.00    -0.268 OA
BRANCH  14  17
HETATM   17  C   UNL     1      44.012 -11.495   5.569  1.00  0.00     0.150 C 
BRANCH  17  18
HETATM   18  C   UNL     1      43.376 -10.965   6.867  1.00  0.00     0.254 C 
BRANCH  18  19
HETATM   19  N   UNL     1      44.350 -10.896   8.043  1.00  0.00    -0.070 N 
HETATM   20  H   UNL     1      44.284 -11.819   8.494  1.00  0.00     0.279 HD
BRANCH  19  21
HETATM   21  C   UNL     1      43.959  -9.895   9.122  1.00  0.00     0.230 C 
HETATM   22  C   UNL     1      43.838 -10.553  10.482  1.00  0.00     0.034 C 
ENDBRANCH  19  21
BRANCH  19  23
HETATM   23  C   UNL     1      45.811 -10.728   7.665  1.00  0.00     0.230 C 
HETATM   24  C   UNL     1      46.321  -9.338   7.998  1.00  0.00     0.034 C 
ENDBRANCH  19  23
ENDBRANCH  18  19
ENDBRANCH  17  18
ENDBRANCH  14  17
ENDBRANCH   1  13
BRANCH   1  25
HETATM   25  O   UNL     1      43.336 -14.384   1.916  1.00  0.00    -0.359 OA
HETATM   26  H   UNL     1      43.910 -15.073   2.305  1.00  0.00     0.213 HD
ENDBRANCH   1  25
BRANCH   2  27
HETATM   27  C   UNL     1      40.875 -13.290   1.122  1.00  0.00     0.043 A 
HETATM   28  C   UNL     1      40.234 -14.210   0.278  1.00  0.00     0.037 A 
HETATM   29  C   UNL     1      39.902 -13.898  -1.053  1.00  0.00    -0.054 A 
HETATM   30  C   UNL     1      39.190 -14.925  -1.892  1.00  0.00     0.049 C 
HETATM   31  C   UNL     1      40.222 -12.627  -1.559  1.00  0.00    -0.056 A 
HETATM   32  C   UNL     1      39.847 -12.217  -2.958  1.00  0.00     0.049 C 
HETATM   33  C   UNL     1      40.837 -11.696  -0.713  1.00  0.00     0.009 A 
HETATM   34  C   UNL     1      41.154 -12.022   0.611  1.00  0.00     0.030 A 
ENDBRANCH   2  27
TORSDOF 8
ENDMDL
MODEL 3
REMARK VINA RESULT:      -7.7      2.496      6.246
REMARK  8 active torsions:
REMARK  status: ('A' for Active; 'I' for Inactive)
REMARK    1  A    between atoms: C_2  and  N_3 
REMARK    2  A    between atoms: N_3  and  C_5 
REMARK    3  A    between atoms: N_3  and  C_30 
REMARK    4  A    between atoms: C_5  and  C_6 
REMARK    5  A    between atoms: C_6  and  N_7 
REMARK       I    between atoms: N_7  and  C_8 
REMARK    6  A    between atoms: C_8  and  C_9 
REMARK    7  A    between atoms: C_9  and  O_10 
REMARK    8  A    between atoms: N_11  and  C_12 
ROOT
HETATM    1  C   UNL     1      42.298 -14.111   3.106  1.00  0.00     0.256 C 
HETATM    2  N   UNL     1      41.944 -15.362   3.787  1.00  0.00    -0.254 N 
HETATM    3  C   UNL     1      40.967 -15.300   4.779  1.00  0.00     0.330 C 
HETATM    4  O   UNL     1      40.257 -16.224   5.167  1.00  0.00    -0.246 OA
HETATM    5  N   UNL     1      40.844 -14.093   5.431  1.00  0.00    -0.308 N 
HETATM    6  C   UNL     1      41.679 -12.995   5.230  1.00  0.00     0.048 A 
HETATM    7  C   UNL     1      42.465 -12.968   4.079  1.00  0.00     0.034 A 
HETATM    8  C   UNL     1      41.688 -11.939   6.138  1.00  0.00     0.030 A 
HETATM    9  C   UNL     1      42.517 -10.843   5.903  1.00  0.00     0.002 A 
HETATM   10  C   UNL     1      43.317 -10.804   4.761  1.00  0.00     0.001 A 
HETATM   11  C   UNL     1      43.288 -11.858   3.846  1.00  0.00     0.015 A 
HETATM   12  H   UNL     1      40.265 -14.139   6.263  1.00  0.00     0.170 HD
ENDROOT
BRANCH   1  13
HETATM   13  C   UNL     1      41.140 -13.810   2.048  1.00  0.00     0.279 C 
HETATM   14  N   UNL     1      41.383 -14.066   0.708  1.00  0.00    -0.355 N 
HETATM   15  H   UNL     1      42.226 -14.579   0.467  1.00  0.00     0.162 HD
HETATM   16  O   UNL     1      40.066 -13.299   2.384  1.00  0.00    -0.268 OA
BRANCH  14  17
HETATM   17  C   UNL     1      40.322 -13.985  -0.276  1.00  0.00     0.150 C 
BRANCH  17  18
HETATM   18  C   UNL     1      40.454 -12.780  -1.225  1.00  0.00     0.254 C 
BRANCH  18  19
HETATM   19  N   UNL     1      39.496 -12.830  -2.416  1.00  0.00    -0.070 N 
HETATM   20  H   UNL     1      40.068 -13.179  -3.198  1.00  0.00     0.279 HD
BRANCH  19  21
HETATM   21  C   UNL     1      38.988 -11.468  -2.868  1.00  0.00     0.230 C 
HETATM   22  C   UNL     1      37.549 -11.238  -2.450  1.00  0.00     0.034 C 
ENDBRANCH  19  21
BRANCH  19  23
HETATM   23  C   UNL     1      38.345 -13.810  -2.280  1.00  0.00     0.230 C 
HETATM   24  C   UNL     1      38.310 -14.799  -3.430  1.00  0.00     0.034 C 
ENDBRANCH  19  23
ENDBRANCH  18  19
ENDBRANCH  17  18
ENDBRANCH  14  17
ENDBRANCH   1  13
BRANCH   1  25
HETATM   25  O   UNL     1      43.496 -14.223   2.337  1.00  0.00    -0.359 OA
HETATM   26  H   UNL     1      43.618 -15.182   2.193  1.00  0.00     0.213 HD
ENDBRANCH   1  25
BRANCH   2  27
HETATM   27  C   UNL     1      42.477 -16.625   3.376  1.00  0.00     0.043 A 
HETATM   28  C   UNL     1      43.324 -17.344   4.233  1.00  0.00     0.037 A 
HETATM   29  C   UNL     1      43.812 -18.622   3.904  1.00  0.00    -0.054 A 
HETATM   30  C   UNL     1      44.693 -19.346   4.884  1.00  0.00     0.049 C 
HETATM   31  C   UNL     1      43.443 -19.201   2.678  1.00  0.00    -0.056 A 
HETATM   32  C   UNL     1      43.891 -20.585   2.292  1.00  0.00     0.049 C 
HETATM   33  C   UNL     1      42.576 -18.499   1.831  1.00  0.00     0.009 A 
HETATM   34  C   UNL     1      42.096 -17.231   2.178  1.00  0.00     0.030 A 
ENDBRANCH   2  27
TORSDOF 8
ENDMDL
MODEL 4
REMARK VINA RESULT:      -7.5      2.522      5.786
REMARK  8 active torsions:
REMARK  status: ('A' for Active; 'I' for Inactive)
REMARK    1  A    between atoms: C_2  and  N_3 
REMARK    2  A    between atoms: N_3  and  C_5 
REMARK    3  A    between atoms: N_3  and  C_30 
REMARK    4  A    between atoms: C_5  and  C_6 
REMARK    5  A    between atoms: C_6  and  N_7 
REMARK       I    between atoms: N_7  and  C_8 
REMARK    6  A    between atoms: C_8  and  C_9 
REMARK    7  A    between atoms: C_9  and  O_10 
REMARK    8  A    between atoms: N_11  and  C_12 
ROOT
HETATM    1  C   UNL     1      41.641 -12.969   4.158  1.00  0.00     0.256 C 
HETATM    2  N   UNL     1      41.473 -14.109   5.067  1.00  0.00    -0.254 N 
HETATM    3  C   UNL     1      40.426 -14.050   5.986  1.00  0.00     0.330 C 
HETATM    4  O   UNL     1      39.872 -15.003   6.526  1.00  0.00    -0.246 OA
HETATM    5  N   UNL     1      40.030 -12.789   6.371  1.00  0.00    -0.308 N 
HETATM    6  C   UNL     1      40.660 -11.607   5.982  1.00  0.00     0.048 A 
HETATM    7  C   UNL     1      41.516 -11.649   4.882  1.00  0.00     0.034 A 
HETATM    8  C   UNL     1      40.402 -10.415   6.653  1.00  0.00     0.030 A 
HETATM    9  C   UNL     1      41.028  -9.244   6.232  1.00  0.00     0.002 A 
HETATM   10  C   UNL     1      41.895  -9.268   5.139  1.00  0.00     0.001 A 
HETATM   11  C   UNL     1      42.134 -10.464   4.460  1.00  0.00     0.015 A 
HETATM   12  H   UNL     1      39.406 -12.786   7.171  1.00  0.00     0.170 HD
ENDROOT
BRANCH   1  13
HETATM   13  C   UNL     1      40.534 -13.113   3.017  1.00  0.00     0.279 C 
HETATM   14  N   UNL     1      40.947 -13.412   1.728  1.00  0.00    -0.355 N 
HETATM   15  H   UNL     1      41.917 -13.681   1.588  1.00  0.00     0.162 HD
HETATM   16  O   UNL     1      39.336 -12.904   3.238  1.00  0.00    -0.268 OA
BRANCH  14  17
HETATM   17  C   UNL     1      39.989 -13.731   0.688  1.00  0.00     0.150 C 
BRANCH  17  18
HETATM   18  C   UNL     1      39.828 -12.619  -0.364  1.00  0.00     0.254 C 
BRANCH  18  19
HETATM   19  N   UNL     1      39.540 -13.143  -1.771  1.00  0.00    -0.070 N 
HETATM   20  H   UNL     1      38.723 -12.604  -2.090  1.00  0.00     0.279 HD
BRANCH  19  21
HETATM   21  C   UNL     1      39.103 -14.600  -1.819  1.00  0.00     0.230 C 
HETATM   22  C   UNL     1      38.489 -14.959  -3.158  1.00  0.00     0.034 C 
ENDBRANCH  19  21
BRANCH  19  23
HETATM   23  C   UNL     1      40.630 -12.879  -2.796  1.00  0.00     0.230 C 
HETATM   24  C   UNL     1      40.914 -11.397  -2.945  1.00  0.00     0.034 C 
ENDBRANCH  19  23
ENDBRANCH  18  19
ENDBRANCH  17  18
ENDBRANCH  14  17
ENDBRANCH   1  13
BRANCH   1  25
HETATM   25  O   UNL     1      42.895 -12.989   3.477  1.00  0.00    -0.359 OA
HETATM   26  H   UNL     1      43.026 -13.919   3.210  1.00  0.00     0.213 HD
ENDBRANCH   1  25
BRANCH   2  27
HETATM   27  C   UNL     1      42.262 -15.297   4.945  1.00  0.00     0.043 A 
HETATM   28  C   UNL     1      42.097 -16.140   3.836  1.00  0.00     0.037 A 
HETATM   29  C   UNL     1      42.900 -17.278   3.635  1.00  0.00    -0.054 A 
HETATM   30  C   UNL     1      42.685 -18.121   2.407  1.00  0.00     0.049 C 
HETATM   31  C   UNL     1      43.900 -17.585   4.573  1.00  0.00    -0.056 A 
HETATM   32  C   UNL     1      44.824 -18.758   4.387  1.00  0.00     0.049 C 
HETATM   33  C   UNL     1      44.087 -16.731   5.668  1.00  0.00     0.009 A 
HETATM   34  C   UNL     1      43.283 -15.600   5.848  1.00  0.00     0.030 A 
ENDBRANCH   2  27
TORSDOF 8
ENDMDL
MODEL 5
REMARK VINA RESULT:      -7.4      1.931      6.791
REMARK  8 active torsions:
REMARK  status: ('A' for Active; 'I' for Inactive)
REMARK    1  A    between atoms: C_2  and  N_3 
REMARK    2  A    between atoms: N_3  and  C_5 
REMARK    3  A    between atoms: N_3  and  C_30 
REMARK    4  A    between atoms: C_5  and  C_6 
REMARK    5  A    between atoms: C_6  and  N_7 
REMARK       I    between atoms: N_7  and  C_8 
REMARK    6  A    between atoms: C_8  and  C_9 
REMARK    7  A    between atoms: C_9  and  O_10 
REMARK    8  A    between atoms: N_11  and  C_12 
ROOT
HETATM    1  C   UNL     1      41.776 -14.471   3.892  1.00  0.00     0.256 C 
HETATM    2  N   UNL     1      42.643 -15.344   3.092  1.00  0.00    -0.254 N 
HETATM    3  C   UNL     1      43.178 -14.817   1.918  1.00  0.00     0.330 C 
HETATM    4  O   UNL     1      44.197 -15.193   1.343  1.00  0.00    -0.246 OA
HETATM    5  N   UNL     1      42.444 -13.821   1.312  1.00  0.00    -0.308 N 
HETATM    6  C   UNL     1      41.189 -13.392   1.740  1.00  0.00     0.048 A 
HETATM    7  C   UNL     1      40.785 -13.723   3.033  1.00  0.00     0.034 A 
HETATM    8  C   UNL     1      40.386 -12.617   0.907  1.00  0.00     0.030 A 
HETATM    9  C   UNL     1      39.144 -12.182   1.366  1.00  0.00     0.002 A 
HETATM   10  C   UNL     1      38.719 -12.512   2.653  1.00  0.00     0.001 A 
HETATM   11  C   UNL     1      39.538 -13.273   3.489  1.00  0.00     0.015 A 
HETATM   12  H   UNL     1      42.761 -13.597   0.375  1.00  0.00     0.170 HD
ENDROOT
BRANCH   1  13
HETATM   13  C   UNL     1      42.729 -13.469   4.690  1.00  0.00     0.279 C 
HETATM   14  N   UNL     1      42.804 -12.150   4.268  1.00  0.00    -0.355 N 
HETATM   15  H   UNL     1      42.136 -11.834   3.571  1.00  0.00     0.162 HD
HETATM   16  O   UNL     1      43.442 -13.850   5.624  1.00  0.00    -0.268 OA
BRANCH  14  17
HETATM   17  C   UNL     1      43.506 -11.152   5.050  1.00  0.00     0.150 C 
BRANCH  17  18
HETATM   18  C   UNL     1      42.708 -10.651   6.268  1.00  0.00     0.254 C 
BRANCH  18  19
HETATM   19  N   UNL     1      43.575  -9.989   7.339  1.00  0.00    -0.070 N 
HETATM   20  H   UNL     1      44.217  -9.376   6.816  1.00  0.00     0.279 HD
BRANCH  19  21
HETATM   21  C   UNL     1      44.474 -10.953   8.101  1.00  0.00     0.230 C 
HETATM   22  C   UNL     1      45.940 -10.710   7.801  1.00  0.00     0.034 C 
ENDBRANCH  19  21
BRANCH  19  23
HETATM   23  C   UNL     1      42.833  -9.079   8.302  1.00  0.00     0.230 C 
HETATM   24  C   UNL     1      43.687  -7.901   8.733  1.00  0.00     0.034 C 
ENDBRANCH  19  23
ENDBRANCH  18  19
ENDBRANCH  17  18
ENDBRANCH  14  17
ENDBRANCH   1  13
BRANCH   1  25
HETATM   25  O   UNL     1      41.051 -15.186   4.893  1.00  0.00    -0.359 OA
HETATM   26  H   UNL     1      40.435 -14.532   5.278  1.00  0.00     0.213 HD
ENDBRANCH   1  25
BRANCH   2  27
HETATM   27  C   UNL     1      43.038 -16.642   3.547  1.00  0.00     0.043 A 
HETATM   28  C   UNL     1      42.924 -17.751   2.695  1.00  0.00     0.037 A 
HETATM   29  C   UNL     1      43.368 -19.033   3.071  1.00  0.00    -0.054 A 
HETATM   30  C   UNL     1      43.240 -20.170   2.094  1.00  0.00     0.049 C 
HETATM   31  C   UNL     1      43.944 -19.213   4.339  1.00  0.00    -0.056 A 
HETATM   32  C   UNL     1      44.484 -20.547   4.779  1.00  0.00     0.049 C 
HETATM   33  C   UNL     1      44.085 -18.103   5.183  1.00  0.00     0.009 A 
HETATM   34  C   UNL     1      43.643 -16.835   4.790  1.00  0.00     0.030 A 
ENDBRANCH   2  27
TORSDOF 8
ENDMDL
MODEL 6
REMARK VINA RESULT:      -7.2      1.529      2.654
REMARK  8 active torsions:
REMARK  status: ('A' for Active; 'I' for Inactive)
REMARK    1  A    between atoms: C_2  and  N_3 
REMARK    2  A    between atoms: N_3  and  C_5 
REMARK    3  A    between atoms: N_3  and  C_30 
REMARK    4  A    between atoms: C_5  and  C_6 
REMARK    5  A    between atoms: C_6  and  N_7 
REMARK       I    between atoms: N_7  and  C_8 
REMARK    6  A    between atoms: C_8  and  C_9 
REMARK    7  A    between atoms: C_9  and  O_10 
REMARK    8  A    between atoms: N_11  and  C_12 
ROOT
HETATM    1  C   UNL     1      42.677 -13.800   5.240  1.00  0.00     0.256 C 
HETATM    2  N   UNL     1      43.363 -12.551   4.891  1.00  0.00    -0.254 N 
HETATM    3  C   UNL     1      43.313 -12.139   3.561  1.00  0.00     0.330 C 
HETATM    4  O   UNL     1      43.447 -10.991   3.144  1.00  0.00    -0.246 OA
HETATM    5  N   UNL     1      43.168 -13.137   2.624  1.00  0.00    -0.308 N 
HETATM    6  C   UNL     1      43.167 -14.501   2.914  1.00  0.00     0.048 A 
HETATM    7  C   UNL     1      42.954 -14.893   4.235  1.00  0.00     0.034 A 
HETATM    8  C   UNL     1      43.331 -15.439   1.898  1.00  0.00     0.030 A 
HETATM    9  C   UNL     1      43.305 -16.797   2.211  1.00  0.00     0.002 A 
HETATM   10  C   UNL     1      43.102 -17.207   3.529  1.00  0.00     0.001 A 
HETATM   11  C   UNL     1      42.920 -16.261   4.539  1.00  0.00     0.015 A 
HETATM   12  H   UNL     1      43.324 -12.826   1.671  1.00  0.00     0.170 HD
ENDROOT
BRANCH   1  13
HETATM   13  C   UNL     1      41.117 -13.470   5.325  1.00  0.00     0.279 C 
HETATM   14  N   UNL     1      40.675 -12.239   4.867  1.00  0.00    -0.355 N 
HETATM   15  H   UNL     1      41.331 -11.658   4.353  1.00  0.00     0.162 HD
HETATM   16  O   UNL     1      40.312 -14.251   5.844  1.00  0.00    -0.268 OA
BRANCH  14  17
HETATM   17  C   UNL     1      39.260 -11.946   4.751  1.00  0.00     0.150 C 
BRANCH  17  18
HETATM   18  C   UNL     1      38.963 -10.482   4.378  1.00  0.00     0.254 C 
BRANCH  18  19
HETATM   19  N   UNL     1      40.190  -9.572   4.440  1.00  0.00    -0.070 N 
HETATM   20  H   UNL     1      40.976 -10.204   4.647  1.00  0.00     0.279 HD
BRANCH  19  21
HETATM   21  C   UNL     1      40.169  -8.570   5.586  1.00  0.00     0.230 C 
HETATM   22  C   UNL     1      41.305  -7.572   5.481  1.00  0.00     0.034 C 
ENDBRANCH  19  21
BRANCH  19  23
HETATM   23  C   UNL     1      40.552  -8.883   3.137  1.00  0.00     0.230 C 
HETATM   24  C   UNL     1      40.236  -9.752   1.934  1.00  0.00     0.034 C 
ENDBRANCH  19  23
ENDBRANCH  18  19
ENDBRANCH  17  18
ENDBRANCH  14  17
ENDBRANCH   1  13
BRANCH   1  25
HETATM   25  O   UNL     1      43.036 -14.282   6.535  1.00  0.00    -0.359 OA
HETATM   26  H   UNL     1      43.734 -13.674   6.849  1.00  0.00     0.213 HD
ENDBRANCH   1  25
BRANCH   2  27
HETATM   27  C   UNL     1      43.957 -11.710   5.886  1.00  0.00     0.043 A 
HETATM   28  C   UNL     1      43.149 -10.873   6.672  1.00  0.00     0.037 A 
HETATM   29  C   UNL     1      43.678 -10.085   7.711  1.00  0.00    -0.054 A 
HETATM   30  C   UNL     1      42.748  -9.232   8.531  1.00  0.00     0.049 C 
HETATM   31  C   UNL     1      45.057 -10.133   7.974  1.00  0.00    -0.056 A 
HETATM   32  C   UNL     1      45.673  -9.353   9.104  1.00  0.00     0.049 C 
HETATM   33  C   UNL     1      45.863 -10.987   7.211  1.00  0.00     0.009 A 
HETATM   34  C   UNL     1      45.318 -11.769   6.185  1.00  0.00     0.030 A 
ENDBRANCH   2  27
TORSDOF 8
ENDMDL
MODEL 7
REMARK VINA RESULT:      -7.1      1.445      2.166
REMARK  8 active torsions:
REMARK  status: ('A' for Active; 'I' for Inactive)
REMARK    1  A    between atoms: C_2  and  N_3 
REMARK    2  A    between atoms: N_3  and  C_5 
REMARK    3  A    between atoms: N_3  and  C_30 
REMARK    4  A    between atoms: C_5  and  C_6 
REMARK    5  A    between atoms: C_6  and  N_7 
REMARK       I    between atoms: N_7  and  C_8 
REMARK    6  A    between atoms: C_8  and  C_9 
REMARK    7  A    between atoms: C_9  and  O_10 
REMARK    8  A    between atoms: N_11  and  C_12 
ROOT
HETATM    1  C   UNL     1      42.507 -13.789   5.138  1.00  0.00     0.256 C 
HETATM    2  N   UNL     1      43.297 -12.579   4.883  1.00  0.00    -0.254 N 
HETATM    3  C   UNL     1      43.400 -12.144   3.563  1.00  0.00     0.330 C 
HETATM    4  O   UNL     1      43.641 -11.001   3.184  1.00  0.00    -0.246 OA
HETATM    5  N   UNL     1      43.286 -13.118   2.595  1.00  0.00    -0.308 N 
HETATM    6  C   UNL     1      43.176 -14.483   2.855  1.00  0.00     0.048 A 
HETATM    7  C   UNL     1      42.814 -14.881   4.141  1.00  0.00     0.034 A 
HETATM    8  C   UNL     1      43.381 -15.414   1.840  1.00  0.00     0.030 A 
HETATM    9  C   UNL     1      43.245 -16.773   2.121  1.00  0.00     0.002 A 
HETATM   10  C   UNL     1      42.892 -17.189   3.404  1.00  0.00     0.001 A 
HETATM   11  C   UNL     1      42.670 -16.249   4.411  1.00  0.00     0.015 A 
HETATM   12  H   UNL     1      43.552 -12.802   1.669  1.00  0.00     0.170 HD
ENDROOT
BRANCH   1  13
HETATM   13  C   UNL     1      40.969 -13.365   5.081  1.00  0.00     0.279 C 
HETATM   14  N   UNL     1      40.504 -12.710   3.951  1.00  0.00    -0.355 N 
HETATM   15  H   UNL     1      41.115 -12.663   3.142  1.00  0.00     0.162 HD
HETATM   16  O   UNL     1      40.205 -13.547   6.036  1.00  0.00    -0.268 OA
BRANCH  14  17
HETATM   17  C   UNL     1      39.089 -12.458   3.760  1.00  0.00     0.150 C 
BRANCH  17  18
HETATM   18  C   UNL     1      38.726 -12.049   2.320  1.00  0.00     0.254 C 
BRANCH  18  19
HETATM   19  N   UNL     1      37.871 -10.784   2.239  1.00  0.00    -0.070 N 
HETATM   20  H   UNL     1      36.959 -11.058   2.630  1.00  0.00     0.279 HD
BRANCH  19  21
HETATM   21  C   UNL     1      37.576 -10.319   0.820  1.00  0.00     0.230 C 
HETATM   22  C   UNL     1      36.107  -9.996   0.629  1.00  0.00     0.034 C 
ENDBRANCH  19  21
BRANCH  19  23
HETATM   23  C   UNL     1      38.351  -9.623   3.091  1.00  0.00     0.230 C 
HETATM   24  C   UNL     1      39.336  -8.745   2.343  1.00  0.00     0.034 C 
ENDBRANCH  19  23
ENDBRANCH  18  19
ENDBRANCH  17  18
ENDBRANCH  14  17
ENDBRANCH   1  13
BRANCH   1  25
HETATM   25  O   UNL     1      42.710 -14.311   6.451  1.00  0.00    -0.359 OA
HETATM   26  H   UNL     1      41.817 -14.535   6.778  1.00  0.00     0.213 HD
ENDBRANCH   1  25
BRANCH   2  27
HETATM   27  C   UNL     1      43.840 -11.791   5.947  1.00  0.00     0.043 A 
HETATM   28  C   UNL     1      43.003 -10.953   6.700  1.00  0.00     0.037 A 
HETATM   29  C   UNL     1      43.477 -10.217   7.802  1.00  0.00    -0.054 A 
HETATM   30  C   UNL     1      42.516  -9.360   8.580  1.00  0.00     0.049 C 
HETATM   31  C   UNL     1      44.830 -10.320   8.164  1.00  0.00    -0.056 A 
HETATM   32  C   UNL     1      45.384  -9.598   9.362  1.00  0.00     0.049 C 
HETATM   33  C   UNL     1      45.664 -11.177   7.432  1.00  0.00     0.009 A 
HETATM   34  C   UNL     1      45.173 -11.906   6.343  1.00  0.00     0.030 A 
ENDBRANCH   2  27
TORSDOF 8
ENDMDL
MODEL 8
REMARK VINA RESULT:      -7.0      2.950      7.218
REMARK  8 active torsions:
REMARK  status: ('A' for Active; 'I' for Inactive)
REMARK    1  A    between atoms: C_2  and  N_3 
REMARK    2  A    between atoms: N_3  and  C_5 
REMARK    3  A    between atoms: N_3  and  C_30 
REMARK    4  A    between atoms: C_5  and  C_6 
REMARK    5  A    between atoms: C_6  and  N_7 
REMARK       I    between atoms: N_7  and  C_8 
REMARK    6  A    between atoms: C_8  and  C_9 
REMARK    7  A    between atoms: C_9  and  O_10 
REMARK    8  A    between atoms: N_11  and  C_12 
ROOT
HETATM    1  C   UNL     1      39.802 -12.712   3.394  1.00  0.00     0.256 C 
HETATM    2  N   UNL     1      40.377 -12.364   2.090  1.00  0.00    -0.254 N 
HETATM    3  C   UNL     1      41.492 -11.527   2.082  1.00  0.00     0.330 C 
HETATM    4  O   UNL     1      42.340 -11.445   1.197  1.00  0.00    -0.246 OA
HETATM    5  N   UNL     1      41.605 -10.660   3.146  1.00  0.00    -0.308 N 
HETATM    6  C   UNL     1      40.649 -10.508   4.148  1.00  0.00     0.048 A 
HETATM    7  C   UNL     1      39.687 -11.507   4.298  1.00  0.00     0.034 A 
HETATM    8  C   UNL     1      40.687  -9.407   4.999  1.00  0.00     0.030 A 
HETATM    9  C   UNL     1      39.731  -9.288   6.008  1.00  0.00     0.002 A 
HETATM   10  C   UNL     1      38.757 -10.273   6.166  1.00  0.00     0.001 A 
HETATM   11  C   UNL     1      38.736 -11.384   5.320  1.00  0.00     0.015 A 
HETATM   12  H   UNL     1      42.314  -9.946   3.013  1.00  0.00     0.170 HD
ENDROOT
BRANCH   1  13
HETATM   13  C   UNL     1      40.739 -13.833   4.037  1.00  0.00     0.279 C 
HETATM   14  N   UNL     1      40.342 -15.158   3.948  1.00  0.00    -0.355 N 
HETATM   15  H   UNL     1      39.555 -15.381   3.346  1.00  0.00     0.162 HD
HETATM   16  O   UNL     1      41.767 -13.547   4.661  1.00  0.00    -0.268 OA
BRANCH  14  17
HETATM   17  C   UNL     1      41.226 -16.234   4.349  1.00  0.00     0.150 C 
BRANCH  17  18
HETATM   18  C   UNL     1      42.365 -16.502   3.347  1.00  0.00     0.254 C 
BRANCH  18  19
HETATM   19  N   UNL     1      43.593 -17.160   3.976  1.00  0.00    -0.070 N 
HETATM   20  H   UNL     1      44.376 -16.533   3.743  1.00  0.00     0.279 HD
BRANCH  19  21
HETATM   21  C   UNL     1      43.963 -18.505   3.367  1.00  0.00     0.230 C 
HETATM   22  C   UNL     1      43.056 -18.865   2.207  1.00  0.00     0.034 C 
ENDBRANCH  19  21
BRANCH  19  23
HETATM   23  C   UNL     1      43.576 -17.247   5.492  1.00  0.00     0.230 C 
HETATM   24  C   UNL     1      44.580 -16.300   6.120  1.00  0.00     0.034 C 
ENDBRANCH  19  23
ENDBRANCH  18  19
ENDBRANCH  17  18
ENDBRANCH  14  17
ENDBRANCH   1  13
BRANCH   1  25
HETATM   25  O   UNL     1      38.511 -13.312   3.283  1.00  0.00    -0.359 OA
HETATM   26  H   UNL     1      38.026 -12.757   2.642  1.00  0.00     0.213 HD
ENDBRANCH   1  25
BRANCH   2  27
HETATM   27  C   UNL     1      39.906 -12.953   0.873  1.00  0.00     0.043 A 
HETATM   28  C   UNL     1      39.054 -12.229   0.026  1.00  0.00     0.037 A 
HETATM   29  C   UNL     1      38.625 -12.736  -1.215  1.00  0.00    -0.054 A 
HETATM   30  C   UNL     1      37.733 -11.893  -2.084  1.00  0.00     0.049 C 
HETATM   31  C   UNL     1      39.062 -14.008  -1.622  1.00  0.00    -0.056 A 
HETATM   32  C   UNL     1      38.679 -14.583  -2.959  1.00  0.00     0.049 C 
HETATM   33  C   UNL     1      39.935 -14.723  -0.792  1.00  0.00     0.009 A 
HETATM   34  C   UNL     1      40.355 -14.199   0.436  1.00  0.00     0.030 A 
ENDBRANCH   2  27
TORSDOF 8
ENDMDL
MODEL 9
REMARK VINA RESULT:      -6.9      1.392      1.944
REMARK  8 active torsions:
REMARK  status: ('A' for Active; 'I' for Inactive)
REMARK    1  A    between atoms: C_2  and  N_3 
REMARK    2  A    between atoms: N_3  and  C_5 
REMARK    3  A    between atoms: N_3  and  C_30 
REMARK    4  A    between atoms: C_5  and  C_6 
REMARK    5  A    between atoms: C_6  and  N_7 
REMARK       I    between atoms: N_7  and  C_8 
REMARK    6  A    between atoms: C_8  and  C_9 
REMARK    7  A    between atoms: C_9  and  O_10 
REMARK    8  A    between atoms: N_11  and  C_12 
ROOT
HETATM    1  C   UNL     1      41.723 -13.559   4.466  1.00  0.00     0.256 C 
HETATM    2  N   UNL     1      42.806 -12.575   4.579  1.00  0.00    -0.254 N 
HETATM    3  C   UNL     1      43.538 -12.289   3.428  1.00  0.00     0.330 C 
HETATM    4  O   UNL     1      44.171 -11.262   3.199  1.00  0.00    -0.246 OA
HETATM    5  N   UNL     1      43.607 -13.294   2.490  1.00  0.00    -0.308 N 
HETATM    6  C   UNL     1      43.086 -14.576   2.663  1.00  0.00     0.048 A 
HETATM    7  C   UNL     1      42.147 -14.774   3.675  1.00  0.00     0.034 A 
HETATM    8  C   UNL     1      43.466 -15.613   1.815  1.00  0.00     0.030 A 
HETATM    9  C   UNL     1      42.914 -16.881   1.996  1.00  0.00     0.002 A 
HETATM   10  C   UNL     1      41.981 -17.099   3.009  1.00  0.00     0.001 A 
HETATM   11  C   UNL     1      41.591 -16.049   3.843  1.00  0.00     0.015 A 
HETATM   12  H   UNL     1      44.294 -13.124   1.763  1.00  0.00     0.170 HD
ENDROOT
BRANCH   1  13
HETATM   13  C   UNL     1      40.488 -12.819   3.776  1.00  0.00     0.279 C 
HETATM   14  N   UNL     1      40.742 -11.737   2.947  1.00  0.00    -0.355 N 
HETATM   15  H   UNL     1      41.706 -11.554   2.685  1.00  0.00     0.162 HD
HETATM   16  O   UNL     1      39.318 -13.142   4.012  1.00  0.00    -0.268 OA
BRANCH  14  17
HETATM   17  C   UNL     1      39.688 -11.136   2.154  1.00  0.00     0.150 C 
BRANCH  17  18
HETATM   18  C   UNL     1      39.831 -11.395   0.643  1.00  0.00     0.254 C 
BRANCH  18  19
HETATM   19  N   UNL     1      39.065 -12.625   0.156  1.00  0.00    -0.070 N 
HETATM   20  H   UNL     1      38.589 -12.987   0.994  1.00  0.00     0.279 HD
BRANCH  19  21
HETATM   21  C   UNL     1      39.952 -13.765  -0.326  1.00  0.00     0.230 C 
HETATM   22  C   UNL     1      39.967 -14.919   0.657  1.00  0.00     0.034 C 
ENDBRANCH  19  21
BRANCH  19  23
HETATM   23  C   UNL     1      37.964 -12.345  -0.851  1.00  0.00     0.230 C 
HETATM   24  C   UNL     1      37.889 -10.872  -1.207  1.00  0.00     0.034 C 
ENDBRANCH  19  23
ENDBRANCH  18  19
ENDBRANCH  17  18
ENDBRANCH  14  17
ENDBRANCH   1  13
BRANCH   1  25
HETATM   25  O   UNL     1      41.243 -13.997   5.737  1.00  0.00    -0.359 OA
HETATM   26  H   UNL     1      40.500 -13.400   5.949  1.00  0.00     0.213 HD
ENDBRANCH   1  25
BRANCH   2  27
HETATM   27  C   UNL     1      43.033 -11.834   5.783  1.00  0.00     0.043 A 
HETATM   28  C   UNL     1      42.195 -10.759   6.116  1.00  0.00     0.037 A 
HETATM   29  C   UNL     1      42.332 -10.049   7.323  1.00  0.00    -0.054 A 
HETATM   30  C   UNL     1      41.380  -8.925   7.626  1.00  0.00     0.049 C 
HETATM   31  C   UNL     1      43.340 -10.425   8.227  1.00  0.00    -0.056 A 
HETATM   32  C   UNL     1      43.504  -9.738   9.556  1.00  0.00     0.049 C 
HETATM   33  C   UNL     1      44.161 -11.515   7.912  1.00  0.00     0.009 A 
HETATM   34  C   UNL     1      44.005 -12.213   6.709  1.00  0.00     0.030 A 
ENDBRANCH   2  27
TORSDOF 8
ENDMDL
MODEL 10
REMARK VINA RESULT:      -6.9      2.748      7.423
REMARK  8 active torsions:
REMARK  status: ('A' for Active; 'I' for Inactive)
REMARK    1  A    between atoms: C_2  and  N_3 
REMARK    2  A    between atoms: N_3  and  C_5 
REMARK    3  A    between atoms: N_3  and  C_30 
REMARK    4  A    between atoms: C_5  and  C_6 
REMARK    5  A    between atoms: C_6  and  N_7 
REMARK       I    between atoms: N_7  and  C_8 
REMARK    6  A    between atoms: C_8  and  C_9 
REMARK    7  A    between atoms: C_9  and  O_10 
REMARK    8  A    between atoms: N_11  and  C_12 
ROOT
HETATM    1  C   UNL     1      40.309 -13.451   2.564  1.00  0.00     0.256 C 
HETATM    2  N   UNL     1      40.312 -12.695   1.306  1.00  0.00    -0.254 N 
HETATM    3  C   UNL     1      41.067 -11.524   1.262  1.00  0.00     0.330 C 
HETATM    4  O   UNL     1      41.526 -10.986   0.258  1.00  0.00    -0.246 OA
HETATM    5  N   UNL     1      41.250 -10.877   2.463  1.00  0.00    -0.308 N 
HETATM    6  C   UNL     1      40.660 -11.260   3.667  1.00  0.00     0.048 A 
HETATM    7  C   UNL     1      40.137 -12.549   3.763  1.00  0.00     0.034 A 
HETATM    8  C   UNL     1      40.639 -10.388   4.752  1.00  0.00     0.030 A 
HETATM    9  C   UNL     1      40.063 -10.803   5.952  1.00  0.00     0.002 A 
HETATM   10  C   UNL     1      39.525 -12.086   6.062  1.00  0.00     0.001 A 
HETATM   11  C   UNL     1      39.567 -12.960   4.975  1.00  0.00     0.015 A 
HETATM   12  H   UNL     1      41.635  -9.943   2.367  1.00  0.00     0.170 HD
ENDROOT
BRANCH   1  13
HETATM   13  C   UNL     1      41.689 -14.251   2.632  1.00  0.00     0.279 C 
HETATM   14  N   UNL     1      41.660 -15.593   2.978  1.00  0.00    -0.355 N 
HETATM   15  H   UNL     1      40.756 -16.055   3.022  1.00  0.00     0.162 HD
HETATM   16  O   UNL     1      42.777 -13.694   2.450  1.00  0.00    -0.268 OA
BRANCH  14  17
HETATM   17  C   UNL     1      42.849 -16.418   2.886  1.00  0.00     0.150 C 
BRANCH  17  18
HETATM   18  C   UNL     1      43.511 -16.698   4.247  1.00  0.00     0.254 C 
BRANCH  18  19
HETATM   19  N   UNL     1      42.844 -15.970   5.415  1.00  0.00    -0.070 N 
HETATM   20  H   UNL     1      41.935 -15.659   5.046  1.00  0.00     0.279 HD
BRANCH  19  21
HETATM   21  C   UNL     1      43.557 -14.698   5.850  1.00  0.00     0.230 C 
HETATM   22  C   UNL     1      42.732 -13.902   6.843  1.00  0.00     0.034 C 
ENDBRANCH  19  21
BRANCH  19  23
HETATM   23  C   UNL     1      42.522 -16.838   6.619  1.00  0.00     0.230 C 
HETATM   24  C   UNL     1      43.295 -18.143   6.594  1.00  0.00     0.034 C 
ENDBRANCH  19  23
ENDBRANCH  18  19
ENDBRANCH  17  18
ENDBRANCH  14  17
ENDBRANCH   1  13
BRANCH   1  25
HETATM   25  O   UNL     1      39.288 -14.449   2.604  1.00  0.00    -0.359 OA
HETATM   26  H   UNL     1      39.139 -14.698   1.671  1.00  0.00     0.213 HD
ENDBRANCH   1  25
BRANCH   2  27
HETATM   27  C   UNL     1      39.676 -13.190   0.123  1.00  0.00     0.043 A 
HETATM   28  C   UNL     1      38.713 -12.411  -0.536  1.00  0.00     0.037 A 
HETATM   29  C   UNL     1      38.115 -12.823  -1.741  1.00  0.00    -0.054 A 
HETATM   30  C   UNL     1      37.110 -11.923  -2.407  1.00  0.00     0.049 C 
HETATM   31  C   UNL     1      38.491 -14.053  -2.307  1.00  0.00    -0.056 A 
HETATM   32  C   UNL     1      37.926 -14.524  -3.620  1.00  0.00     0.049 C 
HETATM   33  C   UNL     1      39.473 -14.821  -1.667  1.00  0.00     0.009 A 
HETATM   34  C   UNL     1      40.060 -14.392  -0.472  1.00  0.00     0.030 A 
ENDBRANCH   2  27
TORSDOF 8
ENDMDL
