MODEL 1
REMARK VINA RESULT:      -8.7      0.000      0.000
REMARK  8 active torsions:
REMARK  status: ('A' for Active; 'I' for Inactive)
REMARK    1  A    between atoms: C_7  and  C_8 
REMARK    2  A    between atoms: C_8  and  O_9 
REMARK    3  A    between atoms: O_9  and  C_10 
REMARK    4  A    between atoms: C_12  and  C_13 
REMARK       I    between atoms: C_13  and  N_14 
REMARK    5  A    between atoms: N_14  and  C_15 
REMARK    6  A    between atoms: C_15  and  C_16 
REMARK    7  A    between atoms: C_17  and  C_18 
REMARK    8  A    between atoms: C_18  and  N_19 
ROOT
HETATM    1  C   UNL     1      41.912 -12.503   5.505  1.00  0.00     0.252 C 
HETATM    2  N   UNL     1      42.519 -12.136   6.694  1.00  0.00    -0.353 N 
HETATM    3  O   UNL     1      41.697 -11.704   4.601  1.00  0.00    -0.268 OA
HETATM    4  H   UNL     1      42.438 -12.782   7.471  1.00  0.00     0.163 HD
ENDROOT
BRANCH   1   5
HETATM    5  C   UNL     1      41.449 -13.910   5.418  1.00  0.00     0.034 A 
HETATM    6  C   UNL     1      41.813 -14.660   4.295  1.00  0.00     0.053 A 
HETATM    7  C   UNL     1      41.350 -15.969   4.136  1.00  0.00     0.070 A 
HETATM    8  C   UNL     1      40.558 -16.541   5.135  1.00  0.00     0.037 A 
HETATM    9  C   UNL     1      40.212 -15.799   6.270  1.00  0.00     0.004 A 
HETATM   10  C   UNL     1      40.648 -14.481   6.412  1.00  0.00     0.017 A 
BRANCH   7  11
HETATM   11  O   UNL     1      41.735 -16.570   2.972  1.00  0.00    -0.346 OA
BRANCH  11  12
HETATM   12  C   UNL     1      43.136 -16.766   2.760  1.00  0.00     0.219 C 
BRANCH  12  13
HETATM   13  C   UNL     1      43.617 -17.930   3.548  1.00  0.00     0.024 A 
HETATM   14  C   UNL     1      43.645 -19.302   3.181  1.00  0.00     0.069 A 
HETATM   15  C   UNL     1      43.194 -19.929   1.916  1.00  0.00     0.073 C 
HETATM   16  N   UNL     1      44.160 -20.060   4.155  1.00  0.00    -0.133 NA
HETATM   17  O   UNL     1      44.465 -19.194   5.185  1.00  0.00    -0.217 OA
HETATM   18  C   UNL     1      44.139 -17.927   4.824  1.00  0.00     0.085 A 
HETATM   19  C   UNL     1      44.397 -16.873   5.823  1.00  0.00     0.079 C 
ENDBRANCH  12  13
ENDBRANCH  11  12
ENDBRANCH   7  11
ENDBRANCH   1   5
BRANCH   2  20
HETATM   20  C   UNL     1      42.616 -10.730   6.993  1.00  0.00     0.162 C 
BRANCH  20  21
HETATM   21  C   UNL     1      44.011 -10.331   7.404  1.00  0.00    -0.033 A 
HETATM   22  C   UNL     1      44.297  -9.267   8.291  1.00  0.00    -0.025 A 
HETATM   23  C   UNL     1      45.646  -8.958   8.568  1.00  0.00     0.009 A 
HETATM   24  C   UNL     1      46.687  -9.690   8.000  1.00  0.00     0.001 A 
HETATM   25  C   UNL     1      46.404 -10.744   7.143  1.00  0.00     0.001 A 
HETATM   26  C   UNL     1      45.080 -11.061   6.846  1.00  0.00     0.009 A 
BRANCH  22  27
HETATM   27  C   UNL     1      43.226  -8.452   8.979  1.00  0.00     0.274 C 
BRANCH  27  28
HETATM   28  N   UNL     1      42.607  -9.139  10.179  1.00  0.00    -0.067 N 
HETATM   29  H   UNL     1      42.182 -10.009   9.840  1.00  0.00     0.280 HD
HETATM   30  C   UNL     1      41.530  -8.317  10.842  1.00  0.00     0.235 C 
HETATM   31  C   UNL     1      42.291  -7.478  11.845  1.00  0.00     0.029 C 
HETATM   32  C   UNL     1      43.453  -8.349  12.297  1.00  0.00     0.029 C 
HETATM   33  C   UNL     1      43.559  -9.488  11.295  1.00  0.00     0.235 C 
ENDBRANCH  27  28
ENDBRANCH  22  27
ENDBRANCH  20  21
ENDBRANCH   2  20
TORSDOF 8
ENDMDL
MODEL 2
REMARK VINA RESULT:      -8.7      2.468      8.589
REMARK  8 active torsions:
REMARK  status: ('A' for Active; 'I' for Inactive)
REMARK    1  A    between atoms: C_7  and  C_8 
REMARK    2  A    between atoms: C_8  and  O_9 
REMARK    3  A    between atoms: O_9  and  C_10 
REMARK    4  A    between atoms: C_12  and  C_13 
REMARK       I    between atoms: C_13  and  N_14 
REMARK    5  A    between atoms: N_14  and  C_15 
REMARK    6  A    between atoms: C_15  and  C_16 
REMARK    7  A    between atoms: C_17  and  C_18 
REMARK    8  A    between atoms: C_18  and  N_19 
ROOT
HETATM    1  C   UNL     1      42.233 -14.531   2.801  1.00  0.00     0.252 C 
HETATM    2  N   UNL     1      42.625 -15.769   3.279  1.00  0.00    -0.353 N 
HETATM    3  O   UNL     1      42.298 -14.233   1.614  1.00  0.00    -0.268 OA
HETATM    4  H   UNL     1      42.773 -15.851   4.279  1.00  0.00     0.163 HD
ENDROOT
BRANCH   1   5
HETATM    5  C   UNL     1      41.812 -13.542   3.823  1.00  0.00     0.034 A 
HETATM    6  C   UNL     1      42.794 -12.743   4.418  1.00  0.00     0.053 A 
HETATM    7  C   UNL     1      42.457 -11.840   5.430  1.00  0.00     0.070 A 
HETATM    8  C   UNL     1      41.120 -11.707   5.810  1.00  0.00     0.037 A 
HETATM    9  C   UNL     1      40.133 -12.489   5.199  1.00  0.00     0.004 A 
HETATM   10  C   UNL     1      40.476 -13.413   4.211  1.00  0.00     0.017 A 
BRANCH   7  11
HETATM   11  O   UNL     1      43.517 -11.162   5.962  1.00  0.00    -0.346 OA
BRANCH  11  12
HETATM   12  C   UNL     1      43.598 -11.073   7.387  1.00  0.00     0.219 C 
BRANCH  12  13
HETATM   13  C   UNL     1      43.924  -9.682   7.797  1.00  0.00     0.024 A 
HETATM   14  C   UNL     1      43.044  -8.588   8.011  1.00  0.00     0.069 A 
HETATM   15  C   UNL     1      41.568  -8.550   7.876  1.00  0.00     0.073 C 
HETATM   16  N   UNL     1      43.709  -7.488   8.383  1.00  0.00    -0.133 NA
HETATM   17  O   UNL     1      45.042  -7.843   8.403  1.00  0.00    -0.217 OA
HETATM   18  C   UNL     1      45.170  -9.148   8.052  1.00  0.00     0.085 A 
HETATM   19  C   UNL     1      46.542  -9.687   8.016  1.00  0.00     0.079 C 
ENDBRANCH  12  13
ENDBRANCH  11  12
ENDBRANCH   7  11
ENDBRANCH   1   5
BRANCH   2  20
HETATM   20  C   UNL     1      43.411 -16.609   2.411  1.00  0.00     0.162 C 
BRANCH  20  21
HETATM   21  C   UNL     1      43.579 -18.002   2.964  1.00  0.00    -0.033 A 
HETATM   22  C   UNL     1      43.983 -18.279   4.290  1.00  0.00    -0.025 A 
HETATM   23  C   UNL     1      44.148 -19.624   4.683  1.00  0.00     0.009 A 
HETATM   24  C   UNL     1      43.904 -20.672   3.796  1.00  0.00     0.001 A 
HETATM   25  C   UNL     1      43.491 -20.398   2.499  1.00  0.00     0.001 A 
HETATM   26  C   UNL     1      43.332 -19.077   2.087  1.00  0.00     0.009 A 
BRANCH  22  27
HETATM   27  C   UNL     1      44.228 -17.203   5.323  1.00  0.00     0.274 C 
BRANCH  27  28
HETATM   28  N   UNL     1      43.463 -17.405   6.615  1.00  0.00    -0.067 N 
HETATM   29  H   UNL     1      43.509 -18.407   6.837  1.00  0.00     0.280 HD
HETATM   30  C   UNL     1      42.011 -17.013   6.512  1.00  0.00     0.235 C 
HETATM   31  C   UNL     1      42.014 -15.542   6.866  1.00  0.00     0.029 C 
HETATM   32  C   UNL     1      43.135 -15.377   7.880  1.00  0.00     0.029 C 
HETATM   33  C   UNL     1      43.980 -16.640   7.807  1.00  0.00     0.235 C 
ENDBRANCH  27  28
ENDBRANCH  22  27
ENDBRANCH  20  21
ENDBRANCH   2  20
TORSDOF 8
ENDMDL
MODEL 3
REMARK VINA RESULT:      -8.5      2.599      9.164
REMARK  8 active torsions:
REMARK  status: ('A' for Active; 'I' for Inactive)
REMARK    1  A    between atoms: C_7  and  C_8 
REMARK    2  A    between atoms: C_8  and  O_9 
REMARK    3  A    between atoms: O_9  and  C_10 
REMARK    4  A    between atoms: C_12  and  C_13 
REMARK       I    between atoms: C_13  and  N_14 
REMARK    5  A    between atoms: N_14  and  C_15 
REMARK    6  A    between atoms: C_15  and  C_16 
REMARK    7  A    between atoms: C_17  and  C_18 
REMARK    8  A    between atoms: C_18  and  N_19 
ROOT
HETATM    1  C   UNL     1      42.589 -13.511   6.151  1.00  0.00     0.252 C 
HETATM    2  N   UNL     1      42.954 -14.828   5.934  1.00  0.00    -0.353 N 
HETATM    3  O   UNL     1      41.435 -13.117   6.024  1.00  0.00    -0.268 OA
HETATM    4  H   UNL     1      43.943 -15.019   5.818  1.00  0.00     0.163 HD
ENDROOT
BRANCH   1   5
HETATM    5  C   UNL     1      43.694 -12.572   6.461  1.00  0.00     0.034 A 
HETATM    6  C   UNL     1      43.858 -12.153   7.786  1.00  0.00     0.053 A 
HETATM    7  C   UNL     1      44.845 -11.221   8.119  1.00  0.00     0.070 A 
HETATM    8  C   UNL     1      45.701 -10.747   7.123  1.00  0.00     0.037 A 
HETATM    9  C   UNL     1      45.553 -11.181   5.801  1.00  0.00     0.004 A 
HETATM   10  C   UNL     1      44.546 -12.087   5.465  1.00  0.00     0.017 A 
BRANCH   7  11
HETATM   11  O   UNL     1      44.862 -10.859   9.436  1.00  0.00    -0.346 OA
BRANCH  11  12
HETATM   12  C   UNL     1      44.450  -9.530   9.763  1.00  0.00     0.219 C 
BRANCH  12  13
HETATM   13  C   UNL     1      42.980  -9.485   9.975  1.00  0.00     0.024 A 
HETATM   14  C   UNL     1      41.958  -9.142   9.049  1.00  0.00     0.069 A 
HETATM   15  C   UNL     1      42.095  -8.734   7.631  1.00  0.00     0.073 C 
HETATM   16  N   UNL     1      40.744  -9.225   9.606  1.00  0.00    -0.133 NA
HETATM   17  O   UNL     1      40.955  -9.610  10.914  1.00  0.00    -0.217 OA
HETATM   18  C   UNL     1      42.286  -9.762  11.134  1.00  0.00     0.085 A 
HETATM   19  C   UNL     1      42.684 -10.167  12.495  1.00  0.00     0.079 C 
ENDBRANCH  12  13
ENDBRANCH  11  12
ENDBRANCH   7  11
ENDBRANCH   1   5
BRANCH   2  20
HETATM   20  C   UNL     1      42.018 -15.681   5.246  1.00  0.00     0.162 C 
BRANCH  20  21
HETATM   21  C   UNL     1      42.710 -16.732   4.415  1.00  0.00    -0.033 A 
HETATM   22  C   UNL     1      42.423 -16.972   3.051  1.00  0.00    -0.025 A 
HETATM   23  C   UNL     1      43.105 -18.013   2.387  1.00  0.00     0.009 A 
HETATM   24  C   UNL     1      44.060 -18.787   3.044  1.00  0.00     0.001 A 
HETATM   25  C   UNL     1      44.353 -18.539   4.378  1.00  0.00     0.001 A 
HETATM   26  C   UNL     1      43.684 -17.523   5.057  1.00  0.00     0.009 A 
BRANCH  22  27
HETATM   27  C   UNL     1      41.432 -16.152   2.256  1.00  0.00     0.274 C 
BRANCH  27  28
HETATM   28  N   UNL     1      42.075 -15.191   1.277  1.00  0.00    -0.067 N 
HETATM   29  H   UNL     1      42.427 -15.752   0.493  1.00  0.00     0.280 HD
HETATM   30  C   UNL     1      43.235 -14.430   1.869  1.00  0.00     0.235 C 
HETATM   31  C   UNL     1      42.584 -13.209   2.481  1.00  0.00     0.029 C 
HETATM   32  C   UNL     1      41.398 -12.895   1.583  1.00  0.00     0.029 C 
HETATM   33  C   UNL     1      41.167 -14.125   0.718  1.00  0.00     0.235 C 
ENDBRANCH  27  28
ENDBRANCH  22  27
ENDBRANCH  20  21
ENDBRANCH   2  20
TORSDOF 8
ENDMDL
MODEL 4
REMARK VINA RESULT:      -8.5      2.516      9.228
REMARK  8 active torsions:
REMARK  status: ('A' for Active; 'I' for Inactive)
REMARK    1  A    between atoms: C_7  and  C_8 
REMARK    2  A    between atoms: C_8  and  O_9 
REMARK    3  A    between atoms: O_9  and  C_10 
REMARK    4  A    between atoms: C_12  and  C_13 
REMARK       I    between atoms: C_13  and  N_14 
REMARK    5  A    between atoms: N_14  and  C_15 
REMARK    6  A    between atoms: C_15  and  C_16 
REMARK    7  A    between atoms: C_17  and  C_18 
REMARK    8  A    between atoms: C_18  and  N_19 
ROOT
HETATM    1  C   UNL     1      42.541 -13.464   6.127  1.00  0.00     0.252 C 
HETATM    2  N   UNL     1      42.882 -14.796   5.973  1.00  0.00    -0.353 N 
HETATM    3  O   UNL     1      41.407 -13.046   5.925  1.00  0.00    -0.268 OA
HETATM    4  H   UNL     1      43.870 -15.016   5.917  1.00  0.00     0.163 HD
ENDROOT
BRANCH   1   5
HETATM    5  C   UNL     1      43.653 -12.543   6.466  1.00  0.00     0.034 A 
HETATM    6  C   UNL     1      43.801 -12.141   7.798  1.00  0.00     0.053 A 
HETATM    7  C   UNL     1      44.794 -11.226   8.158  1.00  0.00     0.070 A 
HETATM    8  C   UNL     1      45.673 -10.752   7.181  1.00  0.00     0.037 A 
HETATM    9  C   UNL     1      45.540 -11.169   5.852  1.00  0.00     0.004 A 
HETATM   10  C   UNL     1      44.527 -12.058   5.489  1.00  0.00     0.017 A 
BRANCH   7  11
HETATM   11  O   UNL     1      44.795 -10.879   9.479  1.00  0.00    -0.346 OA
BRANCH  11  12
HETATM   12  C   UNL     1      44.395  -9.548   9.814  1.00  0.00     0.219 C 
BRANCH  12  13
HETATM   13  C   UNL     1      42.926  -9.492  10.029  1.00  0.00     0.024 A 
HETATM   14  C   UNL     1      42.189  -9.768  11.212  1.00  0.00     0.069 A 
HETATM   15  C   UNL     1      42.697 -10.190  12.539  1.00  0.00     0.073 C 
HETATM   16  N   UNL     1      40.876  -9.600  11.022  1.00  0.00    -0.133 NA
HETATM   17  O   UNL     1      40.730  -9.225   9.703  1.00  0.00    -0.217 OA
HETATM   18  C   UNL     1      41.951  -9.163   9.111  1.00  0.00     0.085 A 
HETATM   19  C   UNL     1      41.971  -8.780   7.687  1.00  0.00     0.079 C 
ENDBRANCH  12  13
ENDBRANCH  11  12
ENDBRANCH   7  11
ENDBRANCH   1   5
BRANCH   2  20
HETATM   20  C   UNL     1      41.961 -15.648   5.264  1.00  0.00     0.162 C 
BRANCH  20  21
HETATM   21  C   UNL     1      42.671 -16.705   4.455  1.00  0.00    -0.033 A 
HETATM   22  C   UNL     1      42.411 -16.956   3.088  1.00  0.00    -0.025 A 
HETATM   23  C   UNL     1      43.108 -18.002   2.445  1.00  0.00     0.009 A 
HETATM   24  C   UNL     1      44.050 -18.769   3.128  1.00  0.00     0.001 A 
HETATM   25  C   UNL     1      44.316 -18.510   4.466  1.00  0.00     0.001 A 
HETATM   26  C   UNL     1      43.632 -17.490   5.123  1.00  0.00     0.009 A 
BRANCH  22  27
HETATM   27  C   UNL     1      41.436 -16.144   2.266  1.00  0.00     0.274 C 
BRANCH  27  28
HETATM   28  N   UNL     1      42.096 -15.195   1.287  1.00  0.00    -0.067 N 
HETATM   29  H   UNL     1      42.423 -15.762   0.496  1.00  0.00     0.280 HD
HETATM   30  C   UNL     1      43.285 -14.475   1.871  1.00  0.00     0.235 C 
HETATM   31  C   UNL     1      42.678 -13.239   2.499  1.00  0.00     0.029 C 
HETATM   32  C   UNL     1      41.492 -12.882   1.615  1.00  0.00     0.029 C 
HETATM   33  C   UNL     1      41.215 -14.099   0.745  1.00  0.00     0.235 C 
ENDBRANCH  27  28
ENDBRANCH  22  27
ENDBRANCH  20  21
ENDBRANCH   2  20
TORSDOF 8
ENDMDL
MODEL 5
REMARK VINA RESULT:      -8.4      1.594      2.353
REMARK  8 active torsions:
REMARK  status: ('A' for Active; 'I' for Inactive)
REMARK    1  A    between atoms: C_7  and  C_8 
REMARK    2  A    between atoms: C_8  and  O_9 
REMARK    3  A    between atoms: O_9  and  C_10 
REMARK    4  A    between atoms: C_12  and  C_13 
REMARK       I    between atoms: C_13  and  N_14 
REMARK    5  A    between atoms: N_14  and  C_15 
REMARK    6  A    between atoms: C_15  and  C_16 
REMARK    7  A    between atoms: C_17  and  C_18 
REMARK    8  A    between atoms: C_18  and  N_19 
ROOT
HETATM    1  C   UNL     1      40.197 -12.229   5.402  1.00  0.00     0.252 C 
HETATM    2  N   UNL     1      41.149 -11.224   5.394  1.00  0.00    -0.353 N 
HETATM    3  O   UNL     1      39.511 -12.479   6.386  1.00  0.00    -0.268 OA
HETATM    4  H   UNL     1      41.831 -11.242   4.645  1.00  0.00     0.163 HD
ENDROOT
BRANCH   1   5
HETATM    5  C   UNL     1      40.112 -13.055   4.173  1.00  0.00     0.034 A 
HETATM    6  C   UNL     1      40.537 -14.386   4.237  1.00  0.00     0.053 A 
HETATM    7  C   UNL     1      40.536 -15.187   3.092  1.00  0.00     0.070 A 
HETATM    8  C   UNL     1      40.059 -14.661   1.889  1.00  0.00     0.037 A 
HETATM    9  C   UNL     1      39.613 -13.335   1.829  1.00  0.00     0.004 A 
HETATM   10  C   UNL     1      39.645 -12.527   2.966  1.00  0.00     0.017 A 
BRANCH   7  11
HETATM   11  O   UNL     1      41.024 -16.449   3.281  1.00  0.00    -0.346 OA
BRANCH  11  12
HETATM   12  C   UNL     1      42.135 -16.856   2.478  1.00  0.00     0.219 C 
BRANCH  12  13
HETATM   13  C   UNL     1      43.101 -17.635   3.296  1.00  0.00     0.024 A 
HETATM   14  C   UNL     1      43.761 -17.255   4.496  1.00  0.00     0.069 A 
HETATM   15  C   UNL     1      43.658 -15.978   5.241  1.00  0.00     0.073 C 
HETATM   16  N   UNL     1      44.556 -18.230   4.948  1.00  0.00    -0.133 NA
HETATM   17  O   UNL     1      44.441 -19.263   4.040  1.00  0.00    -0.217 OA
HETATM   18  C   UNL     1      43.577 -18.906   3.055  1.00  0.00     0.085 A 
HETATM   19  C   UNL     1      43.347 -19.903   1.993  1.00  0.00     0.079 C 
ENDBRANCH  12  13
ENDBRANCH  11  12
ENDBRANCH   7  11
ENDBRANCH   1   5
BRANCH   2  20
HETATM   20  C   UNL     1      41.554 -10.671   6.662  1.00  0.00     0.162 C 
BRANCH  20  21
HETATM   21  C   UNL     1      43.043 -10.774   6.878  1.00  0.00    -0.033 A 
HETATM   22  C   UNL     1      43.738 -10.098   7.908  1.00  0.00    -0.025 A 
HETATM   23  C   UNL     1      45.140 -10.237   7.985  1.00  0.00     0.009 A 
HETATM   24  C   UNL     1      45.839 -11.034   7.080  1.00  0.00     0.001 A 
HETATM   25  C   UNL     1      45.153 -11.709   6.080  1.00  0.00     0.001 A 
HETATM   26  C   UNL     1      43.770 -11.580   5.978  1.00  0.00     0.009 A 
BRANCH  22  27
HETATM   27  C   UNL     1      43.050  -9.249   8.952  1.00  0.00     0.274 C 
BRANCH  27  28
HETATM   28  N   UNL     1      42.572 -10.026  10.161  1.00  0.00    -0.067 N 
HETATM   29  H   UNL     1      42.341 -10.972   9.836  1.00  0.00     0.280 HD
HETATM   30  C   UNL     1      41.341  -9.433  10.798  1.00  0.00     0.235 C 
HETATM   31  C   UNL     1      41.899  -8.436  11.789  1.00  0.00     0.029 C 
HETATM   32  C   UNL     1      43.211  -9.038  12.268  1.00  0.00     0.029 C 
HETATM   33  C   UNL     1      43.563 -10.150  11.290  1.00  0.00     0.235 C 
ENDBRANCH  27  28
ENDBRANCH  22  27
ENDBRANCH  20  21
ENDBRANCH   2  20
TORSDOF 8
ENDMDL
MODEL 6
REMARK VINA RESULT:      -8.2      2.627      9.726
REMARK  8 active torsions:
REMARK  status: ('A' for Active; 'I' for Inactive)
REMARK    1  A    between atoms: C_7  and  C_8 
REMARK    2  A    between atoms: C_8  and  O_9 
REMARK    3  A    between atoms: O_9  and  C_10 
REMARK    4  A    between atoms: C_12  and  C_13 
REMARK       I    between atoms: C_13  and  N_14 
REMARK    5  A    between atoms: N_14  and  C_15 
REMARK    6  A    between atoms: C_15  and  C_16 
REMARK    7  A    between atoms: C_17  and  C_18 
REMARK    8  A    between atoms: C_18  and  N_19 
ROOT
HETATM    1  C   UNL     1      42.959 -11.838   6.194  1.00  0.00     0.252 C 
HETATM    2  N   UNL     1      42.521 -12.998   6.808  1.00  0.00    -0.353 N 
HETATM    3  O   UNL     1      42.555 -11.482   5.093  1.00  0.00    -0.268 OA
HETATM    4  H   UNL     1      43.072 -13.345   7.585  1.00  0.00     0.163 HD
ENDROOT
BRANCH   1   5
HETATM    5  C   UNL     1      44.022 -11.087   6.905  1.00  0.00     0.034 A 
HETATM    6  C   UNL     1      43.660  -9.940   7.620  1.00  0.00     0.053 A 
HETATM    7  C   UNL     1      44.633  -9.163   8.254  1.00  0.00     0.070 A 
HETATM    8  C   UNL     1      45.969  -9.569   8.211  1.00  0.00     0.037 A 
HETATM    9  C   UNL     1      46.330 -10.729   7.515  1.00  0.00     0.004 A 
HETATM   10  C   UNL     1      45.361 -11.486   6.854  1.00  0.00     0.017 A 
BRANCH   7  11
HETATM   11  O   UNL     1      44.152  -8.043   8.871  1.00  0.00    -0.346 OA
BRANCH  11  12
HETATM   12  C   UNL     1      42.819  -8.092   9.386  1.00  0.00     0.219 C 
BRANCH  12  13
HETATM   13  C   UNL     1      42.842  -8.090  10.872  1.00  0.00     0.024 A 
HETATM   14  C   UNL     1      42.551  -7.023  11.764  1.00  0.00     0.069 A 
HETATM   15  C   UNL     1      42.156  -5.632  11.443  1.00  0.00     0.073 C 
HETATM   16  N   UNL     1      42.671  -7.406  13.041  1.00  0.00    -0.133 NA
HETATM   17  O   UNL     1      43.057  -8.730  13.003  1.00  0.00    -0.217 OA
HETATM   18  C   UNL     1      43.161  -9.136  11.711  1.00  0.00     0.085 A 
HETATM   19  C   UNL     1      43.575 -10.535  11.495  1.00  0.00     0.079 C 
ENDBRANCH  12  13
ENDBRANCH  11  12
ENDBRANCH   7  11
ENDBRANCH   1   5
BRANCH   2  20
HETATM   20  C   UNL     1      41.812 -13.960   6.003  1.00  0.00     0.162 C 
BRANCH  20  21
HETATM   21  C   UNL     1      42.644 -15.183   5.712  1.00  0.00    -0.033 A 
HETATM   22  C   UNL     1      42.284 -16.176   4.771  1.00  0.00    -0.025 A 
HETATM   23  C   UNL     1      43.122 -17.300   4.615  1.00  0.00     0.009 A 
HETATM   24  C   UNL     1      44.296 -17.435   5.355  1.00  0.00     0.001 A 
HETATM   25  C   UNL     1      44.656 -16.452   6.266  1.00  0.00     0.001 A 
HETATM   26  C   UNL     1      43.839 -15.338   6.444  1.00  0.00     0.009 A 
BRANCH  22  27
HETATM   27  C   UNL     1      41.051 -16.084   3.901  1.00  0.00     0.274 C 
BRANCH  27  28
HETATM   28  N   UNL     1      41.349 -16.011   2.417  1.00  0.00    -0.067 N 
HETATM   29  H   UNL     1      41.790 -16.901   2.157  1.00  0.00     0.280 HD
HETATM   30  C   UNL     1      42.295 -14.894   2.057  1.00  0.00     0.235 C 
HETATM   31  C   UNL     1      41.378 -13.713   1.824  1.00  0.00     0.029 C 
HETATM   32  C   UNL     1      40.098 -14.306   1.255  1.00  0.00     0.029 C 
HETATM   33  C   UNL     1      40.155 -15.803   1.521  1.00  0.00     0.235 C 
ENDBRANCH  27  28
ENDBRANCH  22  27
ENDBRANCH  20  21
ENDBRANCH   2  20
TORSDOF 8
ENDMDL
MODEL 7
REMARK VINA RESULT:      -8.2      1.936      3.204
REMARK  8 active torsions:
REMARK  status: ('A' for Active; 'I' for Inactive)
REMARK    1  A    between atoms: C_7  and  C_8 
REMARK    2  A    between atoms: C_8  and  O_9 
REMARK    3  A    between atoms: O_9  and  C_10 
REMARK    4  A    between atoms: C_12  and  C_13 
REMARK       I    between atoms: C_13  and  N_14 
REMARK    5  A    between atoms: N_14  and  C_15 
REMARK    6  A    between atoms: C_15  and  C_16 
REMARK    7  A    between atoms: C_17  and  C_18 
REMARK    8  A    between atoms: C_18  and  N_19 
ROOT
HETATM    1  C   UNL     1      44.282 -12.385   7.041  1.00  0.00     0.252 C 
HETATM    2  N   UNL     1      43.770 -11.652   8.098  1.00  0.00    -0.353 N 
HETATM    3  O   UNL     1      45.414 -12.210   6.605  1.00  0.00    -0.268 OA
HETATM    4  H   UNL     1      42.766 -11.681   8.235  1.00  0.00     0.163 HD
ENDROOT
BRANCH   1   5
HETATM    5  C   UNL     1      43.346 -13.339   6.398  1.00  0.00     0.034 A 
HETATM    6  C   UNL     1      43.645 -14.705   6.458  1.00  0.00     0.053 A 
HETATM    7  C   UNL     1      42.829 -15.639   5.815  1.00  0.00     0.070 A 
HETATM    8  C   UNL     1      41.682 -15.202   5.150  1.00  0.00     0.037 A 
HETATM    9  C   UNL     1      41.369 -13.838   5.107  1.00  0.00     0.004 A 
HETATM   10  C   UNL     1      42.203 -12.903   5.723  1.00  0.00     0.017 A 
BRANCH   7  11
HETATM   11  O   UNL     1      43.262 -16.931   5.908  1.00  0.00    -0.346 OA
BRANCH  11  12
HETATM   12  C   UNL     1      44.393 -17.308   5.119  1.00  0.00     0.219 C 
BRANCH  12  13
HETATM   13  C   UNL     1      43.981 -18.251   4.047  1.00  0.00     0.024 A 
HETATM   14  C   UNL     1      43.999 -19.672   4.057  1.00  0.00     0.069 A 
HETATM   15  C   UNL     1      44.440 -20.583   5.140  1.00  0.00     0.073 C 
HETATM   16  N   UNL     1      43.542 -20.176   2.906  1.00  0.00    -0.133 NA
HETATM   17  O   UNL     1      43.230 -19.089   2.115  1.00  0.00    -0.217 OA
HETATM   18  C   UNL     1      43.494 -17.943   2.795  1.00  0.00     0.085 A 
HETATM   19  C   UNL     1      43.221 -16.681   2.083  1.00  0.00     0.079 C 
ENDBRANCH  12  13
ENDBRANCH  11  12
ENDBRANCH   7  11
ENDBRANCH   1   5
BRANCH   2  20
HETATM   20  C   UNL     1      44.470 -10.455   8.488  1.00  0.00     0.162 C 
BRANCH  20  21
HETATM   21  C   UNL     1      43.942  -9.881   9.779  1.00  0.00    -0.033 A 
HETATM   22  C   UNL     1      43.601  -8.520   9.955  1.00  0.00    -0.025 A 
HETATM   23  C   UNL     1      43.157  -8.090  11.224  1.00  0.00     0.009 A 
HETATM   24  C   UNL     1      43.036  -8.982  12.288  1.00  0.00     0.001 A 
HETATM   25  C   UNL     1      43.356 -10.320  12.109  1.00  0.00     0.001 A 
HETATM   26  C   UNL     1      43.806 -10.765  10.868  1.00  0.00     0.009 A 
BRANCH  22  27
HETATM   27  C   UNL     1      43.665  -7.500   8.842  1.00  0.00     0.274 C 
BRANCH  27  28
HETATM   28  N   UNL     1      42.476  -7.537   7.903  1.00  0.00    -0.067 N 
HETATM   29  H   UNL     1      42.786  -8.009   7.047  1.00  0.00     0.280 HD
HETATM   30  C   UNL     1      41.973  -6.166   7.529  1.00  0.00     0.235 C 
HETATM   31  C   UNL     1      40.972  -5.845   8.617  1.00  0.00     0.029 C 
HETATM   32  C   UNL     1      40.357  -7.182   9.002  1.00  0.00     0.029 C 
HETATM   33  C   UNL     1      41.259  -8.260   8.421  1.00  0.00     0.235 C 
ENDBRANCH  27  28
ENDBRANCH  22  27
ENDBRANCH  20  21
ENDBRANCH   2  20
TORSDOF 8
ENDMDL
MODEL 8
REMARK VINA RESULT:      -8.2      2.562      9.533
REMARK  8 active torsions:
REMARK  status: ('A' for Active; 'I' for Inactive)
REMARK    1  A    between atoms: C_7  and  C_8 
REMARK    2  A    between atoms: C_8  and  O_9 
REMARK    3  A    between atoms: O_9  and  C_10 
REMARK    4  A    between atoms: C_12  and  C_13 
REMARK       I    between atoms: C_13  and  N_14 
REMARK    5  A    between atoms: N_14  and  C_15 
REMARK    6  A    between atoms: C_15  and  C_16 
REMARK    7  A    between atoms: C_17  and  C_18 
REMARK    8  A    between atoms: C_18  and  N_19 
ROOT
HETATM    1  C   UNL     1      42.920 -12.806   6.372  1.00  0.00     0.252 C 
HETATM    2  N   UNL     1      42.531 -13.878   7.156  1.00  0.00    -0.353 N 
HETATM    3  O   UNL     1      42.396 -12.554   5.293  1.00  0.00    -0.268 OA
HETATM    4  H   UNL     1      43.163 -14.160   7.896  1.00  0.00     0.163 HD
ENDROOT
BRANCH   1   5
HETATM    5  C   UNL     1      44.077 -12.022   6.869  1.00  0.00     0.034 A 
HETATM    6  C   UNL     1      44.066 -11.594   8.201  1.00  0.00     0.053 A 
HETATM    7  C   UNL     1      45.102 -10.800   8.700  1.00  0.00     0.070 A 
HETATM    8  C   UNL     1      46.177 -10.477   7.868  1.00  0.00     0.037 A 
HETATM    9  C   UNL     1      46.200 -10.923   6.542  1.00  0.00     0.004 A 
HETATM   10  C   UNL     1      45.149 -11.689   6.036  1.00  0.00     0.017 A 
BRANCH   7  11
HETATM   11  O   UNL     1      44.942 -10.408   9.998  1.00  0.00    -0.346 OA
BRANCH  11  12
HETATM   12  C   UNL     1      43.613 -10.380  10.522  1.00  0.00     0.219 C 
BRANCH  12  13
HETATM   13  C   UNL     1      43.239  -8.993  10.903  1.00  0.00     0.024 A 
HETATM   14  C   UNL     1      42.772  -8.509  12.155  1.00  0.00     0.069 A 
HETATM   15  C   UNL     1      42.531  -9.267  13.406  1.00  0.00     0.073 C 
HETATM   16  N   UNL     1      42.547  -7.191  12.119  1.00  0.00    -0.133 NA
HETATM   17  O   UNL     1      42.850  -6.792  10.833  1.00  0.00    -0.217 OA
HETATM   18  C   UNL     1      43.259  -7.866  10.110  1.00  0.00     0.085 A 
HETATM   19  C   UNL     1      43.616  -7.610   8.702  1.00  0.00     0.079 C 
ENDBRANCH  12  13
ENDBRANCH  11  12
ENDBRANCH   7  11
ENDBRANCH   1   5
BRANCH   2  20
HETATM   20  C   UNL     1      41.709 -14.893   6.547  1.00  0.00     0.162 C 
BRANCH  20  21
HETATM   21  C   UNL     1      42.522 -15.874   5.739  1.00  0.00    -0.033 A 
HETATM   22  C   UNL     1      42.112 -16.396   4.490  1.00  0.00    -0.025 A 
HETATM   23  C   UNL     1      42.938 -17.342   3.846  1.00  0.00     0.009 A 
HETATM   24  C   UNL     1      44.145 -17.752   4.410  1.00  0.00     0.001 A 
HETATM   25  C   UNL     1      44.553 -17.226   5.629  1.00  0.00     0.001 A 
HETATM   26  C   UNL     1      43.749 -16.299   6.287  1.00  0.00     0.009 A 
BRANCH  22  27
HETATM   27  C   UNL     1      40.840 -15.973   3.793  1.00  0.00     0.274 C 
BRANCH  27  28
HETATM   28  N   UNL     1      40.898 -14.582   3.197  1.00  0.00    -0.067 N 
HETATM   29  H   UNL     1      40.934 -13.921   3.981  1.00  0.00     0.280 HD
HETATM   30  C   UNL     1      39.692 -14.247   2.356  1.00  0.00     0.235 C 
HETATM   31  C   UNL     1      40.072 -14.741   0.977  1.00  0.00     0.029 C 
HETATM   32  C   UNL     1      41.577 -14.543   0.881  1.00  0.00     0.029 C 
HETATM   33  C   UNL     1      42.076 -14.305   2.298  1.00  0.00     0.235 C 
ENDBRANCH  27  28
ENDBRANCH  22  27
ENDBRANCH  20  21
ENDBRANCH   2  20
TORSDOF 8
ENDMDL
MODEL 9
REMARK VINA RESULT:      -8.1      1.460      1.984
REMARK  8 active torsions:
REMARK  status: ('A' for Active; 'I' for Inactive)
REMARK    1  A    between atoms: C_7  and  C_8 
REMARK    2  A    between atoms: C_8  and  O_9 
REMARK    3  A    between atoms: O_9  and  C_10 
REMARK    4  A    between atoms: C_12  and  C_13 
REMARK       I    between atoms: C_13  and  N_14 
REMARK    5  A    between atoms: N_14  and  C_15 
REMARK    6  A    between atoms: C_15  and  C_16 
REMARK    7  A    between atoms: C_17  and  C_18 
REMARK    8  A    between atoms: C_18  and  N_19 
ROOT
HETATM    1  C   UNL     1      40.623 -12.897   5.182  1.00  0.00     0.252 C 
HETATM    2  N   UNL     1      41.513 -11.847   5.327  1.00  0.00    -0.353 N 
HETATM    3  O   UNL     1      39.920 -13.298   6.102  1.00  0.00    -0.268 OA
HETATM    4  H   UNL     1      42.221 -11.740   4.609  1.00  0.00     0.163 HD
ENDROOT
BRANCH   1   5
HETATM    5  C   UNL     1      40.630 -13.578   3.864  1.00  0.00     0.034 A 
HETATM    6  C   UNL     1      41.039 -14.915   3.809  1.00  0.00     0.053 A 
HETATM    7  C   UNL     1      41.123 -15.582   2.584  1.00  0.00     0.070 A 
HETATM    8  C   UNL     1      40.747 -14.916   1.416  1.00  0.00     0.037 A 
HETATM    9  C   UNL     1      40.316 -13.585   1.471  1.00  0.00     0.004 A 
HETATM   10  C   UNL     1      40.264 -12.911   2.692  1.00  0.00     0.017 A 
BRANCH   7  11
HETATM   11  O   UNL     1      41.586 -16.865   2.666  1.00  0.00    -0.346 OA
BRANCH  11  12
HETATM   12  C   UNL     1      42.965 -17.091   2.367  1.00  0.00     0.219 C 
BRANCH  12  13
HETATM   13  C   UNL     1      43.525 -18.125   3.276  1.00  0.00     0.024 A 
HETATM   14  C   UNL     1      43.700 -19.516   3.040  1.00  0.00     0.069 A 
HETATM   15  C   UNL     1      43.363 -20.296   1.826  1.00  0.00     0.073 C 
HETATM   16  N   UNL     1      44.247 -20.127   4.097  1.00  0.00    -0.133 NA
HETATM   17  O   UNL     1      44.426 -19.145   5.050  1.00  0.00    -0.217 OA
HETATM   18  C   UNL     1      43.993 -17.954   4.561  1.00  0.00     0.085 A 
HETATM   19  C   UNL     1      44.108 -16.794   5.464  1.00  0.00     0.079 C 
ENDBRANCH  12  13
ENDBRANCH  11  12
ENDBRANCH   7  11
ENDBRANCH   1   5
BRANCH   2  20
HETATM   20  C   UNL     1      41.841 -11.424   6.665  1.00  0.00     0.162 C 
BRANCH  20  21
HETATM   21  C   UNL     1      43.324 -11.222   6.851  1.00  0.00    -0.033 A 
HETATM   22  C   UNL     1      43.890 -10.474   7.910  1.00  0.00    -0.025 A 
HETATM   23  C   UNL     1      45.292 -10.318   7.956  1.00  0.00     0.009 A 
HETATM   24  C   UNL     1      46.117 -10.897   6.993  1.00  0.00     0.001 A 
HETATM   25  C   UNL     1      45.560 -11.644   5.964  1.00  0.00     0.001 A 
HETATM   26  C   UNL     1      44.178 -11.804   5.893  1.00  0.00     0.009 A 
BRANCH  22  27
HETATM   27  C   UNL     1      43.069  -9.850   9.014  1.00  0.00     0.274 C 
BRANCH  27  28
HETATM   28  N   UNL     1      43.870  -9.492  10.249  1.00  0.00    -0.067 N 
HETATM   29  H   UNL     1      44.835  -9.326   9.943  1.00  0.00     0.280 HD
HETATM   30  C   UNL     1      43.888 -10.590  11.282  1.00  0.00     0.235 C 
HETATM   31  C   UNL     1      42.662 -10.307  12.123  1.00  0.00     0.029 C 
HETATM   32  C   UNL     1      42.515  -8.794  12.120  1.00  0.00     0.029 C 
HETATM   33  C   UNL     1      43.403  -8.272  11.000  1.00  0.00     0.235 C 
ENDBRANCH  27  28
ENDBRANCH  22  27
ENDBRANCH  20  21
ENDBRANCH   2  20
TORSDOF 8
ENDMDL
MODEL 10
REMARK VINA RESULT:      -8.1      2.943      9.792
REMARK  8 active torsions:
REMARK  status: ('A' for Active; 'I' for Inactive)
REMARK    1  A    between atoms: C_7  and  C_8 
REMARK    2  A    between atoms: C_8  and  O_9 
REMARK    3  A    between atoms: O_9  and  C_10 
REMARK    4  A    between atoms: C_12  and  C_13 
REMARK       I    between atoms: C_13  and  N_14 
REMARK    5  A    between atoms: N_14  and  C_15 
REMARK    6  A    between atoms: C_15  and  C_16 
REMARK    7  A    between atoms: C_17  and  C_18 
REMARK    8  A    between atoms: C_18  and  N_19 
ROOT
HETATM    1  C   UNL     1      42.864 -12.570   6.228  1.00  0.00     0.252 C 
HETATM    2  N   UNL     1      43.056 -13.878   5.820  1.00  0.00    -0.353 N 
HETATM    3  O   UNL     1      41.799 -11.983   6.081  1.00  0.00    -0.268 OA
HETATM    4  H   UNL     1      44.013 -14.204   5.751  1.00  0.00     0.163 HD
ENDROOT
BRANCH   1   5
HETATM    5  C   UNL     1      44.056 -11.878   6.778  1.00  0.00     0.034 A 
HETATM    6  C   UNL     1      44.030 -11.471   8.116  1.00  0.00     0.053 A 
HETATM    7  C   UNL     1      45.102 -10.761   8.663  1.00  0.00     0.070 A 
HETATM    8  C   UNL     1      46.225 -10.503   7.874  1.00  0.00     0.037 A 
HETATM    9  C   UNL     1      46.262 -10.929   6.541  1.00  0.00     0.004 A 
HETATM   10  C   UNL     1      45.177 -11.610   5.987  1.00  0.00     0.017 A 
BRANCH   7  11
HETATM   11  O   UNL     1      44.926 -10.379   9.963  1.00  0.00    -0.346 OA
BRANCH  11  12
HETATM   12  C   UNL     1      43.591 -10.367  10.474  1.00  0.00     0.219 C 
BRANCH  12  13
HETATM   13  C   UNL     1      43.213  -8.992  10.893  1.00  0.00     0.024 A 
HETATM   14  C   UNL     1      43.209  -7.797  10.124  1.00  0.00     0.069 A 
HETATM   15  C   UNL     1      43.587  -7.613   8.702  1.00  0.00     0.073 C 
HETATM   16  N   UNL     1      42.797  -6.750  10.847  1.00  0.00    -0.133 NA
HETATM   17  O   UNL     1      42.538  -7.242  12.110  1.00  0.00    -0.217 OA
HETATM   18  C   UNL     1      42.789  -8.576  12.137  1.00  0.00     0.085 A 
HETATM   19  C   UNL     1      42.568  -9.259  13.426  1.00  0.00     0.079 C 
ENDBRANCH  12  13
ENDBRANCH  11  12
ENDBRANCH   7  11
ENDBRANCH   1   5
BRANCH   2  20
HETATM   20  C   UNL     1      42.082 -14.454   4.928  1.00  0.00     0.162 C 
BRANCH  20  21
HETATM   21  C   UNL     1      42.661 -15.573   4.099  1.00  0.00    -0.033 A 
HETATM   22  C   UNL     1      42.692 -15.572   2.686  1.00  0.00    -0.025 A 
HETATM   23  C   UNL     1      43.221 -16.696   2.017  1.00  0.00     0.009 A 
HETATM   24  C   UNL     1      43.722 -17.789   2.723  1.00  0.00     0.001 A 
HETATM   25  C   UNL     1      43.704 -17.782   4.111  1.00  0.00     0.001 A 
HETATM   26  C   UNL     1      43.178 -16.687   4.792  1.00  0.00     0.009 A 
BRANCH  22  27
HETATM   27  C   UNL     1      42.208 -14.411   1.848  1.00  0.00     0.274 C 
BRANCH  27  28
HETATM   28  N   UNL     1      40.705 -14.223   1.867  1.00  0.00    -0.067 N 
HETATM   29  H   UNL     1      40.413 -14.246   2.850  1.00  0.00     0.280 HD
HETATM   30  C   UNL     1      39.963 -15.310   1.130  1.00  0.00     0.235 C 
HETATM   31  C   UNL     1      39.904 -14.798  -0.292  1.00  0.00     0.029 C 
HETATM   32  C   UNL     1      39.815 -13.285  -0.171  1.00  0.00     0.029 C 
HETATM   33  C   UNL     1      40.199 -12.939   1.260  1.00  0.00     0.235 C 
ENDBRANCH  27  28
ENDBRANCH  22  27
ENDBRANCH  20  21
ENDBRANCH   2  20
TORSDOF 8
ENDMDL
