MODEL 1
REMARK VINA RESULT:      -8.5      0.000      0.000
REMARK  5 active torsions:
REMARK  status: ('A' for Active; 'I' for Inactive)
REMARK    1  A    between atoms: O_2  and  C_3 
REMARK    2  A    between atoms: C_5  and  C_6 
REMARK    3  A    between atoms: C_12  and  C_13 
REMARK    4  A    between atoms: C_15  and  O_16 
REMARK    5  A    between atoms: C_18  and  O_19 
ROOT
HETATM    1  C   UNL     1      41.038 -14.850   4.369  1.00  0.00     0.098 A 
HETATM    2  N   UNL     1      40.095 -14.572   5.305  1.00  0.00    -0.173 NA
HETATM    3  N   UNL     1      40.686 -14.805   6.501  1.00  0.00    -0.272 N 
HETATM    4  H   UNL     1      40.161 -14.641   7.354  1.00  0.00     0.189 HD
HETATM    5  C   UNL     1      41.946 -15.233   6.347  1.00  0.00     0.128 A 
HETATM    6  C   UNL     1      42.207 -15.305   5.008  1.00  0.00     0.034 A 
HETATM    7  C   UNL     1      43.597 -15.770   4.800  1.00  0.00     0.156 A 
HETATM    8  N   UNL     1      44.029 -15.918   6.202  1.00  0.00    -0.343 N 
HETATM    9  C   UNL     1      43.049 -15.617   7.140  1.00  0.00     0.271 A 
HETATM   10  O   UNL     1      43.134 -15.689   8.351  1.00  0.00    -0.266 OA
HETATM   11  H   UNL     1      44.935 -16.266   6.483  1.00  0.00     0.163 HD
ENDROOT
BRANCH   7  12
HETATM   12  C   UNL     1      43.579 -17.090   4.068  1.00  0.00    -0.028 A 
HETATM   13  C   UNL     1      43.970 -18.302   4.680  1.00  0.00     0.049 A 
HETATM   14  C   UNL     1      43.980 -19.500   3.963  1.00  0.00     0.101 A 
HETATM   15  C   UNL     1      43.596 -19.482   2.619  1.00  0.00     0.099 A 
HETATM   16  C   UNL     1      43.207 -18.308   1.990  1.00  0.00     0.040 A 
HETATM   17  C   UNL     1      43.203 -17.115   2.712  1.00  0.00     0.012 A 
BRANCH  14  18
HETATM   18  O   UNL     1      44.346 -20.731   4.443  1.00  0.00    -0.353 OA
HETATM   19  C   UNL     1      43.977 -21.028   5.786  1.00  0.00     0.210 C 
ENDBRANCH  14  18
BRANCH  15  20
HETATM   20  O   UNL     1      43.602 -20.637   1.884  1.00  0.00    -0.358 OA
HETATM   21  H   UNL     1      43.980 -21.311   2.481  1.00  0.00     0.218 HD
ENDBRANCH  15  20
ENDBRANCH   7  12
BRANCH   1  22
HETATM   22  C   UNL     1      40.760 -14.651   2.942  1.00  0.00    -0.002 A 
HETATM   23  C   UNL     1      41.126 -13.444   2.316  1.00  0.00     0.050 A 
HETATM   24  C   UNL     1      40.890 -13.239   0.955  1.00  0.00     0.069 A 
HETATM   25  C   UNL     1      40.267 -14.241   0.210  1.00  0.00     0.037 A 
HETATM   26  C   UNL     1      39.905 -15.445   0.810  1.00  0.00     0.004 A 
HETATM   27  C   UNL     1      40.159 -15.653   2.168  1.00  0.00     0.014 A 
BRANCH  24  28
HETATM   28  O   UNL     1      41.213 -12.116   0.243  1.00  0.00    -0.356 OA
HETATM   29  C   UNL     1      40.910 -12.133  -1.148  1.00  0.00     0.210 C 
ENDBRANCH  24  28
ENDBRANCH   1  22
TORSDOF 5
ENDMDL
MODEL 2
REMARK VINA RESULT:      -8.4      1.623      6.277
REMARK  5 active torsions:
REMARK  status: ('A' for Active; 'I' for Inactive)
REMARK    1  A    between atoms: O_2  and  C_3 
REMARK    2  A    between atoms: C_5  and  C_6 
REMARK    3  A    between atoms: C_12  and  C_13 
REMARK    4  A    between atoms: C_15  and  O_16 
REMARK    5  A    between atoms: C_18  and  O_19 
ROOT
HETATM    1  C   UNL     1      42.732 -15.296   4.892  1.00  0.00     0.098 A 
HETATM    2  N   UNL     1      43.563 -14.668   5.764  1.00  0.00    -0.173 NA
HETATM    3  N   UNL     1      42.864 -13.610   6.238  1.00  0.00    -0.272 N 
HETATM    4  H   UNL     1      43.292 -13.002   6.930  1.00  0.00     0.189 HD
HETATM    5  C   UNL     1      41.645 -13.543   5.685  1.00  0.00     0.128 A 
HETATM    6  C   UNL     1      41.525 -14.578   4.801  1.00  0.00     0.034 A 
HETATM    7  C   UNL     1      40.184 -14.538   4.174  1.00  0.00     0.156 A 
HETATM    8  N   UNL     1      39.619 -13.358   4.856  1.00  0.00    -0.343 N 
HETATM    9  C   UNL     1      40.485 -12.741   5.749  1.00  0.00     0.271 A 
HETATM   10  O   UNL     1      40.281 -11.741   6.410  1.00  0.00    -0.266 OA
HETATM   11  H   UNL     1      38.705 -12.975   4.660  1.00  0.00     0.163 HD
ENDROOT
BRANCH   7  12
HETATM   12  C   UNL     1      40.333 -14.320   2.688  1.00  0.00    -0.028 A 
HETATM   13  C   UNL     1      40.829 -13.114   2.144  1.00  0.00     0.049 A 
HETATM   14  C   UNL     1      40.917 -12.930   0.763  1.00  0.00     0.101 A 
HETATM   15  C   UNL     1      40.501 -13.964  -0.081  1.00  0.00     0.099 A 
HETATM   16  C   UNL     1      40.010 -15.159   0.423  1.00  0.00     0.040 A 
HETATM   17  C   UNL     1      39.922 -15.335   1.804  1.00  0.00     0.012 A 
BRANCH  14  18
HETATM   18  O   UNL     1      41.371 -11.807   0.120  1.00  0.00    -0.353 OA
HETATM   19  C   UNL     1      41.383 -10.600   0.876  1.00  0.00     0.210 C 
ENDBRANCH  14  18
BRANCH  15  20
HETATM   20  O   UNL     1      40.566 -13.814  -1.440  1.00  0.00    -0.358 OA
HETATM   21  H   UNL     1      40.410 -12.862  -1.594  1.00  0.00     0.218 HD
ENDBRANCH  15  20
ENDBRANCH   7  12
BRANCH   1  22
HETATM   22  C   UNL     1      43.145 -16.534   4.222  1.00  0.00    -0.002 A 
HETATM   23  C   UNL     1      43.729 -17.575   4.969  1.00  0.00     0.050 A 
HETATM   24  C   UNL     1      44.113 -18.772   4.358  1.00  0.00     0.069 A 
HETATM   25  C   UNL     1      43.927 -18.927   2.984  1.00  0.00     0.037 A 
HETATM   26  C   UNL     1      43.343 -17.912   2.230  1.00  0.00     0.004 A 
HETATM   27  C   UNL     1      42.946 -16.725   2.848  1.00  0.00     0.014 A 
BRANCH  24  28
HETATM   28  O   UNL     1      44.676 -19.850   4.984  1.00  0.00    -0.356 OA
HETATM   29  C   UNL     1      43.829 -20.972   5.207  1.00  0.00     0.210 C 
ENDBRANCH  24  28
ENDBRANCH   1  22
TORSDOF 5
ENDMDL
MODEL 3
REMARK VINA RESULT:      -8.2      2.734      5.611
REMARK  5 active torsions:
REMARK  status: ('A' for Active; 'I' for Inactive)
REMARK    1  A    between atoms: O_2  and  C_3 
REMARK    2  A    between atoms: C_5  and  C_6 
REMARK    3  A    between atoms: C_12  and  C_13 
REMARK    4  A    between atoms: C_15  and  O_16 
REMARK    5  A    between atoms: C_18  and  O_19 
ROOT
HETATM    1  C   UNL     1      43.178 -15.052   6.584  1.00  0.00     0.098 A 
HETATM    2  N   UNL     1      42.853 -15.617   7.776  1.00  0.00    -0.173 NA
HETATM    3  N   UNL     1      42.983 -16.952   7.595  1.00  0.00    -0.272 N 
HETATM    4  H   UNL     1      42.805 -17.578   8.376  1.00  0.00     0.189 HD
HETATM    5  C   UNL     1      43.354 -17.242   6.341  1.00  0.00     0.128 A 
HETATM    6  C   UNL     1      43.463 -16.067   5.652  1.00  0.00     0.034 A 
HETATM    7  C   UNL     1      43.879 -16.349   4.259  1.00  0.00     0.156 A 
HETATM    8  N   UNL     1      43.986 -17.819   4.317  1.00  0.00    -0.343 N 
HETATM    9  C   UNL     1      43.658 -18.370   5.550  1.00  0.00     0.271 A 
HETATM   10  O   UNL     1      43.631 -19.548   5.852  1.00  0.00    -0.266 OA
HETATM   11  H   UNL     1      44.214 -18.403   3.525  1.00  0.00     0.163 HD
ENDROOT
BRANCH   7  12
HETATM   12  C   UNL     1      42.796 -15.894   3.311  1.00  0.00    -0.028 A 
HETATM   13  C   UNL     1      42.818 -14.625   2.689  1.00  0.00     0.049 A 
HETATM   14  C   UNL     1      41.780 -14.219   1.848  1.00  0.00     0.101 A 
HETATM   15  C   UNL     1      40.710 -15.092   1.630  1.00  0.00     0.099 A 
HETATM   16  C   UNL     1      40.661 -16.343   2.226  1.00  0.00     0.040 A 
HETATM   17  C   UNL     1      41.700 -16.741   3.067  1.00  0.00     0.012 A 
BRANCH  14  18
HETATM   18  O   UNL     1      41.685 -13.015   1.199  1.00  0.00    -0.353 OA
HETATM   19  C   UNL     1      41.696 -11.847   2.014  1.00  0.00     0.210 C 
ENDBRANCH  14  18
BRANCH  15  20
HETATM   20  O   UNL     1      39.672 -14.722   0.818  1.00  0.00    -0.358 OA
HETATM   21  H   UNL     1      38.874 -14.815   1.374  1.00  0.00     0.218 HD
ENDBRANCH  15  20
ENDBRANCH   7  12
BRANCH   1  22
HETATM   22  C   UNL     1      43.201 -13.593   6.427  1.00  0.00    -0.002 A 
HETATM   23  C   UNL     1      44.367 -12.872   6.746  1.00  0.00     0.050 A 
HETATM   24  C   UNL     1      44.421 -11.485   6.586  1.00  0.00     0.069 A 
HETATM   25  C   UNL     1      43.296 -10.807   6.118  1.00  0.00     0.037 A 
HETATM   26  C   UNL     1      42.135 -11.505   5.790  1.00  0.00     0.004 A 
HETATM   27  C   UNL     1      42.092 -12.893   5.935  1.00  0.00     0.014 A 
BRANCH  24  28
HETATM   28  O   UNL     1      45.500 -10.686   6.850  1.00  0.00    -0.356 OA
HETATM   29  C   UNL     1      45.791 -10.441   8.222  1.00  0.00     0.210 C 
ENDBRANCH  24  28
ENDBRANCH   1  22
TORSDOF 5
ENDMDL
MODEL 4
REMARK VINA RESULT:      -7.9      2.729      6.765
REMARK  5 active torsions:
REMARK  status: ('A' for Active; 'I' for Inactive)
REMARK    1  A    between atoms: O_2  and  C_3 
REMARK    2  A    between atoms: C_5  and  C_6 
REMARK    3  A    between atoms: C_12  and  C_13 
REMARK    4  A    between atoms: C_15  and  O_16 
REMARK    5  A    between atoms: C_18  and  O_19 
ROOT
HETATM    1  C   UNL     1      41.393 -15.906   2.018  1.00  0.00     0.098 A 
HETATM    2  N   UNL     1      40.260 -16.474   1.529  1.00  0.00    -0.173 NA
HETATM    3  N   UNL     1      39.615 -15.486   0.863  1.00  0.00    -0.272 N 
HETATM    4  H   UNL     1      38.739 -15.695   0.394  1.00  0.00     0.189 HD
HETATM    5  C   UNL     1      40.287 -14.330   0.934  1.00  0.00     0.128 A 
HETATM    6  C   UNL     1      41.411 -14.539   1.682  1.00  0.00     0.034 A 
HETATM    7  C   UNL     1      42.183 -13.280   1.777  1.00  0.00     0.156 A 
HETATM    8  N   UNL     1      41.324 -12.393   0.971  1.00  0.00    -0.343 N 
HETATM    9  C   UNL     1      40.178 -13.000   0.474  1.00  0.00     0.271 A 
HETATM   10  O   UNL     1      39.294 -12.488  -0.186  1.00  0.00    -0.266 OA
HETATM   11  H   UNL     1      41.500 -11.408   0.830  1.00  0.00     0.163 HD
ENDROOT
BRANCH   7  12
HETATM   12  C   UNL     1      42.256 -12.844   3.220  1.00  0.00    -0.028 A 
HETATM   13  C   UNL     1      41.137 -12.886   4.083  1.00  0.00     0.049 A 
HETATM   14  C   UNL     1      41.228 -12.439   5.402  1.00  0.00     0.101 A 
HETATM   15  C   UNL     1      42.452 -11.943   5.861  1.00  0.00     0.099 A 
HETATM   16  C   UNL     1      43.568 -11.889   5.038  1.00  0.00     0.040 A 
HETATM   17  C   UNL     1      43.468 -12.335   3.721  1.00  0.00     0.012 A 
BRANCH  14  18
HETATM   18  O   UNL     1      40.215 -12.422   6.325  1.00  0.00    -0.353 OA
HETATM   19  C   UNL     1      39.115 -11.560   6.050  1.00  0.00     0.210 C 
ENDBRANCH  14  18
BRANCH  15  20
HETATM   20  O   UNL     1      42.574 -11.488   7.146  1.00  0.00    -0.358 OA
HETATM   21  H   UNL     1      43.318 -10.856   7.118  1.00  0.00     0.218 HD
ENDBRANCH  15  20
ENDBRANCH   7  12
BRANCH   1  22
HETATM   22  C   UNL     1      42.375 -16.709   2.756  1.00  0.00    -0.002 A 
HETATM   23  C   UNL     1      42.863 -16.254   3.996  1.00  0.00     0.050 A 
HETATM   24  C   UNL     1      43.783 -17.010   4.728  1.00  0.00     0.069 A 
HETATM   25  C   UNL     1      44.233 -18.225   4.212  1.00  0.00     0.037 A 
HETATM   26  C   UNL     1      43.756 -18.694   2.991  1.00  0.00     0.004 A 
HETATM   27  C   UNL     1      42.824 -17.944   2.271  1.00  0.00     0.014 A 
BRANCH  24  28
HETATM   28  O   UNL     1      44.313 -16.673   5.944  1.00  0.00    -0.356 OA
HETATM   29  C   UNL     1      43.948 -15.402   6.469  1.00  0.00     0.210 C 
ENDBRANCH  24  28
ENDBRANCH   1  22
TORSDOF 5
ENDMDL
MODEL 5
REMARK VINA RESULT:      -7.8      2.833      6.904
REMARK  5 active torsions:
REMARK  status: ('A' for Active; 'I' for Inactive)
REMARK    1  A    between atoms: O_2  and  C_3 
REMARK    2  A    between atoms: C_5  and  C_6 
REMARK    3  A    between atoms: C_12  and  C_13 
REMARK    4  A    between atoms: C_15  and  O_16 
REMARK    5  A    between atoms: C_18  and  O_19 
ROOT
HETATM    1  C   UNL     1      41.238 -15.485   2.014  1.00  0.00     0.098 A 
HETATM    2  N   UNL     1      40.153 -16.064   1.437  1.00  0.00    -0.173 NA
HETATM    3  N   UNL     1      39.585 -15.099   0.675  1.00  0.00    -0.272 N 
HETATM    4  H   UNL     1      38.757 -15.321   0.130  1.00  0.00     0.189 HD
HETATM    5  C   UNL     1      40.257 -13.945   0.769  1.00  0.00     0.128 A 
HETATM    6  C   UNL     1      41.301 -14.132   1.631  1.00  0.00     0.034 A 
HETATM    7  C   UNL     1      42.071 -12.874   1.754  1.00  0.00     0.156 A 
HETATM    8  N   UNL     1      41.304 -12.013   0.835  1.00  0.00    -0.343 N 
HETATM    9  C   UNL     1      40.206 -12.632   0.251  1.00  0.00     0.271 A 
HETATM   10  O   UNL     1      39.395 -12.141  -0.511  1.00  0.00    -0.266 OA
HETATM   11  H   UNL     1      41.502 -11.036   0.676  1.00  0.00     0.163 HD
ENDROOT
BRANCH   7  12
HETATM   12  C   UNL     1      42.007 -12.385   3.181  1.00  0.00    -0.028 A 
HETATM   13  C   UNL     1      43.141 -11.896   3.867  1.00  0.00     0.049 A 
HETATM   14  C   UNL     1      43.055 -11.488   5.200  1.00  0.00     0.101 A 
HETATM   15  C   UNL     1      41.821 -11.573   5.851  1.00  0.00     0.099 A 
HETATM   16  C   UNL     1      40.690 -12.048   5.204  1.00  0.00     0.040 A 
HETATM   17  C   UNL     1      40.784 -12.456   3.874  1.00  0.00     0.012 A 
BRANCH  14  18
HETATM   18  O   UNL     1      44.083 -11.007   5.970  1.00  0.00    -0.353 OA
HETATM   19  C   UNL     1      44.988 -11.970   6.500  1.00  0.00     0.210 C 
ENDBRANCH  14  18
BRANCH  15  20
HETATM   20  O   UNL     1      41.704 -11.189   7.159  1.00  0.00    -0.358 OA
HETATM   21  H   UNL     1      41.522 -12.015   7.647  1.00  0.00     0.218 HD
ENDBRANCH  15  20
ENDBRANCH   7  12
BRANCH   1  22
HETATM   22  C   UNL     1      42.135 -16.265   2.874  1.00  0.00    -0.002 A 
HETATM   23  C   UNL     1      42.741 -17.435   2.379  1.00  0.00     0.050 A 
HETATM   24  C   UNL     1      43.614 -18.184   3.172  1.00  0.00     0.069 A 
HETATM   25  C   UNL     1      43.875 -17.771   4.479  1.00  0.00     0.037 A 
HETATM   26  C   UNL     1      43.291 -16.611   4.983  1.00  0.00     0.004 A 
HETATM   27  C   UNL     1      42.432 -15.857   4.181  1.00  0.00     0.014 A 
BRANCH  24  28
HETATM   28  O   UNL     1      44.266 -19.325   2.793  1.00  0.00    -0.356 OA
HETATM   29  C   UNL     1      43.507 -20.281   2.060  1.00  0.00     0.210 C 
ENDBRANCH  24  28
ENDBRANCH   1  22
TORSDOF 5
ENDMDL
MODEL 6
REMARK VINA RESULT:      -7.8      1.947      5.964
REMARK  5 active torsions:
REMARK  status: ('A' for Active; 'I' for Inactive)
REMARK    1  A    between atoms: O_2  and  C_3 
REMARK    2  A    between atoms: C_5  and  C_6 
REMARK    3  A    between atoms: C_12  and  C_13 
REMARK    4  A    between atoms: C_15  and  O_16 
REMARK    5  A    between atoms: C_18  and  O_19 
ROOT
HETATM    1  C   UNL     1      42.631 -14.695   5.510  1.00  0.00     0.098 A 
HETATM    2  N   UNL     1      43.380 -13.885   6.303  1.00  0.00    -0.173 NA
HETATM    3  N   UNL     1      42.590 -12.823   6.590  1.00  0.00    -0.272 N 
HETATM    4  H   UNL     1      42.946 -12.090   7.196  1.00  0.00     0.189 HD
HETATM    5  C   UNL     1      41.394 -12.929   5.997  1.00  0.00     0.128 A 
HETATM    6  C   UNL     1      41.382 -14.089   5.275  1.00  0.00     0.034 A 
HETATM    7  C   UNL     1      40.069 -14.241   4.608  1.00  0.00     0.156 A 
HETATM    8  N   UNL     1      39.396 -13.020   5.087  1.00  0.00    -0.343 N 
HETATM    9  C   UNL     1      40.180 -12.215   5.904  1.00  0.00     0.271 A 
HETATM   10  O   UNL     1      39.880 -11.146   6.400  1.00  0.00    -0.266 OA
HETATM   11  H   UNL     1      38.467 -12.738   4.808  1.00  0.00     0.163 HD
ENDROOT
BRANCH   7  12
HETATM   12  C   UNL     1      40.264 -14.235   3.111  1.00  0.00    -0.028 A 
HETATM   13  C   UNL     1      40.744 -13.103   2.414  1.00  0.00     0.049 A 
HETATM   14  C   UNL     1      40.876 -13.117   1.024  1.00  0.00     0.101 A 
HETATM   15  C   UNL     1      40.520 -14.275   0.326  1.00  0.00     0.099 A 
HETATM   16  C   UNL     1      40.046 -15.401   0.982  1.00  0.00     0.040 A 
HETATM   17  C   UNL     1      39.915 -15.379   2.371  1.00  0.00     0.012 A 
BRANCH  14  18
HETATM   18  O   UNL     1      41.319 -12.083   0.240  1.00  0.00    -0.353 OA
HETATM   19  C   UNL     1      41.375 -10.798   0.850  1.00  0.00     0.210 C 
ENDBRANCH  14  18
BRANCH  15  20
HETATM   20  O   UNL     1      40.629 -14.320  -1.037  1.00  0.00    -0.358 OA
HETATM   21  H   UNL     1      41.590 -14.317  -1.212  1.00  0.00     0.218 HD
ENDBRANCH  15  20
ENDBRANCH   7  12
BRANCH   1  22
HETATM   22  C   UNL     1      43.156 -15.984   5.046  1.00  0.00    -0.002 A 
HETATM   23  C   UNL     1      42.792 -16.474   3.777  1.00  0.00     0.050 A 
HETATM   24  C   UNL     1      43.294 -17.689   3.305  1.00  0.00     0.069 A 
HETATM   25  C   UNL     1      44.156 -18.433   4.112  1.00  0.00     0.037 A 
HETATM   26  C   UNL     1      44.533 -17.960   5.366  1.00  0.00     0.004 A 
HETATM   27  C   UNL     1      44.042 -16.736   5.827  1.00  0.00     0.014 A 
BRANCH  24  28
HETATM   28  O   UNL     1      43.021 -18.254   2.089  1.00  0.00    -0.356 OA
HETATM   29  C   UNL     1      43.139 -19.671   2.002  1.00  0.00     0.210 C 
ENDBRANCH  24  28
ENDBRANCH   1  22
TORSDOF 5
ENDMDL
MODEL 7
REMARK VINA RESULT:      -7.7      2.685      7.204
REMARK  5 active torsions:
REMARK  status: ('A' for Active; 'I' for Inactive)
REMARK    1  A    between atoms: O_2  and  C_3 
REMARK    2  A    between atoms: C_5  and  C_6 
REMARK    3  A    between atoms: C_12  and  C_13 
REMARK    4  A    between atoms: C_15  and  O_16 
REMARK    5  A    between atoms: C_18  and  O_19 
ROOT
HETATM    1  C   UNL     1      42.734 -12.876   3.001  1.00  0.00     0.098 A 
HETATM    2  N   UNL     1      43.690 -12.043   3.490  1.00  0.00    -0.173 NA
HETATM    3  N   UNL     1      43.140 -10.805   3.471  1.00  0.00    -0.272 N 
HETATM    4  H   UNL     1      43.680 -10.018   3.817  1.00  0.00     0.189 HD
HETATM    5  C   UNL     1      41.896 -10.831   2.976  1.00  0.00     0.128 A 
HETATM    6  C   UNL     1      41.603 -12.122   2.636  1.00  0.00     0.034 A 
HETATM    7  C   UNL     1      40.229 -12.189   2.089  1.00  0.00     0.156 A 
HETATM    8  N   UNL     1      39.840 -10.770   2.201  1.00  0.00    -0.343 N 
HETATM    9  C   UNL     1      40.831  -9.942   2.713  1.00  0.00     0.271 A 
HETATM   10  O   UNL     1      40.781  -8.738   2.875  1.00  0.00    -0.266 OA
HETATM   11  H   UNL     1      38.958 -10.398   1.882  1.00  0.00     0.163 HD
ENDROOT
BRANCH   7  12
HETATM   12  C   UNL     1      40.283 -12.653   0.654  1.00  0.00    -0.028 A 
HETATM   13  C   UNL     1      40.749 -11.826  -0.393  1.00  0.00     0.049 A 
HETATM   14  C   UNL     1      40.749 -12.272  -1.716  1.00  0.00     0.101 A 
HETATM   15  C   UNL     1      40.277 -13.558  -1.992  1.00  0.00     0.099 A 
HETATM   16  C   UNL     1      39.814 -14.393  -0.986  1.00  0.00     0.040 A 
HETATM   17  C   UNL     1      39.814 -13.940   0.333  1.00  0.00     0.012 A 
BRANCH  14  18
HETATM   18  O   UNL     1      41.165 -11.561  -2.813  1.00  0.00    -0.353 OA
HETATM   19  C   UNL     1      40.666 -10.234  -2.940  1.00  0.00     0.210 C 
ENDBRANCH  14  18
BRANCH  15  20
HETATM   20  O   UNL     1      40.255 -14.024  -3.279  1.00  0.00    -0.358 OA
HETATM   21  H   UNL     1      40.843 -13.421  -3.773  1.00  0.00     0.218 HD
ENDBRANCH  15  20
ENDBRANCH   7  12
BRANCH   1  22
HETATM   22  C   UNL     1      42.967 -14.323   2.929  1.00  0.00    -0.002 A 
HETATM   23  C   UNL     1      43.022 -15.085   4.112  1.00  0.00     0.050 A 
HETATM   24  C   UNL     1      43.222 -16.467   4.068  1.00  0.00     0.069 A 
HETATM   25  C   UNL     1      43.385 -17.095   2.834  1.00  0.00     0.037 A 
HETATM   26  C   UNL     1      43.326 -16.359   1.653  1.00  0.00     0.004 A 
HETATM   27  C   UNL     1      43.109 -14.980   1.700  1.00  0.00     0.014 A 
BRANCH  24  28
HETATM   28  O   UNL     1      43.281 -17.305   5.148  1.00  0.00    -0.356 OA
HETATM   29  C   UNL     1      43.948 -18.548   4.956  1.00  0.00     0.210 C 
ENDBRANCH  24  28
ENDBRANCH   1  22
TORSDOF 5
ENDMDL
MODEL 8
REMARK VINA RESULT:      -7.5      2.332      5.673
REMARK  5 active torsions:
REMARK  status: ('A' for Active; 'I' for Inactive)
REMARK    1  A    between atoms: O_2  and  C_3 
REMARK    2  A    between atoms: C_5  and  C_6 
REMARK    3  A    between atoms: C_12  and  C_13 
REMARK    4  A    between atoms: C_15  and  O_16 
REMARK    5  A    between atoms: C_18  and  O_19 
ROOT
HETATM    1  C   UNL     1      43.003 -15.614   5.558  1.00  0.00     0.098 A 
HETATM    2  N   UNL     1      42.796 -16.553   6.518  1.00  0.00    -0.173 NA
HETATM    3  N   UNL     1      42.976 -17.748   5.906  1.00  0.00    -0.272 N 
HETATM    4  H   UNL     1      42.888 -18.601   6.449  1.00  0.00     0.189 HD
HETATM    5  C   UNL     1      43.266 -17.592   4.607  1.00  0.00     0.128 A 
HETATM    6  C   UNL     1      43.267 -16.254   4.332  1.00  0.00     0.034 A 
HETATM    7  C   UNL     1      43.590 -16.045   2.902  1.00  0.00     0.156 A 
HETATM    8  N   UNL     1      43.772 -17.444   2.474  1.00  0.00    -0.343 N 
HETATM    9  C   UNL     1      43.565 -18.383   3.477  1.00  0.00     0.271 A 
HETATM   10  O   UNL     1      43.617 -19.594   3.381  1.00  0.00    -0.266 OA
HETATM   11  H   UNL     1      43.968 -17.725   1.524  1.00  0.00     0.163 HD
ENDROOT
BRANCH   7  12
HETATM   12  C   UNL     1      42.419 -15.386   2.215  1.00  0.00    -0.028 A 
HETATM   13  C   UNL     1      42.428 -14.024   1.839  1.00  0.00     0.049 A 
HETATM   14  C   UNL     1      41.313 -13.435   1.241  1.00  0.00     0.101 A 
HETATM   15  C   UNL     1      40.177 -14.218   1.018  1.00  0.00     0.099 A 
HETATM   16  C   UNL     1      40.137 -15.558   1.376  1.00  0.00     0.040 A 
HETATM   17  C   UNL     1      41.254 -16.139   1.976  1.00  0.00     0.012 A 
BRANCH  14  18
HETATM   18  O   UNL     1      41.200 -12.127   0.843  1.00  0.00    -0.353 OA
HETATM   19  C   UNL     1      41.779 -11.148   1.699  1.00  0.00     0.210 C 
ENDBRANCH  14  18
BRANCH  15  20
HETATM   20  O   UNL     1      39.063 -13.671   0.441  1.00  0.00    -0.358 OA
HETATM   21  H   UNL     1      38.312 -14.046   0.941  1.00  0.00     0.218 HD
ENDBRANCH  15  20
ENDBRANCH   7  12
BRANCH   1  22
HETATM   22  C   UNL     1      42.944 -14.185   5.882  1.00  0.00    -0.002 A 
HETATM   23  C   UNL     1      41.831 -13.420   5.485  1.00  0.00     0.050 A 
HETATM   24  C   UNL     1      41.741 -12.061   5.799  1.00  0.00     0.069 A 
HETATM   25  C   UNL     1      42.781 -11.454   6.503  1.00  0.00     0.037 A 
HETATM   26  C   UNL     1      43.887 -12.196   6.911  1.00  0.00     0.004 A 
HETATM   27  C   UNL     1      43.963 -13.557   6.610  1.00  0.00     0.014 A 
BRANCH  24  28
HETATM   28  O   UNL     1      40.706 -11.228   5.476  1.00  0.00    -0.356 OA
HETATM   29  C   UNL     1      39.652 -11.790   4.701  1.00  0.00     0.210 C 
ENDBRANCH  24  28
ENDBRANCH   1  22
TORSDOF 5
ENDMDL
MODEL 9
REMARK VINA RESULT:      -7.5      2.644      6.531
REMARK  5 active torsions:
REMARK  status: ('A' for Active; 'I' for Inactive)
REMARK    1  A    between atoms: O_2  and  C_3 
REMARK    2  A    between atoms: C_5  and  C_6 
REMARK    3  A    between atoms: C_12  and  C_13 
REMARK    4  A    between atoms: C_15  and  O_16 
REMARK    5  A    between atoms: C_18  and  O_19 
ROOT
HETATM    1  C   UNL     1      41.361 -15.684   2.562  1.00  0.00     0.098 A 
HETATM    2  N   UNL     1      40.105 -16.018   2.166  1.00  0.00    -0.173 NA
HETATM    3  N   UNL     1      39.524 -14.859   1.776  1.00  0.00    -0.272 N 
HETATM    4  H   UNL     1      38.574 -14.876   1.418  1.00  0.00     0.189 HD
HETATM    5  C   UNL     1      40.356 -13.820   1.929  1.00  0.00     0.128 A 
HETATM    6  C   UNL     1      41.527 -14.290   2.453  1.00  0.00     0.034 A 
HETATM    7  C   UNL     1      42.474 -13.167   2.631  1.00  0.00     0.156 A 
HETATM    8  N   UNL     1      41.651 -12.055   2.120  1.00  0.00    -0.343 N 
HETATM    9  C   UNL     1      40.376 -12.425   1.713  1.00  0.00     0.271 A 
HETATM   10  O   UNL     1      39.494 -11.703   1.287  1.00  0.00    -0.266 OA
HETATM   11  H   UNL     1      41.944 -11.089   2.115  1.00  0.00     0.163 HD
ENDROOT
BRANCH   7  12
HETATM   12  C   UNL     1      42.796 -13.010   4.097  1.00  0.00    -0.028 A 
HETATM   13  C   UNL     1      44.009 -12.445   4.552  1.00  0.00     0.049 A 
HETATM   14  C   UNL     1      44.292 -12.352   5.916  1.00  0.00     0.101 A 
HETATM   15  C   UNL     1      43.351 -12.830   6.833  1.00  0.00     0.099 A 
HETATM   16  C   UNL     1      42.152 -13.389   6.417  1.00  0.00     0.040 A 
HETATM   17  C   UNL     1      41.877 -13.482   5.053  1.00  0.00     0.012 A 
BRANCH  14  18
HETATM   18  O   UNL     1      45.433 -11.835   6.474  1.00  0.00    -0.353 OA
HETATM   19  C   UNL     1      45.367 -10.487   6.928  1.00  0.00     0.210 C 
ENDBRANCH  14  18
BRANCH  15  20
HETATM   20  O   UNL     1      43.601 -12.760   8.176  1.00  0.00    -0.358 OA
HETATM   21  H   UNL     1      44.378 -13.336   8.317  1.00  0.00     0.218 HD
ENDBRANCH  15  20
ENDBRANCH   7  12
BRANCH   1  22
HETATM   22  C   UNL     1      42.307 -16.715   3.002  1.00  0.00    -0.002 A 
HETATM   23  C   UNL     1      42.731 -16.752   4.344  1.00  0.00     0.050 A 
HETATM   24  C   UNL     1      43.616 -17.736   4.792  1.00  0.00     0.069 A 
HETATM   25  C   UNL     1      44.097 -18.684   3.889  1.00  0.00     0.037 A 
HETATM   26  C   UNL     1      43.683 -18.668   2.559  1.00  0.00     0.004 A 
HETATM   27  C   UNL     1      42.785 -17.693   2.120  1.00  0.00     0.014 A 
BRANCH  24  28
HETATM   28  O   UNL     1      44.084 -17.875   6.070  1.00  0.00    -0.356 OA
HETATM   29  C   UNL     1      43.471 -17.062   7.066  1.00  0.00     0.210 C 
ENDBRANCH  24  28
ENDBRANCH   1  22
TORSDOF 5
ENDMDL
MODEL 10
REMARK VINA RESULT:      -7.5      3.778      6.387
REMARK  5 active torsions:
REMARK  status: ('A' for Active; 'I' for Inactive)
REMARK    1  A    between atoms: O_2  and  C_3 
REMARK    2  A    between atoms: C_5  and  C_6 
REMARK    3  A    between atoms: C_12  and  C_13 
REMARK    4  A    between atoms: C_15  and  O_16 
REMARK    5  A    between atoms: C_18  and  O_19 
ROOT
HETATM    1  C   UNL     1      42.417 -11.057   5.209  1.00  0.00     0.098 A 
HETATM    2  N   UNL     1      42.263 -10.125   4.234  1.00  0.00    -0.173 NA
HETATM    3  N   UNL     1      41.191 -10.526   3.510  1.00  0.00    -0.272 N 
HETATM    4  H   UNL     1      40.878  -9.957   2.729  1.00  0.00     0.189 HD
HETATM    5  C   UNL     1      40.686 -11.674   3.982  1.00  0.00     0.128 A 
HETATM    6  C   UNL     1      41.449 -12.066   5.045  1.00  0.00     0.034 A 
HETATM    7  C   UNL     1      40.915 -13.332   5.595  1.00  0.00     0.156 A 
HETATM    8  N   UNL     1      39.768 -13.540   4.692  1.00  0.00    -0.343 N 
HETATM    9  C   UNL     1      39.627 -12.567   3.710  1.00  0.00     0.271 A 
HETATM   10  O   UNL     1      38.793 -12.520   2.827  1.00  0.00    -0.266 OA
HETATM   11  H   UNL     1      39.160 -14.346   4.724  1.00  0.00     0.163 HD
ENDROOT
BRANCH   7  12
HETATM   12  C   UNL     1      41.954 -14.418   5.455  1.00  0.00    -0.028 A 
HETATM   13  C   UNL     1      42.022 -15.261   4.323  1.00  0.00     0.049 A 
HETATM   14  C   UNL     1      42.971 -16.282   4.242  1.00  0.00     0.101 A 
HETATM   15  C   UNL     1      43.860 -16.460   5.307  1.00  0.00     0.099 A 
HETATM   16  C   UNL     1      43.818 -15.648   6.431  1.00  0.00     0.040 A 
HETATM   17  C   UNL     1      42.865 -14.633   6.506  1.00  0.00     0.012 A 
BRANCH  14  18
HETATM   18  O   UNL     1      43.128 -17.164   3.205  1.00  0.00    -0.353 OA
HETATM   19  C   UNL     1      43.202 -16.606   1.897  1.00  0.00     0.210 C 
ENDBRANCH  14  18
BRANCH  15  20
HETATM   20  O   UNL     1      44.797 -17.456   5.264  1.00  0.00    -0.358 OA
HETATM   21  H   UNL     1      44.373 -18.218   5.704  1.00  0.00     0.218 HD
ENDBRANCH  15  20
ENDBRANCH   7  12
BRANCH   1  22
HETATM   22  C   UNL     1      43.464 -10.912   6.227  1.00  0.00    -0.002 A 
HETATM   23  C   UNL     1      43.161 -10.318   7.467  1.00  0.00     0.050 A 
HETATM   24  C   UNL     1      44.135 -10.186   8.459  1.00  0.00     0.069 A 
HETATM   25  C   UNL     1      45.431 -10.637   8.208  1.00  0.00     0.037 A 
HETATM   26  C   UNL     1      45.748 -11.234   6.990  1.00  0.00     0.004 A 
HETATM   27  C   UNL     1      44.767 -11.379   6.008  1.00  0.00     0.014 A 
BRANCH  24  28
HETATM   28  O   UNL     1      43.951  -9.639   9.700  1.00  0.00    -0.356 OA
HETATM   29  C   UNL     1      43.819 -10.550  10.786  1.00  0.00     0.210 C 
ENDBRANCH  24  28
ENDBRANCH   1  22
TORSDOF 5
ENDMDL
