MODEL 1
REMARK VINA RESULT:      -7.7      0.000      0.000
REMARK  9 active torsions:
REMARK  status: ('A' for Active; 'I' for Inactive)
REMARK    1  A    between atoms: C_6  and  C_7 
REMARK    2  A    between atoms: C_7  and  C_8 
REMARK    3  A    between atoms: C_11  and  N_12 
REMARK       I    between atoms: N_12  and  C_13 
REMARK       I    between atoms: C_13  and  N_14 
REMARK    4  A    between atoms: N_14  and  C_15 
REMARK    5  A    between atoms: C_15  and  C_16 
REMARK    6  A    between atoms: C_16  and  C_17 
REMARK    7  A    between atoms: C_16  and  C_19 
REMARK    8  A    between atoms: C_17  and  O_18 
REMARK    9  A    between atoms: C_19  and  C_20 
ROOT
HETATM    1  N   UNL     1      42.911 -17.414   7.253  1.00  0.00    -0.309 N 
HETATM    2  C   UNL     1      43.376 -18.460   6.519  1.00  0.00     0.320 C 
HETATM    3  N   UNL     1      43.922 -18.196   5.303  1.00  0.00    -0.342 N 
HETATM    4  O   UNL     1      43.323 -19.594   6.992  1.00  0.00    -0.247 OA
HETATM    5  H   UNL     1      42.704 -17.713   8.200  1.00  0.00     0.170 HD
HETATM    6  H   UNL     1      44.359 -17.291   5.202  1.00  0.00     0.164 HD
ENDROOT
BRANCH   1   7
HETATM    7  C   UNL     1      42.563 -16.089   6.932  1.00  0.00     0.036 A 
HETATM    8  C   UNL     1      43.450 -15.012   6.915  1.00  0.00     0.030 A 
HETATM    9  C   UNL     1      43.012 -13.732   6.554  1.00  0.00     0.010 A 
HETATM   10  C   UNL     1      41.682 -13.511   6.175  1.00  0.00    -0.051 A 
HETATM   11  C   UNL     1      40.798 -14.595   6.162  1.00  0.00     0.010 A 
HETATM   12  C   UNL     1      41.237 -15.868   6.538  1.00  0.00     0.030 A 
BRANCH  10  13
HETATM   13  C   UNL     1      41.230 -12.142   5.719  1.00  0.00     0.118 C 
BRANCH  13  14
HETATM   14  C   UNL     1      41.558 -11.820   4.299  1.00  0.00     0.126 A 
HETATM   15  N   UNL     1      42.726 -11.238   3.887  1.00  0.00    -0.263 N 
HETATM   16  N   UNL     1      42.743 -11.055   2.558  1.00  0.00    -0.158 NA
HETATM   17  H   UNL     1      43.522 -10.944   4.442  1.00  0.00     0.190 HD
HETATM   18  C   UNL     1      41.553 -11.552   2.203  1.00  0.00     0.144 A 
HETATM   19  C   UNL     1      41.091 -11.588   0.803  1.00  0.00     0.095 C 
HETATM   20  N   UNL     1      40.799 -12.031   3.243  1.00  0.00    -0.217 NA
ENDBRANCH  13  14
ENDBRANCH  10  13
ENDBRANCH   1   7
BRANCH   3  21
HETATM   21  C   UNL     1      44.357 -19.254   4.410  1.00  0.00     0.131 C 
BRANCH  21  22
HETATM   22  C   UNL     1      43.995 -19.025   2.933  1.00  0.00     0.033 C 
BRANCH  22  23
HETATM   23  C   UNL     1      43.804 -20.349   2.178  1.00  0.00     0.170 C 
BRANCH  23  24
HETATM   24  O   UNL     1      44.058 -21.448   3.049  1.00  0.00    -0.400 OA
HETATM   25  H   UNL     1      44.708 -21.154   3.710  1.00  0.00     0.209 HD
ENDBRANCH  23  24
ENDBRANCH  22  23
BRANCH  22  26
HETATM   26  C   UNL     1      42.714 -18.173   2.803  1.00  0.00     0.073 C 
BRANCH  26  27
HETATM   27  C   UNL     1      42.975 -16.741   2.498  1.00  0.00     0.053 A 
HETATM   28  O   UNL     1      43.062 -15.895   3.563  1.00  0.00    -0.327 OA
HETATM   29  C   UNL     1      43.304 -14.656   3.064  1.00  0.00     0.142 A 
HETATM   30  C   UNL     1      43.369 -14.694   1.691  1.00  0.00     0.027 A 
HETATM   31  C   UNL     1      43.158 -16.045   1.323  1.00  0.00     0.034 A 
ENDBRANCH  26  27
ENDBRANCH  22  26
ENDBRANCH  21  22
ENDBRANCH   3  21
TORSDOF 9
ENDMDL
MODEL 2
REMARK VINA RESULT:      -7.5      2.183      3.137
REMARK  9 active torsions:
REMARK  status: ('A' for Active; 'I' for Inactive)
REMARK    1  A    between atoms: C_6  and  C_7 
REMARK    2  A    between atoms: C_7  and  C_8 
REMARK    3  A    between atoms: C_11  and  N_12 
REMARK       I    between atoms: N_12  and  C_13 
REMARK       I    between atoms: C_13  and  N_14 
REMARK    4  A    between atoms: N_14  and  C_15 
REMARK    5  A    between atoms: C_15  and  C_16 
REMARK    6  A    between atoms: C_16  and  C_17 
REMARK    7  A    between atoms: C_16  and  C_19 
REMARK    8  A    between atoms: C_17  and  O_18 
REMARK    9  A    between atoms: C_19  and  C_20 
ROOT
HETATM    1  N   UNL     1      43.008 -17.442   7.170  1.00  0.00    -0.309 N 
HETATM    2  C   UNL     1      43.390 -18.520   6.435  1.00  0.00     0.320 C 
HETATM    3  N   UNL     1      43.987 -18.297   5.234  1.00  0.00    -0.342 N 
HETATM    4  O   UNL     1      43.220 -19.649   6.893  1.00  0.00    -0.247 OA
HETATM    5  H   UNL     1      42.752 -17.729   8.108  1.00  0.00     0.170 HD
HETATM    6  H   UNL     1      44.509 -17.436   5.153  1.00  0.00     0.164 HD
ENDROOT
BRANCH   1   7
HETATM    7  C   UNL     1      42.794 -16.087   6.856  1.00  0.00     0.036 A 
HETATM    8  C   UNL     1      41.543 -15.498   6.668  1.00  0.00     0.030 A 
HETATM    9  C   UNL     1      41.434 -14.131   6.384  1.00  0.00     0.010 A 
HETATM   10  C   UNL     1      42.574 -13.321   6.312  1.00  0.00    -0.051 A 
HETATM   11  C   UNL     1      43.827 -13.903   6.530  1.00  0.00     0.010 A 
HETATM   12  C   UNL     1      43.932 -15.271   6.798  1.00  0.00     0.030 A 
BRANCH  10  13
HETATM   13  C   UNL     1      42.446 -11.833   6.075  1.00  0.00     0.118 C 
BRANCH  13  14
HETATM   14  C   UNL     1      43.216 -10.982   7.029  1.00  0.00     0.126 A 
HETATM   15  N   UNL     1      42.723 -10.504   8.212  1.00  0.00    -0.263 N 
HETATM   16  N   UNL     1      43.632  -9.759   8.860  1.00  0.00    -0.158 NA
HETATM   17  H   UNL     1      41.804 -10.637   8.620  1.00  0.00     0.190 HD
HETATM   18  C   UNL     1      44.674  -9.820   8.024  1.00  0.00     0.144 A 
HETATM   19  C   UNL     1      45.958  -9.149   8.302  1.00  0.00     0.095 C 
HETATM   20  N   UNL     1      44.458 -10.562   6.892  1.00  0.00    -0.217 NA
ENDBRANCH  13  14
ENDBRANCH  10  13
ENDBRANCH   1   7
BRANCH   3  21
HETATM   21  C   UNL     1      44.342 -19.383   4.340  1.00  0.00     0.131 C 
BRANCH  21  22
HETATM   22  C   UNL     1      44.066 -19.096   2.853  1.00  0.00     0.033 C 
BRANCH  22  23
HETATM   23  C   UNL     1      43.991 -20.387   2.025  1.00  0.00     0.170 C 
BRANCH  23  24
HETATM   24  O   UNL     1      42.653 -20.608   1.587  1.00  0.00    -0.400 OA
HETATM   25  H   UNL     1      42.300 -19.755   1.282  1.00  0.00     0.209 HD
ENDBRANCH  23  24
ENDBRANCH  22  23
BRANCH  22  26
HETATM   26  C   UNL     1      42.754 -18.299   2.679  1.00  0.00     0.073 C 
BRANCH  26  27
HETATM   27  C   UNL     1      42.963 -16.846   2.441  1.00  0.00     0.053 A 
HETATM   28  O   UNL     1      42.766 -16.017   3.504  1.00  0.00    -0.327 OA
HETATM   29  C   UNL     1      43.011 -14.755   3.071  1.00  0.00     0.142 A 
HETATM   30  C   UNL     1      43.357 -14.760   1.740  1.00  0.00     0.027 A 
HETATM   31  C   UNL     1      43.329 -16.115   1.331  1.00  0.00     0.034 A 
ENDBRANCH  26  27
ENDBRANCH  22  26
ENDBRANCH  21  22
ENDBRANCH   3  21
TORSDOF 9
ENDMDL
MODEL 3
REMARK VINA RESULT:      -7.4      2.691      6.527
REMARK  9 active torsions:
REMARK  status: ('A' for Active; 'I' for Inactive)
REMARK    1  A    between atoms: C_6  and  C_7 
REMARK    2  A    between atoms: C_7  and  C_8 
REMARK    3  A    between atoms: C_11  and  N_12 
REMARK       I    between atoms: N_12  and  C_13 
REMARK       I    between atoms: C_13  and  N_14 
REMARK    4  A    between atoms: N_14  and  C_15 
REMARK    5  A    between atoms: C_15  and  C_16 
REMARK    6  A    between atoms: C_16  and  C_17 
REMARK    7  A    between atoms: C_16  and  C_19 
REMARK    8  A    between atoms: C_17  and  O_18 
REMARK    9  A    between atoms: C_19  and  C_20 
ROOT
HETATM    1  N   UNL     1      40.381 -13.573   6.226  1.00  0.00    -0.309 N 
HETATM    2  C   UNL     1      39.639 -12.877   5.324  1.00  0.00     0.320 C 
HETATM    3  N   UNL     1      39.551 -13.361   4.057  1.00  0.00    -0.342 N 
HETATM    4  O   UNL     1      39.044 -11.864   5.691  1.00  0.00    -0.247 OA
HETATM    5  H   UNL     1      40.217 -13.221   7.162  1.00  0.00     0.170 HD
HETATM    6  H   UNL     1      39.631 -14.363   3.960  1.00  0.00     0.164 HD
ENDROOT
BRANCH   1   7
HETATM    7  C   UNL     1      41.376 -14.560   6.100  1.00  0.00     0.036 A 
HETATM    8  C   UNL     1      41.133 -15.927   5.970  1.00  0.00     0.030 A 
HETATM    9  C   UNL     1      42.194 -16.830   5.822  1.00  0.00     0.010 A 
HETATM   10  C   UNL     1      43.518 -16.376   5.773  1.00  0.00    -0.051 A 
HETATM   11  C   UNL     1      43.762 -15.002   5.873  1.00  0.00     0.010 A 
HETATM   12  C   UNL     1      42.701 -14.107   6.035  1.00  0.00     0.030 A 
BRANCH  10  13
HETATM   13  C   UNL     1      44.655 -17.346   5.543  1.00  0.00     0.118 C 
BRANCH  13  14
HETATM   14  C   UNL     1      44.300 -18.534   4.712  1.00  0.00     0.126 A 
HETATM   15  N   UNL     1      44.141 -19.802   5.201  1.00  0.00    -0.263 N 
HETATM   16  N   UNL     1      43.835 -20.672   4.226  1.00  0.00    -0.158 NA
HETATM   17  H   UNL     1      44.230 -20.133   6.156  1.00  0.00     0.190 HD
HETATM   18  C   UNL     1      43.814 -19.875   3.153  1.00  0.00     0.144 A 
HETATM   19  C   UNL     1      43.509 -20.372   1.798  1.00  0.00     0.095 C 
HETATM   20  N   UNL     1      44.093 -18.558   3.411  1.00  0.00    -0.217 NA
ENDBRANCH  13  14
ENDBRANCH  10  13
ENDBRANCH   1   7
BRANCH   3  21
HETATM   21  C   UNL     1      38.862 -12.639   3.004  1.00  0.00     0.131 C 
BRANCH  21  22
HETATM   22  C   UNL     1      39.535 -12.734   1.624  1.00  0.00     0.033 C 
BRANCH  22  23
HETATM   23  C   UNL     1      38.935 -11.735   0.624  1.00  0.00     0.170 C 
BRANCH  23  24
HETATM   24  O   UNL     1      37.950 -12.379  -0.179  1.00  0.00    -0.400 OA
HETATM   25  H   UNL     1      38.271 -13.278  -0.370  1.00  0.00     0.209 HD
ENDBRANCH  23  24
ENDBRANCH  22  23
BRANCH  22  26
HETATM   26  C   UNL     1      41.057 -12.496   1.734  1.00  0.00     0.073 C 
BRANCH  26  27
HETATM   27  C   UNL     1      41.850 -13.746   1.876  1.00  0.00     0.053 A 
HETATM   28  O   UNL     1      41.153 -14.917   1.861  1.00  0.00    -0.327 OA
HETATM   29  C   UNL     1      42.060 -15.918   1.999  1.00  0.00     0.142 A 
HETATM   30  C   UNL     1      43.331 -15.404   2.108  1.00  0.00     0.027 A 
HETATM   31  C   UNL     1      43.197 -13.998   2.026  1.00  0.00     0.034 A 
ENDBRANCH  26  27
ENDBRANCH  22  26
ENDBRANCH  21  22
ENDBRANCH   3  21
TORSDOF 9
ENDMDL
MODEL 4
REMARK VINA RESULT:      -7.3      3.604      7.801
REMARK  9 active torsions:
REMARK  status: ('A' for Active; 'I' for Inactive)
REMARK    1  A    between atoms: C_6  and  C_7 
REMARK    2  A    between atoms: C_7  and  C_8 
REMARK    3  A    between atoms: C_11  and  N_12 
REMARK       I    between atoms: N_12  and  C_13 
REMARK       I    between atoms: C_13  and  N_14 
REMARK    4  A    between atoms: N_14  and  C_15 
REMARK    5  A    between atoms: C_15  and  C_16 
REMARK    6  A    between atoms: C_16  and  C_17 
REMARK    7  A    between atoms: C_16  and  C_19 
REMARK    8  A    between atoms: C_17  and  O_18 
REMARK    9  A    between atoms: C_19  and  C_20 
ROOT
HETATM    1  N   UNL     1      39.917 -14.007   5.029  1.00  0.00    -0.309 N 
HETATM    2  C   UNL     1      39.879 -12.692   5.372  1.00  0.00     0.320 C 
HETATM    3  N   UNL     1      40.700 -11.833   4.712  1.00  0.00    -0.342 N 
HETATM    4  O   UNL     1      39.082 -12.320   6.233  1.00  0.00    -0.247 OA
HETATM    5  H   UNL     1      39.140 -14.502   5.451  1.00  0.00     0.170 HD
HETATM    6  H   UNL     1      40.934 -12.087   3.763  1.00  0.00     0.164 HD
ENDROOT
BRANCH   1   7
HETATM    7  C   UNL     1      40.851 -14.795   4.332  1.00  0.00     0.036 A 
HETATM    8  C   UNL     1      42.195 -14.936   4.681  1.00  0.00     0.030 A 
HETATM    9  C   UNL     1      43.042 -15.768   3.937  1.00  0.00     0.010 A 
HETATM   10  C   UNL     1      42.551 -16.497   2.847  1.00  0.00    -0.051 A 
HETATM   11  C   UNL     1      41.198 -16.381   2.514  1.00  0.00     0.010 A 
HETATM   12  C   UNL     1      40.360 -15.537   3.250  1.00  0.00     0.030 A 
BRANCH  10  13
HETATM   13  C   UNL     1      43.452 -17.448   2.090  1.00  0.00     0.118 C 
BRANCH  13  14
HETATM   14  C   UNL     1      43.648 -18.774   2.746  1.00  0.00     0.126 A 
HETATM   15  N   UNL     1      43.549 -19.978   2.104  1.00  0.00    -0.263 N 
HETATM   16  N   UNL     1      43.761 -21.003   2.943  1.00  0.00    -0.158 NA
HETATM   17  H   UNL     1      43.339 -20.165   1.129  1.00  0.00     0.190 HD
HETATM   18  C   UNL     1      43.994 -20.364   4.094  1.00  0.00     0.144 A 
HETATM   19  C   UNL     1      44.297 -21.073   5.352  1.00  0.00     0.095 C 
HETATM   20  N   UNL     1      43.934 -18.997   4.013  1.00  0.00    -0.217 NA
ENDBRANCH  13  14
ENDBRANCH  10  13
ENDBRANCH   1   7
BRANCH   3  21
HETATM   21  C   UNL     1      40.797 -10.431   5.074  1.00  0.00     0.131 C 
BRANCH  21  22
HETATM   22  C   UNL     1      41.902 -10.116   6.098  1.00  0.00     0.033 C 
BRANCH  22  23
HETATM   23  C   UNL     1      41.338  -9.455   7.364  1.00  0.00     0.170 C 
BRANCH  23  24
HETATM   24  O   UNL     1      40.411 -10.330   7.999  1.00  0.00    -0.400 OA
HETATM   25  H   UNL     1      40.216 -11.052   7.377  1.00  0.00     0.209 HD
ENDBRANCH  23  24
ENDBRANCH  22  23
BRANCH  22  26
HETATM   26  C   UNL     1      42.674 -11.395   6.489  1.00  0.00     0.073 C 
BRANCH  26  27
HETATM   27  C   UNL     1      44.050 -11.135   6.991  1.00  0.00     0.053 A 
HETATM   28  O   UNL     1      44.164 -10.769   8.299  1.00  0.00    -0.327 OA
HETATM   29  C   UNL     1      45.487 -10.587   8.544  1.00  0.00     0.142 A 
HETATM   30  C   UNL     1      46.224 -10.826   7.408  1.00  0.00     0.027 A 
HETATM   31  C   UNL     1      45.295 -11.184   6.402  1.00  0.00     0.034 A 
ENDBRANCH  26  27
ENDBRANCH  22  26
ENDBRANCH  21  22
ENDBRANCH   3  21
TORSDOF 9
ENDMDL
MODEL 5
REMARK VINA RESULT:      -7.1      3.469      7.755
REMARK  9 active torsions:
REMARK  status: ('A' for Active; 'I' for Inactive)
REMARK    1  A    between atoms: C_6  and  C_7 
REMARK    2  A    between atoms: C_7  and  C_8 
REMARK    3  A    between atoms: C_11  and  N_12 
REMARK       I    between atoms: N_12  and  C_13 
REMARK       I    between atoms: C_13  and  N_14 
REMARK    4  A    between atoms: N_14  and  C_15 
REMARK    5  A    between atoms: C_15  and  C_16 
REMARK    6  A    between atoms: C_16  and  C_17 
REMARK    7  A    between atoms: C_16  and  C_19 
REMARK    8  A    between atoms: C_17  and  O_18 
REMARK    9  A    between atoms: C_19  and  C_20 
ROOT
HETATM    1  N   UNL     1      40.146 -13.728   4.724  1.00  0.00    -0.309 N 
HETATM    2  C   UNL     1      39.497 -12.580   4.395  1.00  0.00     0.320 C 
HETATM    3  N   UNL     1      39.360 -12.276   3.077  1.00  0.00    -0.342 N 
HETATM    4  O   UNL     1      39.026 -11.880   5.290  1.00  0.00    -0.247 OA
HETATM    5  H   UNL     1      40.020 -13.934   5.708  1.00  0.00     0.170 HD
HETATM    6  H   UNL     1      39.320 -13.063   2.444  1.00  0.00     0.164 HD
ENDROOT
BRANCH   1   7
HETATM    7  C   UNL     1      41.018 -14.579   4.019  1.00  0.00     0.036 A 
HETATM    8  C   UNL     1      42.407 -14.456   3.994  1.00  0.00     0.030 A 
HETATM    9  C   UNL     1      43.192 -15.373   3.282  1.00  0.00     0.010 A 
HETATM   10  C   UNL     1      42.601 -16.447   2.606  1.00  0.00    -0.051 A 
HETATM   11  C   UNL     1      41.211 -16.590   2.655  1.00  0.00     0.010 A 
HETATM   12  C   UNL     1      40.431 -15.664   3.354  1.00  0.00     0.030 A 
BRANCH  10  13
HETATM   13  C   UNL     1      43.457 -17.474   1.898  1.00  0.00     0.118 C 
BRANCH  13  14
HETATM   14  C   UNL     1      43.636 -18.755   2.642  1.00  0.00     0.126 A 
HETATM   15  N   UNL     1      43.517 -19.998   2.084  1.00  0.00    -0.263 N 
HETATM   16  N   UNL     1      43.718 -20.967   2.991  1.00  0.00    -0.158 NA
HETATM   17  H   UNL     1      43.301 -20.249   1.125  1.00  0.00     0.190 HD
HETATM   18  C   UNL     1      43.964 -20.254   4.095  1.00  0.00     0.144 A 
HETATM   19  C   UNL     1      44.262 -20.880   5.397  1.00  0.00     0.095 C 
HETATM   20  N   UNL     1      43.924 -18.895   3.921  1.00  0.00    -0.217 NA
ENDBRANCH  13  14
ENDBRANCH  10  13
ENDBRANCH   1   7
BRANCH   3  21
HETATM   21  C   UNL     1      38.767 -11.029   2.633  1.00  0.00     0.131 C 
BRANCH  21  22
HETATM   22  C   UNL     1      38.197 -11.070   1.205  1.00  0.00     0.033 C 
BRANCH  22  23
HETATM   23  C   UNL     1      37.432  -9.785   0.855  1.00  0.00     0.170 C 
BRANCH  23  24
HETATM   24  O   UNL     1      36.645  -9.368   1.968  1.00  0.00    -0.400 OA
HETATM   25  H   UNL     1      36.369  -8.450   1.804  1.00  0.00     0.209 HD
ENDBRANCH  23  24
ENDBRANCH  22  23
BRANCH  22  26
HETATM   26  C   UNL     1      39.320 -11.295   0.168  1.00  0.00     0.073 C 
BRANCH  26  27
HETATM   27  C   UNL     1      39.356 -12.674  -0.386  1.00  0.00     0.053 A 
HETATM   28  O   UNL     1      39.915 -13.635   0.402  1.00  0.00    -0.327 OA
HETATM   29  C   UNL     1      39.842 -14.802  -0.287  1.00  0.00     0.142 A 
HETATM   30  C   UNL     1      39.248 -14.603  -1.511  1.00  0.00     0.027 A 
HETATM   31  C   UNL     1      38.930 -13.225  -1.576  1.00  0.00     0.034 A 
ENDBRANCH  26  27
ENDBRANCH  22  26
ENDBRANCH  21  22
ENDBRANCH   3  21
TORSDOF 9
ENDMDL
MODEL 6
REMARK VINA RESULT:      -7.0      4.129      6.498
REMARK  9 active torsions:
REMARK  status: ('A' for Active; 'I' for Inactive)
REMARK    1  A    between atoms: C_6  and  C_7 
REMARK    2  A    between atoms: C_7  and  C_8 
REMARK    3  A    between atoms: C_11  and  N_12 
REMARK       I    between atoms: N_12  and  C_13 
REMARK       I    between atoms: C_13  and  N_14 
REMARK    4  A    between atoms: N_14  and  C_15 
REMARK    5  A    between atoms: C_15  and  C_16 
REMARK    6  A    between atoms: C_16  and  C_17 
REMARK    7  A    between atoms: C_16  and  C_19 
REMARK    8  A    between atoms: C_17  and  O_18 
REMARK    9  A    between atoms: C_19  and  C_20 
ROOT
HETATM    1  N   UNL     1      42.713 -10.846   4.198  1.00  0.00    -0.309 N 
HETATM    2  C   UNL     1      42.434 -11.801   3.271  1.00  0.00     0.320 C 
HETATM    3  N   UNL     1      42.503 -13.103   3.651  1.00  0.00    -0.342 N 
HETATM    4  O   UNL     1      42.093 -11.456   2.140  1.00  0.00    -0.247 OA
HETATM    5  H   UNL     1      42.448  -9.931   3.852  1.00  0.00     0.170 HD
HETATM    6  H   UNL     1      42.307 -13.291   4.624  1.00  0.00     0.164 HD
ENDROOT
BRANCH   1   7
HETATM    7  C   UNL     1      43.379 -10.871   5.438  1.00  0.00     0.036 A 
HETATM    8  C   UNL     1      44.627 -11.454   5.662  1.00  0.00     0.030 A 
HETATM    9  C   UNL     1      45.220 -11.403   6.930  1.00  0.00     0.010 A 
HETATM   10  C   UNL     1      44.588 -10.741   7.990  1.00  0.00    -0.051 A 
HETATM   11  C   UNL     1      43.351 -10.131   7.760  1.00  0.00     0.010 A 
HETATM   12  C   UNL     1      42.756 -10.198   6.496  1.00  0.00     0.030 A 
BRANCH  10  13
HETATM   13  C   UNL     1      45.264 -10.629   9.339  1.00  0.00     0.118 C 
BRANCH  13  14
HETATM   14  C   UNL     1      44.363 -10.210  10.453  1.00  0.00     0.126 A 
HETATM   15  N   UNL     1      43.429 -11.020  11.039  1.00  0.00    -0.263 N 
HETATM   16  N   UNL     1      42.755 -10.377  12.005  1.00  0.00    -0.158 NA
HETATM   17  H   UNL     1      43.202 -11.987  10.831  1.00  0.00     0.190 HD
HETATM   18  C   UNL     1      43.326  -9.168  11.971  1.00  0.00     0.144 A 
HETATM   19  C   UNL     1      42.927  -8.073  12.875  1.00  0.00     0.095 C 
HETATM   20  N   UNL     1      44.317  -9.028  11.033  1.00  0.00    -0.217 NA
ENDBRANCH  13  14
ENDBRANCH  10  13
ENDBRANCH   1   7
BRANCH   3  21
HETATM   21  C   UNL     1      42.315 -14.191   2.709  1.00  0.00     0.131 C 
BRANCH  21  22
HETATM   22  C   UNL     1      42.588 -15.589   3.291  1.00  0.00     0.033 C 
BRANCH  22  23
HETATM   23  C   UNL     1      41.313 -16.233   3.856  1.00  0.00     0.170 C 
BRANCH  23  24
HETATM   24  O   UNL     1      40.212 -15.339   3.718  1.00  0.00    -0.400 OA
HETATM   25  H   UNL     1      40.026 -14.966   4.596  1.00  0.00     0.209 HD
ENDBRANCH  23  24
ENDBRANCH  22  23
BRANCH  22  26
HETATM   26  C   UNL     1      43.202 -16.521   2.224  1.00  0.00     0.073 C 
BRANCH  26  27
HETATM   27  C   UNL     1      43.455 -17.903   2.710  1.00  0.00     0.053 A 
HETATM   28  O   UNL     1      44.077 -18.023   3.917  1.00  0.00    -0.327 OA
HETATM   29  C   UNL     1      44.203 -19.352   4.166  1.00  0.00     0.142 A 
HETATM   30  C   UNL     1      43.674 -20.088   3.132  1.00  0.00     0.027 A 
HETATM   31  C   UNL     1      43.187 -19.151   2.189  1.00  0.00     0.034 A 
ENDBRANCH  26  27
ENDBRANCH  22  26
ENDBRANCH  21  22
ENDBRANCH   3  21
TORSDOF 9
ENDMDL
MODEL 7
REMARK VINA RESULT:      -7.0      3.476      5.665
REMARK  9 active torsions:
REMARK  status: ('A' for Active; 'I' for Inactive)
REMARK    1  A    between atoms: C_6  and  C_7 
REMARK    2  A    between atoms: C_7  and  C_8 
REMARK    3  A    between atoms: C_11  and  N_12 
REMARK       I    between atoms: N_12  and  C_13 
REMARK       I    between atoms: C_13  and  N_14 
REMARK    4  A    between atoms: N_14  and  C_15 
REMARK    5  A    between atoms: C_15  and  C_16 
REMARK    6  A    between atoms: C_16  and  C_17 
REMARK    7  A    between atoms: C_16  and  C_19 
REMARK    8  A    between atoms: C_17  and  O_18 
REMARK    9  A    between atoms: C_19  and  C_20 
ROOT
HETATM    1  N   UNL     1      40.163 -14.185   4.390  1.00  0.00    -0.309 N 
HETATM    2  C   UNL     1      40.642 -15.004   5.363  1.00  0.00     0.320 C 
HETATM    3  N   UNL     1      41.582 -15.925   5.022  1.00  0.00    -0.342 N 
HETATM    4  O   UNL     1      40.242 -14.861   6.518  1.00  0.00    -0.247 OA
HETATM    5  H   UNL     1      39.620 -13.434   4.799  1.00  0.00     0.170 HD
HETATM    6  H   UNL     1      42.182 -15.677   4.248  1.00  0.00     0.164 HD
ENDROOT
BRANCH   1   7
HETATM    7  C   UNL     1      40.177 -14.247   2.984  1.00  0.00     0.036 A 
HETATM    8  C   UNL     1      39.871 -15.381   2.232  1.00  0.00     0.030 A 
HETATM    9  C   UNL     1      39.887 -15.335   0.832  1.00  0.00     0.010 A 
HETATM   10  C   UNL     1      40.181 -14.142   0.159  1.00  0.00    -0.051 A 
HETATM   11  C   UNL     1      40.459 -12.997   0.911  1.00  0.00     0.010 A 
HETATM   12  C   UNL     1      40.457 -13.052   2.308  1.00  0.00     0.030 A 
BRANCH  10  13
HETATM   13  C   UNL     1      40.128 -14.079  -1.352  1.00  0.00     0.118 C 
BRANCH  13  14
HETATM   14  C   UNL     1      38.875 -13.487  -1.906  1.00  0.00     0.126 A 
HETATM   15  N   UNL     1      37.871 -14.209  -2.491  1.00  0.00    -0.263 N 
HETATM   16  N   UNL     1      36.872 -13.415  -2.908  1.00  0.00    -0.158 NA
HETATM   17  H   UNL     1      37.807 -15.210  -2.638  1.00  0.00     0.190 HD
HETATM   18  C   UNL     1      37.320 -12.208  -2.545  1.00  0.00     0.144 A 
HETATM   19  C   UNL     1      36.554 -10.970  -2.784  1.00  0.00     0.095 C 
HETATM   20  N   UNL     1      38.543 -12.212  -1.926  1.00  0.00    -0.217 NA
ENDBRANCH  13  14
ENDBRANCH  10  13
ENDBRANCH   1   7
BRANCH   3  21
HETATM   21  C   UNL     1      42.081 -16.903   5.970  1.00  0.00     0.131 C 
BRANCH  21  22
HETATM   22  C   UNL     1      43.604 -17.113   5.922  1.00  0.00     0.033 C 
BRANCH  22  23
HETATM   23  C   UNL     1      44.290 -16.640   7.212  1.00  0.00     0.170 C 
BRANCH  23  24
HETATM   24  O   UNL     1      43.310 -16.229   8.162  1.00  0.00    -0.400 OA
HETATM   25  H   UNL     1      43.443 -15.280   8.326  1.00  0.00     0.209 HD
ENDBRANCH  23  24
ENDBRANCH  22  23
BRANCH  22  26
HETATM   26  C   UNL     1      43.949 -18.599   5.675  1.00  0.00     0.073 C 
BRANCH  26  27
HETATM   27  C   UNL     1      43.782 -19.025   4.260  1.00  0.00     0.053 A 
HETATM   28  O   UNL     1      43.854 -20.363   4.011  1.00  0.00    -0.327 OA
HETATM   29  C   UNL     1      43.674 -20.527   2.676  1.00  0.00     0.142 A 
HETATM   30  C   UNL     1      43.492 -19.311   2.062  1.00  0.00     0.027 A 
HETATM   31  C   UNL     1      43.559 -18.336   3.086  1.00  0.00     0.034 A 
ENDBRANCH  26  27
ENDBRANCH  22  26
ENDBRANCH  21  22
ENDBRANCH   3  21
TORSDOF 9
ENDMDL
MODEL 8
REMARK VINA RESULT:      -7.0      3.370      5.633
REMARK  9 active torsions:
REMARK  status: ('A' for Active; 'I' for Inactive)
REMARK    1  A    between atoms: C_6  and  C_7 
REMARK    2  A    between atoms: C_7  and  C_8 
REMARK    3  A    between atoms: C_11  and  N_12 
REMARK       I    between atoms: N_12  and  C_13 
REMARK       I    between atoms: C_13  and  N_14 
REMARK    4  A    between atoms: N_14  and  C_15 
REMARK    5  A    between atoms: C_15  and  C_16 
REMARK    6  A    between atoms: C_16  and  C_17 
REMARK    7  A    between atoms: C_16  and  C_19 
REMARK    8  A    between atoms: C_17  and  O_18 
REMARK    9  A    between atoms: C_19  and  C_20 
ROOT
HETATM    1  N   UNL     1      41.224 -12.848   3.909  1.00  0.00    -0.309 N 
HETATM    2  C   UNL     1      40.902 -14.017   3.294  1.00  0.00     0.320 C 
HETATM    3  N   UNL     1      41.576 -15.140   3.658  1.00  0.00    -0.342 N 
HETATM    4  O   UNL     1      39.994 -14.028   2.464  1.00  0.00    -0.247 OA
HETATM    5  H   UNL     1      40.536 -12.136   3.692  1.00  0.00     0.170 HD
HETATM    6  H   UNL     1      41.917 -15.162   4.608  1.00  0.00     0.164 HD
ENDROOT
BRANCH   1   7
HETATM    7  C   UNL     1      42.340 -12.426   4.655  1.00  0.00     0.036 A 
HETATM    8  C   UNL     1      43.517 -11.912   4.111  1.00  0.00     0.030 A 
HETATM    9  C   UNL     1      44.564 -11.493   4.941  1.00  0.00     0.010 A 
HETATM   10  C   UNL     1      44.440 -11.554   6.335  1.00  0.00    -0.051 A 
HETATM   11  C   UNL     1      43.249 -12.041   6.884  1.00  0.00     0.010 A 
HETATM   12  C   UNL     1      42.213 -12.472   6.050  1.00  0.00     0.030 A 
BRANCH  10  13
HETATM   13  C   UNL     1      45.545 -11.036   7.228  1.00  0.00     0.118 C 
BRANCH  13  14
HETATM   14  C   UNL     1      45.084 -10.150   8.337  1.00  0.00     0.126 A 
HETATM   15  N   UNL     1      44.945  -8.792   8.237  1.00  0.00    -0.263 N 
HETATM   16  N   UNL     1      44.526  -8.253   9.392  1.00  0.00    -0.158 NA
HETATM   17  H   UNL     1      45.120  -8.190   7.440  1.00  0.00     0.190 HD
HETATM   18  C   UNL     1      44.418  -9.336  10.170  1.00  0.00     0.144 A 
HETATM   19  C   UNL     1      43.970  -9.266  11.573  1.00  0.00     0.095 C 
HETATM   20  N   UNL     1      44.750 -10.517   9.558  1.00  0.00    -0.217 NA
ENDBRANCH  13  14
ENDBRANCH  10  13
ENDBRANCH   1   7
BRANCH   3  21
HETATM   21  C   UNL     1      41.369 -16.412   2.991  1.00  0.00     0.131 C 
BRANCH  21  22
HETATM   22  C   UNL     1      42.641 -17.019   2.374  1.00  0.00     0.033 C 
BRANCH  22  23
HETATM   23  C   UNL     1      43.302 -16.064   1.369  1.00  0.00     0.170 C 
BRANCH  23  24
HETATM   24  O   UNL     1      42.310 -15.264   0.731  1.00  0.00    -0.400 OA
HETATM   25  H   UNL     1      41.854 -14.757   1.424  1.00  0.00     0.209 HD
ENDBRANCH  23  24
ENDBRANCH  22  23
BRANCH  22  26
HETATM   26  C   UNL     1      43.662 -17.395   3.470  1.00  0.00     0.073 C 
BRANCH  26  27
HETATM   27  C   UNL     1      43.799 -18.860   3.684  1.00  0.00     0.053 A 
HETATM   28  O   UNL     1      44.083 -19.269   4.953  1.00  0.00    -0.327 OA
HETATM   29  C   UNL     1      44.160 -20.623   4.923  1.00  0.00     0.142 A 
HETATM   30  C   UNL     1      43.933 -21.091   3.650  1.00  0.00     0.027 A 
HETATM   31  C   UNL     1      43.697 -19.950   2.847  1.00  0.00     0.034 A 
ENDBRANCH  26  27
ENDBRANCH  22  26
ENDBRANCH  21  22
ENDBRANCH   3  21
TORSDOF 9
ENDMDL
MODEL 9
REMARK VINA RESULT:      -6.9      3.635      7.929
REMARK  9 active torsions:
REMARK  status: ('A' for Active; 'I' for Inactive)
REMARK    1  A    between atoms: C_6  and  C_7 
REMARK    2  A    between atoms: C_7  and  C_8 
REMARK    3  A    between atoms: C_11  and  N_12 
REMARK       I    between atoms: N_12  and  C_13 
REMARK       I    between atoms: C_13  and  N_14 
REMARK    4  A    between atoms: N_14  and  C_15 
REMARK    5  A    between atoms: C_15  and  C_16 
REMARK    6  A    between atoms: C_16  and  C_17 
REMARK    7  A    between atoms: C_16  and  C_19 
REMARK    8  A    between atoms: C_17  and  O_18 
REMARK    9  A    between atoms: C_19  and  C_20 
ROOT
HETATM    1  N   UNL     1      39.703 -13.324   5.647  1.00  0.00    -0.309 N 
HETATM    2  C   UNL     1      39.498 -12.112   6.229  1.00  0.00     0.320 C 
HETATM    3  N   UNL     1      40.586 -11.355   6.532  1.00  0.00    -0.342 N 
HETATM    4  O   UNL     1      38.346 -11.726   6.423  1.00  0.00    -0.247 OA
HETATM    5  H   UNL     1      38.827 -13.701   5.305  1.00  0.00     0.170 HD
HETATM    6  H   UNL     1      41.395 -11.488   5.943  1.00  0.00     0.164 HD
ENDROOT
BRANCH   1   7
HETATM    7  C   UNL     1      40.824 -14.167   5.545  1.00  0.00     0.036 A 
HETATM    8  C   UNL     1      41.926 -13.935   4.721  1.00  0.00     0.030 A 
HETATM    9  C   UNL     1      43.009 -14.823   4.710  1.00  0.00     0.010 A 
HETATM   10  C   UNL     1      43.021 -15.947   5.546  1.00  0.00    -0.051 A 
HETATM   11  C   UNL     1      41.931 -16.166   6.394  1.00  0.00     0.010 A 
HETATM   12  C   UNL     1      40.847 -15.284   6.390  1.00  0.00     0.030 A 
BRANCH  10  13
HETATM   13  C   UNL     1      44.223 -16.865   5.581  1.00  0.00     0.118 C 
BRANCH  13  14
HETATM   14  C   UNL     1      44.068 -18.122   4.791  1.00  0.00     0.126 A 
HETATM   15  N   UNL     1      44.116 -19.381   5.323  1.00  0.00    -0.263 N 
HETATM   16  N   UNL     1      43.958 -20.321   4.378  1.00  0.00    -0.158 NA
HETATM   17  H   UNL     1      44.255 -19.662   6.288  1.00  0.00     0.190 HD
HETATM   18  C   UNL     1      43.811 -19.574   3.278  1.00  0.00     0.144 A 
HETATM   19  C   UNL     1      43.595 -20.159   1.942  1.00  0.00     0.095 C 
HETATM   20  N   UNL     1      43.872 -18.222   3.492  1.00  0.00    -0.217 NA
ENDBRANCH  13  14
ENDBRANCH  10  13
ENDBRANCH   1   7
BRANCH   3  21
HETATM   21  C   UNL     1      40.471 -10.093   7.238  1.00  0.00     0.131 C 
BRANCH  21  22
HETATM   22  C   UNL     1      41.761  -9.255   7.252  1.00  0.00     0.033 C 
BRANCH  22  23
HETATM   23  C   UNL     1      41.480  -7.774   7.550  1.00  0.00     0.170 C 
BRANCH  23  24
HETATM   24  O   UNL     1      42.497  -6.959   6.973  1.00  0.00    -0.400 OA
HETATM   25  H   UNL     1      42.389  -6.996   6.007  1.00  0.00     0.209 HD
ENDBRANCH  23  24
ENDBRANCH  22  23
BRANCH  22  26
HETATM   26  C   UNL     1      42.765  -9.803   8.290  1.00  0.00     0.073 C 
BRANCH  26  27
HETATM   27  C   UNL     1      43.965 -10.440   7.685  1.00  0.00     0.053 A 
HETATM   28  O   UNL     1      43.741 -11.479   6.832  1.00  0.00    -0.327 OA
HETATM   29  C   UNL     1      44.955 -11.903   6.398  1.00  0.00     0.142 A 
HETATM   30  C   UNL     1      45.958 -11.153   6.965  1.00  0.00     0.027 A 
HETATM   31  C   UNL     1      45.318 -10.203   7.797  1.00  0.00     0.034 A 
ENDBRANCH  26  27
ENDBRANCH  22  26
ENDBRANCH  21  22
ENDBRANCH   3  21
TORSDOF 9
ENDMDL
MODEL 10
REMARK VINA RESULT:      -6.8      5.811      9.210
REMARK  9 active torsions:
REMARK  status: ('A' for Active; 'I' for Inactive)
REMARK    1  A    between atoms: C_6  and  C_7 
REMARK    2  A    between atoms: C_7  and  C_8 
REMARK    3  A    between atoms: C_11  and  N_12 
REMARK       I    between atoms: N_12  and  C_13 
REMARK       I    between atoms: C_13  and  N_14 
REMARK    4  A    between atoms: N_14  and  C_15 
REMARK    5  A    between atoms: C_15  and  C_16 
REMARK    6  A    between atoms: C_16  and  C_17 
REMARK    7  A    between atoms: C_16  and  C_19 
REMARK    8  A    between atoms: C_17  and  O_18 
REMARK    9  A    between atoms: C_19  and  C_20 
ROOT
HETATM    1  N   UNL     1      45.489 -11.009   6.673  1.00  0.00    -0.309 N 
HETATM    2  C   UNL     1      45.835 -10.288   7.772  1.00  0.00     0.320 C 
HETATM    3  N   UNL     1      45.155 -10.514   8.927  1.00  0.00    -0.342 N 
HETATM    4  O   UNL     1      46.769  -9.491   7.697  1.00  0.00    -0.247 OA
HETATM    5  H   UNL     1      46.179 -10.887   5.941  1.00  0.00     0.170 HD
HETATM    6  H   UNL     1      44.784 -11.446   9.046  1.00  0.00     0.164 HD
ENDROOT
BRANCH   1   7
HETATM    7  C   UNL     1      44.347 -11.758   6.331  1.00  0.00     0.036 A 
HETATM    8  C   UNL     1      43.312 -11.307   5.511  1.00  0.00     0.030 A 
HETATM    9  C   UNL     1      42.229 -12.141   5.207  1.00  0.00     0.010 A 
HETATM   10  C   UNL     1      42.176 -13.452   5.695  1.00  0.00    -0.051 A 
HETATM   11  C   UNL     1      43.226 -13.916   6.492  1.00  0.00     0.010 A 
HETATM   12  C   UNL     1      44.299 -13.075   6.805  1.00  0.00     0.030 A 
BRANCH  10  13
HETATM   13  C   UNL     1      41.038 -14.371   5.307  1.00  0.00     0.118 C 
BRANCH  13  14
HETATM   14  C   UNL     1      41.324 -15.254   4.138  1.00  0.00     0.126 A 
HETATM   15  N   UNL     1      40.817 -15.064   2.882  1.00  0.00    -0.263 N 
HETATM   16  N   UNL     1      41.233 -16.018   2.033  1.00  0.00    -0.158 NA
HETATM   17  H   UNL     1      40.199 -14.333   2.547  1.00  0.00     0.190 HD
HETATM   18  C   UNL     1      42.002 -16.768   2.829  1.00  0.00     0.144 A 
HETATM   19  C   UNL     1      42.712 -17.968   2.348  1.00  0.00     0.095 C 
HETATM   20  N   UNL     1      42.083 -16.332   4.126  1.00  0.00    -0.217 NA
ENDBRANCH  13  14
ENDBRANCH  10  13
ENDBRANCH   1   7
BRANCH   3  21
HETATM   21  C   UNL     1      45.390  -9.728  10.124  1.00  0.00     0.131 C 
BRANCH  21  22
HETATM   22  C   UNL     1      44.244  -8.766  10.485  1.00  0.00     0.033 C 
BRANCH  22  23
HETATM   23  C   UNL     1      43.641  -8.100   9.240  1.00  0.00     0.170 C 
BRANCH  23  24
HETATM   24  O   UNL     1      44.636  -7.335   8.565  1.00  0.00    -0.400 OA
HETATM   25  H   UNL     1      45.216  -7.959   8.097  1.00  0.00     0.209 HD
ENDBRANCH  23  24
ENDBRANCH  22  23
BRANCH  22  26
HETATM   26  C   UNL     1      43.130  -9.501  11.263  1.00  0.00     0.073 C 
BRANCH  26  27
HETATM   27  C   UNL     1      42.807  -8.881  12.575  1.00  0.00     0.053 A 
HETATM   28  O   UNL     1      41.868  -9.512  13.335  1.00  0.00    -0.327 OA
HETATM   29  C   UNL     1      41.732  -8.789  14.476  1.00  0.00     0.142 A 
HETATM   30  C   UNL     1      42.568  -7.697  14.457  1.00  0.00     0.027 A 
HETATM   31  C   UNL     1      43.267  -7.756  13.227  1.00  0.00     0.034 A 
ENDBRANCH  26  27
ENDBRANCH  22  26
ENDBRANCH  21  22
ENDBRANCH   3  21
TORSDOF 9
ENDMDL
