MODEL 1
REMARK VINA RESULT:      -9.6      0.000      0.000
REMARK  6 active torsions:
REMARK  status: ('A' for Active; 'I' for Inactive)
REMARK    1  A    between atoms: C_4  and  C_5 
REMARK    2  A    between atoms: C_5  and  C_6 
REMARK    3  A    between atoms: C_8  and  C_9 
REMARK    4  A    between atoms: C_9  and  C_10 
REMARK       I    between atoms: C_10  and  N_11 
REMARK    5  A    between atoms: N_11  and  N_12 
REMARK       I    between atoms: N_12  and  C_13 
REMARK       I    between atoms: C_13  and  N_14 
REMARK    6  A    between atoms: N_14  and  C_15 
ROOT
HETATM    1  C   UNL     1      43.517 -11.624   7.266  1.00  0.00     0.238 C 
HETATM    2  N   UNL     1      42.464 -12.280   6.664  1.00  0.00    -0.266 N 
HETATM    3  O   UNL     1      44.399 -12.210   7.889  1.00  0.00    -0.272 OA
HETATM    4  H   UNL     1      41.663 -11.810   6.240  1.00  0.00     0.190 HD
ENDROOT
BRANCH   1   5
HETATM    5  C   UNL     1      43.468 -10.131   7.064  1.00  0.00     0.139 C 
BRANCH   5   6
HETATM    6  C   UNL     1      43.729  -9.368   8.361  1.00  0.00     0.185 C 
HETATM    7  N   UNL     1      43.217 -10.123   9.503  1.00  0.00    -0.363 N 
HETATM    8  C   UNL     1      43.894 -10.087  10.700  1.00  0.00     0.125 C 
HETATM    9  H   UNL     1      42.200 -10.118   9.568  1.00  0.00     0.161 HD
HETATM   10  N   UNL     1      45.123  -9.684  10.843  1.00  0.00    -0.159 NA
HETATM   11  N   UNL     1      45.778  -9.248   9.733  1.00  0.00    -0.244 N 
HETATM   12  C   UNL     1      45.231  -9.101   8.481  1.00  0.00     0.261 C 
HETATM   13  H   UNL     1      46.763  -9.032   9.845  1.00  0.00     0.192 HD
HETATM   14  O   UNL     1      45.919  -8.723   7.532  1.00  0.00    -0.269 OA
BRANCH   8  15
HETATM   15  C   UNL     1      43.157 -10.551  11.953  1.00  0.00     0.118 C 
BRANCH  15  16
HETATM   16  C   UNL     1      42.656  -9.410  12.807  1.00  0.00    -0.051 A 
HETATM   17  C   UNL     1      41.491  -9.558  13.573  1.00  0.00     0.007 A 
HETATM   18  C   UNL     1      41.050  -8.522  14.401  1.00  0.00     0.001 A 
HETATM   19  C   UNL     1      41.769  -7.331  14.475  1.00  0.00     0.000 A 
HETATM   20  C   UNL     1      42.933  -7.176  13.725  1.00  0.00     0.001 A 
HETATM   21  C   UNL     1      43.378  -8.211  12.902  1.00  0.00     0.007 A 
ENDBRANCH  15  16
ENDBRANCH   8  15
ENDBRANCH   5   6
ENDBRANCH   1   5
BRANCH   2  22
HETATM   22  N   UNL     1      42.375 -13.675   6.785  1.00  0.00    -0.249 N 
HETATM   23  C   UNL     1      42.815 -14.421   5.701  1.00  0.00     0.339 C 
HETATM   24  N   UNL     1      42.622 -15.770   5.903  1.00  0.00    -0.308 N 
HETATM   25  O   UNL     1      43.340 -13.885   4.731  1.00  0.00    -0.245 OA
HETATM   26  H   UNL     1      42.308 -16.028   6.828  1.00  0.00     0.170 HD
HETATM   27  H   UNL     1      41.590 -14.002   7.343  1.00  0.00     0.192 HD
BRANCH  24  28
HETATM   28  C   UNL     1      42.944 -16.824   5.024  1.00  0.00     0.038 A 
HETATM   29  C   UNL     1      43.558 -18.014   5.423  1.00  0.00     0.055 A 
HETATM   30  C   UNL     1      43.840 -19.020   4.488  1.00  0.00     0.058 A 
HETATM   31 CL   UNL     1      44.597 -20.464   5.063  1.00  0.00    -0.082 Cl
HETATM   32  C   UNL     1      43.509 -18.838   3.143  1.00  0.00     0.055 A 
HETATM   33 CL   UNL     1      43.822 -20.034   1.936  1.00  0.00    -0.083 Cl
HETATM   34  C   UNL     1      42.903 -17.648   2.737  1.00  0.00     0.028 A 
HETATM   35  C   UNL     1      42.624 -16.648   3.672  1.00  0.00     0.031 A 
ENDBRANCH  24  28
ENDBRANCH   2  22
TORSDOF 6
ENDMDL
MODEL 2
REMARK VINA RESULT:      -9.6      4.632     10.715
REMARK  6 active torsions:
REMARK  status: ('A' for Active; 'I' for Inactive)
REMARK    1  A    between atoms: C_4  and  C_5 
REMARK    2  A    between atoms: C_5  and  C_6 
REMARK    3  A    between atoms: C_8  and  C_9 
REMARK    4  A    between atoms: C_9  and  C_10 
REMARK       I    between atoms: C_10  and  N_11 
REMARK    5  A    between atoms: N_11  and  N_12 
REMARK       I    between atoms: N_12  and  C_13 
REMARK       I    between atoms: C_13  and  N_14 
REMARK    6  A    between atoms: N_14  and  C_15 
ROOT
HETATM    1  C   UNL     1      43.020 -11.984   3.376  1.00  0.00     0.238 C 
HETATM    2  N   UNL     1      42.550 -11.550   4.597  1.00  0.00    -0.266 N 
HETATM    3  O   UNL     1      44.215 -12.005   3.090  1.00  0.00    -0.272 OA
HETATM    4  H   UNL     1      41.561 -11.418   4.817  1.00  0.00     0.190 HD
ENDROOT
BRANCH   1   5
HETATM    5  C   UNL     1      41.919 -12.433   2.450  1.00  0.00     0.139 C 
BRANCH   5   6
HETATM    6  C   UNL     1      41.725 -13.947   2.479  1.00  0.00     0.185 C 
HETATM    7  N   UNL     1      42.790 -14.578   3.256  1.00  0.00    -0.363 N 
HETATM    8  C   UNL     1      42.510 -15.687   4.020  1.00  0.00     0.125 C 
HETATM    9  H   UNL     1      43.690 -14.586   2.775  1.00  0.00     0.161 HD
HETATM   10  N   UNL     1      41.313 -16.063   4.365  1.00  0.00    -0.159 NA
HETATM   11  N   UNL     1      40.263 -15.320   3.921  1.00  0.00    -0.244 N 
HETATM   12  C   UNL     1      40.341 -14.254   3.056  1.00  0.00     0.261 C 
HETATM   13  H   UNL     1      39.349 -15.569   4.280  1.00  0.00     0.192 HD
HETATM   14  O   UNL     1      39.331 -13.627   2.736  1.00  0.00    -0.269 OA
BRANCH   8  15
HETATM   15  C   UNL     1      43.680 -16.539   4.500  1.00  0.00     0.118 C 
BRANCH  15  16
HETATM   16  C   UNL     1      43.649 -17.951   3.963  1.00  0.00    -0.051 A 
HETATM   17  C   UNL     1      43.273 -18.195   2.634  1.00  0.00     0.007 A 
HETATM   18  C   UNL     1      43.289 -19.494   2.120  1.00  0.00     0.001 A 
HETATM   19  C   UNL     1      43.684 -20.561   2.924  1.00  0.00     0.000 A 
HETATM   20  C   UNL     1      44.068 -20.330   4.243  1.00  0.00     0.001 A 
HETATM   21  C   UNL     1      44.058 -19.032   4.758  1.00  0.00     0.007 A 
ENDBRANCH  15  16
ENDBRANCH   8  15
ENDBRANCH   5   6
ENDBRANCH   1   5
BRANCH   2  22
HETATM   22  N   UNL     1      43.467 -11.089   5.552  1.00  0.00    -0.249 N 
HETATM   23  C   UNL     1      42.935 -10.569   6.724  1.00  0.00     0.339 C 
HETATM   24  N   UNL     1      43.920 -10.089   7.558  1.00  0.00    -0.308 N 
HETATM   25  O   UNL     1      41.729 -10.604   6.945  1.00  0.00    -0.245 OA
HETATM   26  H   UNL     1      44.867 -10.283   7.265  1.00  0.00     0.170 HD
HETATM   27  H   UNL     1      44.321 -10.696   5.164  1.00  0.00     0.192 HD
BRANCH  24  28
HETATM   28  C   UNL     1      43.757  -9.493   8.826  1.00  0.00     0.038 A 
HETATM   29  C   UNL     1      43.366  -8.166   9.020  1.00  0.00     0.055 A 
HETATM   30  C   UNL     1      43.219  -7.648  10.314  1.00  0.00     0.058 A 
HETATM   31 CL   UNL     1      42.727  -5.998  10.471  1.00  0.00    -0.082 Cl
HETATM   32  C   UNL     1      43.466  -8.459  11.425  1.00  0.00     0.055 A 
HETATM   33 CL   UNL     1      43.302  -7.892  13.049  1.00  0.00    -0.083 Cl
HETATM   34  C   UNL     1      43.865  -9.783  11.237  1.00  0.00     0.028 A 
HETATM   35  C   UNL     1      44.010 -10.295   9.944  1.00  0.00     0.031 A 
ENDBRANCH  24  28
ENDBRANCH   2  22
TORSDOF 6
ENDMDL
MODEL 3
REMARK VINA RESULT:      -9.6      2.946      4.274
REMARK  6 active torsions:
REMARK  status: ('A' for Active; 'I' for Inactive)
REMARK    1  A    between atoms: C_4  and  C_5 
REMARK    2  A    between atoms: C_5  and  C_6 
REMARK    3  A    between atoms: C_8  and  C_9 
REMARK    4  A    between atoms: C_9  and  C_10 
REMARK       I    between atoms: C_10  and  N_11 
REMARK    5  A    between atoms: N_11  and  N_12 
REMARK       I    between atoms: N_12  and  C_13 
REMARK       I    between atoms: C_13  and  N_14 
REMARK    6  A    between atoms: N_14  and  C_15 
ROOT
HETATM    1  C   UNL     1      40.609 -11.706   6.102  1.00  0.00     0.238 C 
HETATM    2  N   UNL     1      40.804 -13.031   6.427  1.00  0.00    -0.266 N 
HETATM    3  O   UNL     1      41.411 -11.057   5.435  1.00  0.00    -0.272 OA
HETATM    4  H   UNL     1      40.212 -13.557   7.071  1.00  0.00     0.190 HD
ENDROOT
BRANCH   1   5
HETATM    5  C   UNL     1      39.313 -11.156   6.641  1.00  0.00     0.139 C 
BRANCH   5   6
HETATM    6  C   UNL     1      39.540 -10.006   7.621  1.00  0.00     0.185 C 
HETATM    7  N   UNL     1      40.874 -10.102   8.210  1.00  0.00    -0.363 N 
HETATM    8  C   UNL     1      41.576  -8.953   8.493  1.00  0.00     0.125 C 
HETATM    9  H   UNL     1      40.962 -10.854   8.893  1.00  0.00     0.161 HD
HETATM   10  N   UNL     1      41.297  -7.778   8.008  1.00  0.00    -0.159 NA
HETATM   11  N   UNL     1      40.222  -7.674   7.181  1.00  0.00    -0.244 N 
HETATM   12  C   UNL     1      39.338  -8.683   6.881  1.00  0.00     0.261 C 
HETATM   13  H   UNL     1      40.079  -6.775   6.736  1.00  0.00     0.192 HD
HETATM   14  O   UNL     1      38.408  -8.493   6.095  1.00  0.00    -0.269 OA
BRANCH   8  15
HETATM   15  C   UNL     1      42.768  -9.057   9.439  1.00  0.00     0.118 C 
BRANCH  15  16
HETATM   16  C   UNL     1      44.014  -9.592   8.772  1.00  0.00    -0.051 A 
HETATM   17  C   UNL     1      44.003 -10.853   8.158  1.00  0.00     0.007 A 
HETATM   18  C   UNL     1      45.137 -11.331   7.498  1.00  0.00     0.001 A 
HETATM   19  C   UNL     1      46.293 -10.555   7.440  1.00  0.00     0.000 A 
HETATM   20  C   UNL     1      46.313  -9.296   8.038  1.00  0.00     0.001 A 
HETATM   21  C   UNL     1      45.178  -8.815   8.694  1.00  0.00     0.007 A 
ENDBRANCH  15  16
ENDBRANCH   8  15
ENDBRANCH   5   6
ENDBRANCH   1   5
BRANCH   2  22
HETATM   22  N   UNL     1      41.980 -13.668   6.001  1.00  0.00    -0.249 N 
HETATM   23  C   UNL     1      41.825 -14.874   5.333  1.00  0.00     0.339 C 
HETATM   24  N   UNL     1      43.041 -15.439   5.020  1.00  0.00    -0.308 N 
HETATM   25  O   UNL     1      40.712 -15.306   5.049  1.00  0.00    -0.245 OA
HETATM   26  H   UNL     1      43.848 -14.861   5.208  1.00  0.00     0.170 HD
HETATM   27  H   UNL     1      42.783 -13.522   6.607  1.00  0.00     0.192 HD
BRANCH  24  28
HETATM   28  C   UNL     1      43.275 -16.656   4.347  1.00  0.00     0.038 A 
HETATM   29  C   UNL     1      43.743 -17.816   4.970  1.00  0.00     0.055 A 
HETATM   30  C   UNL     1      43.944 -18.990   4.231  1.00  0.00     0.058 A 
HETATM   31 CL   UNL     1      44.520 -20.385   5.076  1.00  0.00    -0.082 Cl
HETATM   32  C   UNL     1      43.680 -19.009   2.859  1.00  0.00     0.055 A 
HETATM   33 CL   UNL     1      43.901 -20.419   1.885  1.00  0.00    -0.083 Cl
HETATM   34  C   UNL     1      43.220 -17.850   2.230  1.00  0.00     0.028 A 
HETATM   35  C   UNL     1      43.021 -16.682   2.970  1.00  0.00     0.031 A 
ENDBRANCH  24  28
ENDBRANCH   2  22
TORSDOF 6
ENDMDL
MODEL 4
REMARK VINA RESULT:      -9.5      1.704      2.126
REMARK  6 active torsions:
REMARK  status: ('A' for Active; 'I' for Inactive)
REMARK    1  A    between atoms: C_4  and  C_5 
REMARK    2  A    between atoms: C_5  and  C_6 
REMARK    3  A    between atoms: C_8  and  C_9 
REMARK    4  A    between atoms: C_9  and  C_10 
REMARK       I    between atoms: C_10  and  N_11 
REMARK    5  A    between atoms: N_11  and  N_12 
REMARK       I    between atoms: N_12  and  C_13 
REMARK       I    between atoms: C_13  and  N_14 
REMARK    6  A    between atoms: N_14  and  C_15 
ROOT
HETATM    1  C   UNL     1      42.051 -11.259   6.291  1.00  0.00     0.238 C 
HETATM    2  N   UNL     1      41.803 -12.604   6.461  1.00  0.00    -0.266 N 
HETATM    3  O   UNL     1      43.129 -10.824   5.894  1.00  0.00    -0.272 OA
HETATM    4  H   UNL     1      40.959 -12.982   6.895  1.00  0.00     0.190 HD
ENDROOT
BRANCH   1   5
HETATM    5  C   UNL     1      40.862 -10.397   6.633  1.00  0.00     0.139 C 
BRANCH   5   6
HETATM    6  C   UNL     1      41.167  -9.421   7.766  1.00  0.00     0.185 C 
HETATM    7  N   UNL     1      42.107 -10.020   8.711  1.00  0.00    -0.363 N 
HETATM    8  C   UNL     1      43.051  -9.230   9.325  1.00  0.00     0.125 C 
HETATM    9  H   UNL     1      41.689 -10.746   9.293  1.00  0.00     0.161 HD
HETATM   10  N   UNL     1      43.394  -8.041   8.925  1.00  0.00    -0.159 NA
HETATM   11  N   UNL     1      42.758  -7.534   7.833  1.00  0.00    -0.244 N 
HETATM   12  C   UNL     1      41.713  -8.124   7.164  1.00  0.00     0.261 C 
HETATM   13  H   UNL     1      43.106  -6.650   7.477  1.00  0.00     0.192 HD
HETATM   14  O   UNL     1      41.223  -7.594   6.166  1.00  0.00    -0.269 OA
BRANCH   8  15
HETATM   15  C   UNL     1      43.749  -9.783  10.564  1.00  0.00     0.118 C 
BRANCH  15  16
HETATM   16  C   UNL     1      43.134  -9.305  11.858  1.00  0.00    -0.051 A 
HETATM   17  C   UNL     1      43.611  -8.144  12.484  1.00  0.00     0.007 A 
HETATM   18  C   UNL     1      43.013  -7.672  13.654  1.00  0.00     0.001 A 
HETATM   19  C   UNL     1      41.931  -8.350  14.211  1.00  0.00     0.000 A 
HETATM   20  C   UNL     1      41.442  -9.500  13.593  1.00  0.00     0.001 A 
HETATM   21  C   UNL     1      42.034  -9.970  12.421  1.00  0.00     0.007 A 
ENDBRANCH  15  16
ENDBRANCH   8  15
ENDBRANCH   5   6
ENDBRANCH   1   5
BRANCH   2  22
HETATM   22  N   UNL     1      42.830 -13.522   6.194  1.00  0.00    -0.249 N 
HETATM   23  C   UNL     1      42.503 -14.601   5.385  1.00  0.00     0.339 C 
HETATM   24  N   UNL     1      43.564 -15.467   5.243  1.00  0.00    -0.308 N 
HETATM   25  O   UNL     1      41.399 -14.689   4.857  1.00  0.00    -0.245 OA
HETATM   26  H   UNL     1      44.438 -15.149   5.636  1.00  0.00     0.170 HD
HETATM   27  H   UNL     1      43.501 -13.638   6.950  1.00  0.00     0.192 HD
BRANCH  24  28
HETATM   28  C   UNL     1      43.602 -16.665   4.500  1.00  0.00     0.038 A 
HETATM   29  C   UNL     1      43.960 -17.905   5.034  1.00  0.00     0.055 A 
HETATM   30  C   UNL     1      43.966 -19.053   4.230  1.00  0.00     0.058 A 
HETATM   31 CL   UNL     1      44.416 -20.551   4.967  1.00  0.00    -0.082 Cl
HETATM   32  C   UNL     1      43.615 -18.965   2.880  1.00  0.00     0.055 A 
HETATM   33 CL   UNL     1      43.596 -20.336   1.829  1.00  0.00    -0.083 Cl
HETATM   34  C   UNL     1      43.264 -17.727   2.339  1.00  0.00     0.028 A 
HETATM   35  C   UNL     1      43.260 -16.585   3.145  1.00  0.00     0.031 A 
ENDBRANCH  24  28
ENDBRANCH   2  22
TORSDOF 6
ENDMDL
MODEL 5
REMARK VINA RESULT:      -9.5      4.751     11.049
REMARK  6 active torsions:
REMARK  status: ('A' for Active; 'I' for Inactive)
REMARK    1  A    between atoms: C_4  and  C_5 
REMARK    2  A    between atoms: C_5  and  C_6 
REMARK    3  A    between atoms: C_8  and  C_9 
REMARK    4  A    between atoms: C_9  and  C_10 
REMARK       I    between atoms: C_10  and  N_11 
REMARK    5  A    between atoms: N_11  and  N_12 
REMARK       I    between atoms: N_12  and  C_13 
REMARK       I    between atoms: C_13  and  N_14 
REMARK    6  A    between atoms: N_14  and  C_15 
ROOT
HETATM    1  C   UNL     1      42.842 -12.317   5.879  1.00  0.00     0.238 C 
HETATM    2  N   UNL     1      42.235 -11.438   6.750  1.00  0.00    -0.266 N 
HETATM    3  O   UNL     1      44.022 -12.646   5.978  1.00  0.00    -0.272 OA
HETATM    4  H   UNL     1      41.293 -11.064   6.623  1.00  0.00     0.190 HD
ENDROOT
BRANCH   1   5
HETATM    5  C   UNL     1      41.905 -12.828   4.815  1.00  0.00     0.139 C 
BRANCH   5   6
HETATM    6  C   UNL     1      41.699 -14.338   4.909  1.00  0.00     0.185 C 
HETATM    7  N   UNL     1      42.987 -15.027   4.880  1.00  0.00    -0.363 N 
HETATM    8  C   UNL     1      43.164 -16.169   5.628  1.00  0.00     0.125 C 
HETATM    9  H   UNL     1      43.425 -15.028   3.960  1.00  0.00     0.161 HD
HETATM   10  N   UNL     1      42.390 -16.540   6.605  1.00  0.00    -0.159 NA
HETATM   11  N   UNL     1      41.316 -15.755   6.894  1.00  0.00    -0.244 N 
HETATM   12  C   UNL     1      40.914 -14.649   6.185  1.00  0.00     0.261 C 
HETATM   13  H   UNL     1      40.782 -16.005   7.719  1.00  0.00     0.192 HD
HETATM   14  O   UNL     1      39.940 -13.987   6.546  1.00  0.00    -0.269 OA
BRANCH   8  15
HETATM   15  C   UNL     1      44.352 -17.066   5.294  1.00  0.00     0.118 C 
BRANCH  15  16
HETATM   16  C   UNL     1      43.996 -18.203   4.365  1.00  0.00    -0.051 A 
HETATM   17  C   UNL     1      43.523 -17.939   3.071  1.00  0.00     0.007 A 
HETATM   18  C   UNL     1      43.238 -18.987   2.193  1.00  0.00     0.001 A 
HETATM   19  C   UNL     1      43.427 -20.308   2.594  1.00  0.00     0.000 A 
HETATM   20  C   UNL     1      43.906 -20.582   3.873  1.00  0.00     0.001 A 
HETATM   21  C   UNL     1      44.196 -19.536   4.751  1.00  0.00     0.007 A 
ENDBRANCH  15  16
ENDBRANCH   8  15
ENDBRANCH   5   6
ENDBRANCH   1   5
BRANCH   2  22
HETATM   22  N   UNL     1      42.996 -10.872   7.783  1.00  0.00    -0.249 N 
HETATM   23  C   UNL     1      42.410  -9.830   8.488  1.00  0.00     0.339 C 
HETATM   24  N   UNL     1      43.267  -9.310   9.431  1.00  0.00    -0.308 N 
HETATM   25  O   UNL     1      41.249  -9.493   8.275  1.00  0.00    -0.245 OA
HETATM   26  H   UNL     1      44.131  -9.818   9.557  1.00  0.00     0.170 HD
HETATM   27  H   UNL     1      44.000 -10.872   7.618  1.00  0.00     0.192 HD
BRANCH  24  28
HETATM   28  C   UNL     1      43.019  -8.250  10.327  1.00  0.00     0.038 A 
HETATM   29  C   UNL     1      43.019  -8.385  11.717  1.00  0.00     0.055 A 
HETATM   30  C   UNL     1      42.770  -7.279  12.541  1.00  0.00     0.058 A 
HETATM   31 CL   UNL     1      42.793  -7.528  14.252  1.00  0.00    -0.082 Cl
HETATM   32  C   UNL     1      42.514  -6.027  11.975  1.00  0.00     0.055 A 
HETATM   33 CL   UNL     1      42.202  -4.620  12.927  1.00  0.00    -0.083 Cl
HETATM   34  C   UNL     1      42.504  -5.888  10.587  1.00  0.00     0.028 A 
HETATM   35  C   UNL     1      42.754  -6.993   9.769  1.00  0.00     0.031 A 
ENDBRANCH  24  28
ENDBRANCH   2  22
TORSDOF 6
ENDMDL
MODEL 6
REMARK VINA RESULT:      -9.4      4.848     10.622
REMARK  6 active torsions:
REMARK  status: ('A' for Active; 'I' for Inactive)
REMARK    1  A    between atoms: C_4  and  C_5 
REMARK    2  A    between atoms: C_5  and  C_6 
REMARK    3  A    between atoms: C_8  and  C_9 
REMARK    4  A    between atoms: C_9  and  C_10 
REMARK       I    between atoms: C_10  and  N_11 
REMARK    5  A    between atoms: N_11  and  N_12 
REMARK       I    between atoms: N_12  and  C_13 
REMARK       I    between atoms: C_13  and  N_14 
REMARK    6  A    between atoms: N_14  and  C_15 
ROOT
HETATM    1  C   UNL     1      43.380 -11.666   5.563  1.00  0.00     0.238 C 
HETATM    2  N   UNL     1      42.550 -10.598   5.827  1.00  0.00    -0.266 N 
HETATM    3  O   UNL     1      43.586 -12.568   6.372  1.00  0.00    -0.272 OA
HETATM    4  H   UNL     1      42.452  -9.783   5.220  1.00  0.00     0.190 HD
ENDROOT
BRANCH   1   5
HETATM    5  C   UNL     1      43.988 -11.608   4.185  1.00  0.00     0.139 C 
BRANCH   5   6
HETATM    6  C   UNL     1      43.316 -12.581   3.219  1.00  0.00     0.185 C 
HETATM    7  N   UNL     1      42.745 -13.709   3.953  1.00  0.00    -0.363 N 
HETATM    8  C   UNL     1      41.567 -14.274   3.523  1.00  0.00     0.125 C 
HETATM    9  H   UNL     1      43.448 -14.360   4.304  1.00  0.00     0.161 HD
HETATM   10  N   UNL     1      40.737 -13.712   2.693  1.00  0.00    -0.159 NA
HETATM   11  N   UNL     1      41.070 -12.489   2.198  1.00  0.00    -0.244 N 
HETATM   12  C   UNL     1      42.253 -11.825   2.419  1.00  0.00     0.261 C 
HETATM   13  H   UNL     1      40.368 -12.024   1.633  1.00  0.00     0.192 HD
HETATM   14  O   UNL     1      42.446 -10.705   1.946  1.00  0.00    -0.269 OA
BRANCH   8  15
HETATM   15  C   UNL     1      41.200 -15.656   4.055  1.00  0.00     0.118 C 
BRANCH  15  16
HETATM   16  C   UNL     1      42.247 -16.704   3.761  1.00  0.00    -0.051 A 
HETATM   17  C   UNL     1      43.142 -17.112   4.761  1.00  0.00     0.007 A 
HETATM   18  C   UNL     1      44.080 -18.116   4.507  1.00  0.00     0.001 A 
HETATM   19  C   UNL     1      44.133 -18.724   3.255  1.00  0.00     0.000 A 
HETATM   20  C   UNL     1      43.243 -18.334   2.256  1.00  0.00     0.001 A 
HETATM   21  C   UNL     1      42.302 -17.335   2.509  1.00  0.00     0.007 A 
ENDBRANCH  15  16
ENDBRANCH   8  15
ENDBRANCH   5   6
ENDBRANCH   1   5
BRANCH   2  22
HETATM   22  N   UNL     1      41.927 -10.517   7.082  1.00  0.00    -0.249 N 
HETATM   23  C   UNL     1      42.527  -9.689   8.020  1.00  0.00     0.339 C 
HETATM   24  N   UNL     1      41.872  -9.736   9.230  1.00  0.00    -0.308 N 
HETATM   25  O   UNL     1      43.495  -8.994   7.729  1.00  0.00    -0.245 OA
HETATM   26  H   UNL     1      41.006 -10.256   9.233  1.00  0.00     0.170 HD
HETATM   27  H   UNL     1      41.465 -11.372   7.381  1.00  0.00     0.192 HD
BRANCH  24  28
HETATM   28  C   UNL     1      42.194  -9.033  10.410  1.00  0.00     0.038 A 
HETATM   29  C   UNL     1      42.069  -7.649  10.553  1.00  0.00     0.055 A 
HETATM   30  C   UNL     1      42.404  -7.024  11.762  1.00  0.00     0.058 A 
HETATM   31 CL   UNL     1      42.217  -5.308  11.861  1.00  0.00    -0.082 Cl
HETATM   32  C   UNL     1      42.869  -7.785  12.839  1.00  0.00     0.055 A 
HETATM   33 CL   UNL     1      43.297  -7.085  14.359  1.00  0.00    -0.083 Cl
HETATM   34  C   UNL     1      43.003  -9.167  12.698  1.00  0.00     0.028 A 
HETATM   35  C   UNL     1      42.668  -9.786  11.491  1.00  0.00     0.031 A 
ENDBRANCH  24  28
ENDBRANCH   2  22
TORSDOF 6
ENDMDL
MODEL 7
REMARK VINA RESULT:      -9.2      4.878     10.533
REMARK  6 active torsions:
REMARK  status: ('A' for Active; 'I' for Inactive)
REMARK    1  A    between atoms: C_4  and  C_5 
REMARK    2  A    between atoms: C_5  and  C_6 
REMARK    3  A    between atoms: C_8  and  C_9 
REMARK    4  A    between atoms: C_9  and  C_10 
REMARK       I    between atoms: C_10  and  N_11 
REMARK    5  A    between atoms: N_11  and  N_12 
REMARK       I    between atoms: N_12  and  C_13 
REMARK       I    between atoms: C_13  and  N_14 
REMARK    6  A    between atoms: N_14  and  C_15 
ROOT
HETATM    1  C   UNL     1      43.843 -11.803   6.873  1.00  0.00     0.238 C 
HETATM    2  N   UNL     1      44.001 -10.544   7.411  1.00  0.00    -0.266 N 
HETATM    3  O   UNL     1      43.947 -12.831   7.538  1.00  0.00    -0.272 OA
HETATM    4  H   UNL     1      44.032  -9.684   6.861  1.00  0.00     0.190 HD
ENDROOT
BRANCH   1   5
HETATM    5  C   UNL     1      43.524 -11.774   5.400  1.00  0.00     0.139 C 
BRANCH   5   6
HETATM    6  C   UNL     1      42.158 -12.385   5.096  1.00  0.00     0.185 C 
HETATM    7  N   UNL     1      42.172 -13.820   5.376  1.00  0.00    -0.363 N 
HETATM    8  C   UNL     1      41.045 -14.425   5.881  1.00  0.00     0.125 C 
HETATM    9  H   UNL     1      42.696 -14.361   4.689  1.00  0.00     0.161 HD
HETATM   10  N   UNL     1      40.046 -13.792   6.425  1.00  0.00    -0.159 NA
HETATM   11  N   UNL     1      40.112 -12.434   6.477  1.00  0.00    -0.244 N 
HETATM   12  C   UNL     1      41.098 -11.654   5.921  1.00  0.00     0.261 C 
HETATM   13  H   UNL     1      39.374 -11.965   6.991  1.00  0.00     0.192 HD
HETATM   14  O   UNL     1      41.080 -10.429   6.049  1.00  0.00    -0.269 OA
BRANCH   8  15
HETATM   15  C   UNL     1      40.954 -15.946   5.803  1.00  0.00     0.118 C 
BRANCH  15  16
HETATM   16  C   UNL     1      41.790 -16.536   4.692  1.00  0.00    -0.051 A 
HETATM   17  C   UNL     1      42.982 -17.215   4.987  1.00  0.00     0.007 A 
HETATM   18  C   UNL     1      43.733 -17.804   3.968  1.00  0.00     0.001 A 
HETATM   19  C   UNL     1      43.302 -17.725   2.645  1.00  0.00     0.000 A 
HETATM   20  C   UNL     1      42.115 -17.061   2.341  1.00  0.00     0.001 A 
HETATM   21  C   UNL     1      41.360 -16.477   3.359  1.00  0.00     0.007 A 
ENDBRANCH  15  16
ENDBRANCH   8  15
ENDBRANCH   5   6
ENDBRANCH   1   5
BRANCH   2  22
HETATM   22  N   UNL     1      44.316 -10.423   8.773  1.00  0.00    -0.249 N 
HETATM   23  C   UNL     1      43.400  -9.745   9.564  1.00  0.00     0.339 C 
HETATM   24  N   UNL     1      43.841  -9.631  10.864  1.00  0.00    -0.308 N 
HETATM   25  O   UNL     1      42.328  -9.360   9.109  1.00  0.00    -0.245 OA
HETATM   26  H   UNL     1      44.685 -10.141  11.081  1.00  0.00     0.170 HD
HETATM   27  H   UNL     1      45.311 -10.351   8.971  1.00  0.00     0.192 HD
BRANCH  24  28
HETATM   28  C   UNL     1      43.180  -9.008  11.943  1.00  0.00     0.038 A 
HETATM   29  C   UNL     1      43.092  -7.624  12.111  1.00  0.00     0.055 A 
HETATM   30  C   UNL     1      42.410  -7.082  13.209  1.00  0.00     0.058 A 
HETATM   31 CL   UNL     1      42.340  -5.359  13.343  1.00  0.00    -0.082 Cl
HETATM   32  C   UNL     1      41.814  -7.925  14.151  1.00  0.00     0.055 A 
HETATM   33 CL   UNL     1      40.955  -7.329  15.526  1.00  0.00    -0.083 Cl
HETATM   34  C   UNL     1      41.907  -9.309  13.992  1.00  0.00     0.028 A 
HETATM   35  C   UNL     1      42.587  -9.845  12.896  1.00  0.00     0.031 A 
ENDBRANCH  24  28
ENDBRANCH   2  22
TORSDOF 6
ENDMDL
MODEL 8
REMARK VINA RESULT:      -9.1      2.416      2.710
REMARK  6 active torsions:
REMARK  status: ('A' for Active; 'I' for Inactive)
REMARK    1  A    between atoms: C_4  and  C_5 
REMARK    2  A    between atoms: C_5  and  C_6 
REMARK    3  A    between atoms: C_8  and  C_9 
REMARK    4  A    between atoms: C_9  and  C_10 
REMARK       I    between atoms: C_10  and  N_11 
REMARK    5  A    between atoms: N_11  and  N_12 
REMARK       I    between atoms: N_12  and  C_13 
REMARK       I    between atoms: C_13  and  N_14 
REMARK    6  A    between atoms: N_14  and  C_15 
ROOT
HETATM    1  C   UNL     1      39.348 -10.203   8.074  1.00  0.00     0.238 C 
HETATM    2  N   UNL     1      39.931 -10.802   6.978  1.00  0.00    -0.266 N 
HETATM    3  O   UNL     1      38.675 -10.823   8.894  1.00  0.00    -0.272 OA
HETATM    4  H   UNL     1      40.397 -10.293   6.226  1.00  0.00     0.190 HD
ENDROOT
BRANCH   1   5
HETATM    5  C   UNL     1      39.636  -8.726   8.156  1.00  0.00     0.139 C 
BRANCH   5   6
HETATM    6  C   UNL     1      40.984  -8.438   8.812  1.00  0.00     0.185 C 
HETATM    7  N   UNL     1      41.160  -9.278   9.995  1.00  0.00    -0.363 N 
HETATM    8  C   UNL     1      42.411  -9.755  10.310  1.00  0.00     0.125 C 
HETATM    9  H   UNL     1      40.583  -8.989  10.785  1.00  0.00     0.161 HD
HETATM   10  N   UNL     1      43.420  -9.786   9.488  1.00  0.00    -0.159 NA
HETATM   11  N   UNL     1      43.229  -9.290   8.235  1.00  0.00    -0.244 N 
HETATM   12  C   UNL     1      42.091  -8.667   7.781  1.00  0.00     0.261 C 
HETATM   13  H   UNL     1      43.993  -9.412   7.580  1.00  0.00     0.192 HD
HETATM   14  O   UNL     1      42.009  -8.277   6.615  1.00  0.00    -0.269 OA
BRANCH   8  15
HETATM   15  C   UNL     1      42.638 -10.290  11.721  1.00  0.00     0.118 C 
BRANCH  15  16
HETATM   16  C   UNL     1      42.527  -9.225  12.786  1.00  0.00    -0.051 A 
HETATM   17  C   UNL     1      41.599  -9.361  13.829  1.00  0.00     0.007 A 
HETATM   18  C   UNL     1      41.526  -8.403  14.843  1.00  0.00     0.001 A 
HETATM   19  C   UNL     1      42.379  -7.302  14.829  1.00  0.00     0.000 A 
HETATM   20  C   UNL     1      43.312  -7.161  13.803  1.00  0.00     0.001 A 
HETATM   21  C   UNL     1      43.390  -8.120  12.792  1.00  0.00     0.007 A 
ENDBRANCH  15  16
ENDBRANCH   8  15
ENDBRANCH   5   6
ENDBRANCH   1   5
BRANCH   2  22
HETATM   22  N   UNL     1      39.732 -12.175   6.770  1.00  0.00    -0.249 N 
HETATM   23  C   UNL     1      40.634 -12.813   5.929  1.00  0.00     0.339 C 
HETATM   24  N   UNL     1      40.306 -14.137   5.746  1.00  0.00    -0.308 N 
HETATM   25  O   UNL     1      41.606 -12.220   5.473  1.00  0.00    -0.245 OA
HETATM   26  H   UNL     1      39.551 -14.480   6.323  1.00  0.00     0.170 HD
HETATM   27  H   UNL     1      38.759 -12.469   6.788  1.00  0.00     0.192 HD
BRANCH  24  28
HETATM   28  C   UNL     1      40.988 -15.091   4.962  1.00  0.00     0.038 A 
HETATM   29  C   UNL     1      42.034 -15.887   5.434  1.00  0.00     0.055 A 
HETATM   30  C   UNL     1      42.658 -16.818   4.592  1.00  0.00     0.058 A 
HETATM   31 CL   UNL     1      43.941 -17.769   5.254  1.00  0.00    -0.082 Cl
HETATM   32  C   UNL     1      42.237 -16.956   3.267  1.00  0.00     0.055 A 
HETATM   33 CL   UNL     1      42.956 -18.084   2.173  1.00  0.00    -0.083 Cl
HETATM   34  C   UNL     1      41.198 -16.157   2.787  1.00  0.00     0.028 A 
HETATM   35  C   UNL     1      40.579 -15.230   3.630  1.00  0.00     0.031 A 
ENDBRANCH  24  28
ENDBRANCH   2  22
TORSDOF 6
ENDMDL
MODEL 9
REMARK VINA RESULT:      -9.0      2.591      3.812
REMARK  6 active torsions:
REMARK  status: ('A' for Active; 'I' for Inactive)
REMARK    1  A    between atoms: C_4  and  C_5 
REMARK    2  A    between atoms: C_5  and  C_6 
REMARK    3  A    between atoms: C_8  and  C_9 
REMARK    4  A    between atoms: C_9  and  C_10 
REMARK       I    between atoms: C_10  and  N_11 
REMARK    5  A    between atoms: N_11  and  N_12 
REMARK       I    between atoms: N_12  and  C_13 
REMARK       I    between atoms: C_13  and  N_14 
REMARK    6  A    between atoms: N_14  and  C_15 
ROOT
HETATM    1  C   UNL     1      41.290 -11.054   6.239  1.00  0.00     0.238 C 
HETATM    2  N   UNL     1      41.189 -12.428   6.188  1.00  0.00    -0.266 N 
HETATM    3  O   UNL     1      42.317 -10.448   5.945  1.00  0.00    -0.272 OA
HETATM    4  H   UNL     1      40.389 -12.958   6.533  1.00  0.00     0.190 HD
ENDROOT
BRANCH   1   5
HETATM    5  C   UNL     1      40.011 -10.390   6.683  1.00  0.00     0.139 C 
BRANCH   5   6
HETATM    6  C   UNL     1      40.159  -8.874   6.791  1.00  0.00     0.185 C 
HETATM    7  N   UNL     1      41.253  -8.537   7.699  1.00  0.00    -0.363 N 
HETATM    8  C   UNL     1      42.037  -7.436   7.440  1.00  0.00     0.125 C 
HETATM    9  H   UNL     1      41.030  -8.701   8.680  1.00  0.00     0.161 HD
HETATM   10  N   UNL     1      42.096  -6.824   6.293  1.00  0.00    -0.159 NA
HETATM   11  N   UNL     1      41.311  -7.293   5.285  1.00  0.00    -0.244 N 
HETATM   12  C   UNL     1      40.383  -8.301   5.390  1.00  0.00     0.261 C 
HETATM   13  H   UNL     1      41.444  -6.867   4.374  1.00  0.00     0.192 HD
HETATM   14  O   UNL     1      39.740  -8.672   4.407  1.00  0.00    -0.269 OA
BRANCH   8  15
HETATM   15  C   UNL     1      42.900  -6.890   8.573  1.00  0.00     0.118 C 
BRANCH  15  16
HETATM   16  C   UNL     1      43.746  -7.949   9.240  1.00  0.00    -0.051 A 
HETATM   17  C   UNL     1      44.874  -8.469   8.589  1.00  0.00     0.007 A 
HETATM   18  C   UNL     1      45.687  -9.413   9.221  1.00  0.00     0.001 A 
HETATM   19  C   UNL     1      45.384  -9.845  10.511  1.00  0.00     0.000 A 
HETATM   20  C   UNL     1      44.270  -9.330  11.171  1.00  0.00     0.001 A 
HETATM   21  C   UNL     1      43.461  -8.382  10.543  1.00  0.00     0.007 A 
ENDBRANCH  15  16
ENDBRANCH   8  15
ENDBRANCH   5   6
ENDBRANCH   1   5
BRANCH   2  22
HETATM   22  N   UNL     1      42.313 -13.176   5.804  1.00  0.00    -0.249 N 
HETATM   23  C   UNL     1      42.067 -14.390   5.178  1.00  0.00     0.339 C 
HETATM   24  N   UNL     1      43.235 -15.066   4.906  1.00  0.00    -0.308 N 
HETATM   25  O   UNL     1      40.925 -14.738   4.892  1.00  0.00    -0.245 OA
HETATM   26  H   UNL     1      44.085 -14.550   5.086  1.00  0.00     0.170 HD
HETATM   27  H   UNL     1      43.118 -13.075   6.418  1.00  0.00     0.192 HD
BRANCH  24  28
HETATM   28  C   UNL     1      43.375 -16.323   4.282  1.00  0.00     0.038 A 
HETATM   29  C   UNL     1      43.760 -17.488   4.949  1.00  0.00     0.055 A 
HETATM   30  C   UNL     1      43.870 -18.702   4.258  1.00  0.00     0.058 A 
HETATM   31 CL   UNL     1      44.347 -20.100   5.157  1.00  0.00    -0.082 Cl
HETATM   32  C   UNL     1      43.596 -18.756   2.889  1.00  0.00     0.055 A 
HETATM   33 CL   UNL     1      43.707 -20.217   1.972  1.00  0.00    -0.083 Cl
HETATM   34  C   UNL     1      43.219 -17.593   2.216  1.00  0.00     0.028 A 
HETATM   35  C   UNL     1      43.111 -16.385   2.909  1.00  0.00     0.031 A 
ENDBRANCH  24  28
ENDBRANCH   2  22
TORSDOF 6
ENDMDL
MODEL 10
REMARK VINA RESULT:      -8.9      5.432     11.514
REMARK  6 active torsions:
REMARK  status: ('A' for Active; 'I' for Inactive)
REMARK    1  A    between atoms: C_4  and  C_5 
REMARK    2  A    between atoms: C_5  and  C_6 
REMARK    3  A    between atoms: C_8  and  C_9 
REMARK    4  A    between atoms: C_9  and  C_10 
REMARK       I    between atoms: C_10  and  N_11 
REMARK    5  A    between atoms: N_11  and  N_12 
REMARK       I    between atoms: N_12  and  C_13 
REMARK       I    between atoms: C_13  and  N_14 
REMARK    6  A    between atoms: N_14  and  C_15 
ROOT
HETATM    1  C   UNL     1      43.053 -11.903   6.317  1.00  0.00     0.238 C 
HETATM    2  N   UNL     1      43.360 -11.320   7.528  1.00  0.00    -0.266 N 
HETATM    3  O   UNL     1      43.103 -11.294   5.251  1.00  0.00    -0.272 OA
HETATM    4  H   UNL     1      43.218 -11.770   8.433  1.00  0.00     0.190 HD
ENDROOT
BRANCH   1   5
HETATM    5  C   UNL     1      42.666 -13.354   6.447  1.00  0.00     0.139 C 
BRANCH   5   6
HETATM    6  C   UNL     1      41.968 -13.877   5.194  1.00  0.00     0.185 C 
HETATM    7  N   UNL     1      42.846 -14.794   4.471  1.00  0.00    -0.363 N 
HETATM    8  C   UNL     1      42.308 -15.882   3.823  1.00  0.00     0.125 C 
HETATM    9  H   UNL     1      43.612 -14.325   3.989  1.00  0.00     0.161 HD
HETATM   10  N   UNL     1      41.115 -16.354   4.038  1.00  0.00    -0.159 NA
HETATM   11  N   UNL     1      40.336 -15.714   4.951  1.00  0.00    -0.244 N 
HETATM   12  C   UNL     1      40.657 -14.549   5.606  1.00  0.00     0.261 C 
HETATM   13  H   UNL     1      39.450 -16.153   5.177  1.00  0.00     0.192 HD
HETATM   14  O   UNL     1      39.891 -14.063   6.439  1.00  0.00    -0.269 OA
BRANCH   8  15
HETATM   15  C   UNL     1      43.167 -16.590   2.780  1.00  0.00     0.118 C 
BRANCH  15  16
HETATM   16  C   UNL     1      43.396 -18.051   3.089  1.00  0.00    -0.051 A 
HETATM   17  C   UNL     1      43.118 -19.031   2.125  1.00  0.00     0.007 A 
HETATM   18  C   UNL     1      43.374 -20.379   2.390  1.00  0.00     0.001 A 
HETATM   19  C   UNL     1      43.913 -20.762   3.616  1.00  0.00     0.000 A 
HETATM   20  C   UNL     1      44.201 -19.796   4.578  1.00  0.00     0.001 A 
HETATM   21  C   UNL     1      43.952 -18.449   4.314  1.00  0.00     0.007 A 
ENDBRANCH  15  16
ENDBRANCH   8  15
ENDBRANCH   5   6
ENDBRANCH   1   5
BRANCH   2  22
HETATM   22  N   UNL     1      43.723  -9.965   7.556  1.00  0.00    -0.249 N 
HETATM   23  C   UNL     1      42.855  -9.103   8.211  1.00  0.00     0.339 C 
HETATM   24  N   UNL     1      43.276  -7.795   8.120  1.00  0.00    -0.308 N 
HETATM   25  O   UNL     1      41.873  -9.526   8.814  1.00  0.00    -0.245 OA
HETATM   26  H   UNL     1      44.188  -7.662   7.707  1.00  0.00     0.170 HD
HETATM   27  H   UNL     1      44.233  -9.647   6.735  1.00  0.00     0.192 HD
BRANCH  24  28
HETATM   28  C   UNL     1      42.651  -6.652   8.660  1.00  0.00     0.038 A 
HETATM   29  C   UNL     1      42.798  -6.234   9.985  1.00  0.00     0.055 A 
HETATM   30  C   UNL     1      42.147  -5.080  10.444  1.00  0.00     0.058 A 
HETATM   31 CL   UNL     1      42.384  -4.626  12.096  1.00  0.00    -0.082 Cl
HETATM   32  C   UNL     1      41.341  -4.338   9.577  1.00  0.00     0.055 A 
HETATM   33 CL   UNL     1      40.512  -2.905  10.071  1.00  0.00    -0.083 Cl
HETATM   34  C   UNL     1      41.184  -4.757   8.255  1.00  0.00     0.028 A 
HETATM   35  C   UNL     1      41.834  -5.907   7.801  1.00  0.00     0.031 A 
ENDBRANCH  24  28
ENDBRANCH   2  22
TORSDOF 6
ENDMDL
