MODEL 1
REMARK VINA RESULT:      -8.8      0.000      0.000
REMARK  7 active torsions:
REMARK  status: ('A' for Active; 'I' for Inactive)
REMARK    1  A    between atoms: C_3  and  C_4 
REMARK    2  A    between atoms: C_9  and  N_10 
REMARK       I    between atoms: N_10  and  C_11 
REMARK       I    between atoms: C_11  and  N_15 
REMARK    3  A    between atoms: N_15  and  CA_16 
REMARK    4  A    between atoms: CA_16  and  C_17 
REMARK    5  A    between atoms: CA_16  and  CB_19 
REMARK    6  A    between atoms: C_17  and  O_18 
REMARK    7  A    between atoms: CB_19  and  CG_20 
ROOT
HETATM    1  N   UNK A   0      39.485 -13.309   3.325  1.00  0.00    -0.309 N 
HETATM    2  C   UNK A   0      40.220 -13.679   4.409  1.00  0.00     0.321 C 
HETATM    3  O   UNK A   0      40.003 -13.143   5.494  1.00  0.00    -0.247 OA
HETATM    4  H   UNK A   0      38.725 -12.700   3.607  1.00  0.00     0.170 HD
ATOM      5  N   TRP A   1      41.142 -14.661   4.239  1.00  0.00    -0.336 N 
ATOM      6  H   TRP A   1      40.833 -15.385   3.603  1.00  0.00     0.164 HD
ENDROOT
BRANCH   5   7
ATOM      7  CA  TRP A   1      41.924 -15.190   5.368  1.00  0.00     0.114 C 
BRANCH   7   8
ATOM      8  C   TRP A   1      41.161 -16.376   5.990  1.00  0.00     0.189 C 
BRANCH   8   9
ATOM      9  O   TRP A   1      40.256 -15.902   6.991  1.00  0.00    -0.399 OA
ATOM     10  H   TRP A   1      39.558 -16.575   7.073  1.00  0.00     0.209 HD
ENDBRANCH   8   9
ENDBRANCH   7   8
BRANCH   7  11
ATOM     11  CB  TRP A   1      43.326 -15.611   4.877  1.00  0.00     0.068 C 
BRANCH  11  12
ATOM     12  CG  TRP A   1      43.332 -16.745   3.885  1.00  0.00    -0.028 A 
ATOM     13  CD2 TRP A   1      43.600 -18.137   4.116  1.00  0.00    -0.002 A 
ATOM     14  CE2 TRP A   1      43.505 -18.792   2.886  1.00  0.00     0.042 A 
ATOM     15  CE3 TRP A   1      43.909 -18.913   5.254  1.00  0.00     0.014 A 
ATOM     16  CZ2 TRP A   1      43.692 -20.173   2.741  1.00  0.00     0.030 A 
ATOM     17  NE1 TRP A   1      43.212 -17.840   1.941  1.00  0.00    -0.365 N 
ATOM     18  CH2 TRP A   1      43.980 -20.915   3.888  1.00  0.00     0.002 A 
ATOM     19  CZ3 TRP A   1      44.087 -20.295   5.129  1.00  0.00     0.001 A 
ATOM     20  HE1 TRP A   1      43.097 -18.029   0.955  1.00  0.00     0.165 HD
ATOM     21  CD1 TRP A   1      43.104 -16.609   2.527  1.00  0.00     0.096 A 
ENDBRANCH  11  12
ENDBRANCH   7  11
ENDBRANCH   5   7
BRANCH   1  22
HETATM   22  C   UNK A   0      39.595 -13.577   1.948  1.00  0.00     0.036 A 
HETATM   23  C   UNK A   0      39.990 -14.797   1.403  1.00  0.00     0.030 A 
HETATM   24  C   UNK A   0      40.040 -14.973   0.014  1.00  0.00     0.018 A 
HETATM   25  C   UNK A   0      39.726 -13.919  -0.855  1.00  0.00     0.015 A 
HETATM   26  C   UNK A   0      39.381 -12.663  -0.323  1.00  0.00    -0.046 A 
HETATM   27  C   UNK A   0      39.056 -11.477  -1.190  1.00  0.00     0.049 C 
HETATM   28  C   UNK A   0      39.316 -12.514   1.076  1.00  0.00     0.037 A 
BRANCH  25  29
HETATM   29  C   UNK A   0      39.747 -14.162  -2.328  1.00  0.00     0.156 C 
HETATM   30  C   UNK A   0      38.536 -14.787  -2.971  1.00  0.00     0.097 C 
HETATM   31  O   UNK A   0      40.720 -13.827  -3.000  1.00  0.00    -0.293 OA
ENDBRANCH  25  29
ENDBRANCH   1  22
TORSDOF 7
ENDMDL
MODEL 2
REMARK VINA RESULT:      -8.6      2.602      6.422
REMARK  7 active torsions:
REMARK  status: ('A' for Active; 'I' for Inactive)
REMARK    1  A    between atoms: C_3  and  C_4 
REMARK    2  A    between atoms: C_9  and  N_10 
REMARK       I    between atoms: N_10  and  C_11 
REMARK       I    between atoms: C_11  and  N_15 
REMARK    3  A    between atoms: N_15  and  CA_16 
REMARK    4  A    between atoms: CA_16  and  C_17 
REMARK    5  A    between atoms: CA_16  and  CB_19 
REMARK    6  A    between atoms: C_17  and  O_18 
REMARK    7  A    between atoms: CB_19  and  CG_20 
ROOT
HETATM    1  N   UNK A   0      42.474 -14.826   1.396  1.00  0.00    -0.309 N 
HETATM    2  C   UNK A   0      41.764 -13.674   1.549  1.00  0.00     0.321 C 
HETATM    3  O   UNK A   0      41.690 -12.885   0.610  1.00  0.00    -0.247 OA
HETATM    4  H   UNK A   0      42.749 -14.942   0.427  1.00  0.00     0.170 HD
ATOM      5  N   TRP A   1      41.139 -13.474   2.737  1.00  0.00    -0.336 N 
ATOM      6  H   TRP A   1      40.756 -14.325   3.128  1.00  0.00     0.164 HD
ENDROOT
BRANCH   5   7
ATOM      7  CA  TRP A   1      40.278 -12.303   2.969  1.00  0.00     0.114 C 
BRANCH   7   8
ATOM      8  C   TRP A   1      38.869 -12.606   2.426  1.00  0.00     0.189 C 
BRANCH   8   9
ATOM      9  O   TRP A   1      38.517 -13.963   2.710  1.00  0.00    -0.399 OA
ATOM     10  H   TRP A   1      39.100 -14.519   2.164  1.00  0.00     0.209 HD
ENDBRANCH   8   9
ENDBRANCH   7   8
BRANCH   7  11
ATOM     11  CB  TRP A   1      40.247 -11.971   4.477  1.00  0.00     0.068 C 
BRANCH  11  12
ATOM     12  CG  TRP A   1      41.445 -12.452   5.252  1.00  0.00    -0.028 A 
ATOM     13  CD2 TRP A   1      41.606 -13.677   5.986  1.00  0.00    -0.002 A 
ATOM     14  CE2 TRP A   1      42.884 -13.663   6.550  1.00  0.00     0.042 A 
ATOM     15  CE3 TRP A   1      40.792 -14.805   6.223  1.00  0.00     0.014 A 
ATOM     16  CZ2 TRP A   1      43.387 -14.717   7.325  1.00  0.00     0.030 A 
ATOM     17  NE1 TRP A   1      43.472 -12.474   6.194  1.00  0.00    -0.365 N 
ATOM     18  CH2 TRP A   1      42.564 -15.826   7.527  1.00  0.00     0.002 A 
ATOM     19  CZ3 TRP A   1      41.283 -15.872   6.985  1.00  0.00     0.001 A 
ATOM     20  HE1 TRP A   1      44.400 -12.188   6.475  1.00  0.00     0.165 HD
ATOM     21  CD1 TRP A   1      42.621 -11.740   5.415  1.00  0.00     0.096 A 
ENDBRANCH  11  12
ENDBRANCH   7  11
ENDBRANCH   5   7
BRANCH   1  22
HETATM   22  C   UNK A   0      42.901 -15.823   2.292  1.00  0.00     0.036 A 
HETATM   23  C   UNK A   0      43.416 -15.582   3.564  1.00  0.00     0.030 A 
HETATM   24  C   UNK A   0      43.788 -16.647   4.395  1.00  0.00     0.018 A 
HETATM   25  C   UNK A   0      43.679 -17.973   3.953  1.00  0.00     0.015 A 
HETATM   26  C   UNK A   0      43.215 -18.232   2.651  1.00  0.00    -0.046 A 
HETATM   27  C   UNK A   0      43.094 -19.626   2.097  1.00  0.00     0.049 C 
HETATM   28  C   UNK A   0      42.827 -17.148   1.841  1.00  0.00     0.037 A 
BRANCH  25  29
HETATM   29  C   UNK A   0      44.041 -19.081   4.887  1.00  0.00     0.156 C 
HETATM   30  C   UNK A   0      43.349 -19.150   6.223  1.00  0.00     0.097 C 
HETATM   31  O   UNK A   0      44.863 -19.932   4.554  1.00  0.00    -0.293 OA
ENDBRANCH  25  29
ENDBRANCH   1  22
TORSDOF 7
ENDMDL
MODEL 3
REMARK VINA RESULT:      -8.5      1.781      2.658
REMARK  7 active torsions:
REMARK  status: ('A' for Active; 'I' for Inactive)
REMARK    1  A    between atoms: C_3  and  C_4 
REMARK    2  A    between atoms: C_9  and  N_10 
REMARK       I    between atoms: N_10  and  C_11 
REMARK       I    between atoms: C_11  and  N_15 
REMARK    3  A    between atoms: N_15  and  CA_16 
REMARK    4  A    between atoms: CA_16  and  C_17 
REMARK    5  A    between atoms: CA_16  and  CB_19 
REMARK    6  A    between atoms: C_17  and  O_18 
REMARK    7  A    between atoms: CB_19  and  CG_20 
ROOT
HETATM    1  N   UNK A   0      42.168 -13.026   1.805  1.00  0.00    -0.309 N 
HETATM    2  C   UNK A   0      42.088 -13.246   3.147  1.00  0.00     0.321 C 
HETATM    3  O   UNK A   0      43.090 -13.093   3.841  1.00  0.00    -0.247 OA
HETATM    4  H   UNK A   0      43.063 -12.614   1.570  1.00  0.00     0.170 HD
ATOM      5  N   TRP A   1      40.879 -13.594   3.656  1.00  0.00    -0.336 N 
ATOM      6  H   TRP A   1      40.110 -13.115   3.206  1.00  0.00     0.164 HD
ENDROOT
BRANCH   5   7
ATOM      7  CA  TRP A   1      40.672 -13.769   5.104  1.00  0.00     0.114 C 
BRANCH   7   8
ATOM      8  C   TRP A   1      39.517 -12.855   5.555  1.00  0.00     0.189 C 
BRANCH   8   9
ATOM      9  O   TRP A   1      39.745 -12.405   6.893  1.00  0.00    -0.399 OA
ATOM     10  H   TRP A   1      40.711 -12.369   7.011  1.00  0.00     0.209 HD
ENDBRANCH   8   9
ENDBRANCH   7   8
BRANCH   7  11
ATOM     11  CB  TRP A   1      40.378 -15.253   5.411  1.00  0.00     0.068 C 
BRANCH  11  12
ATOM     12  CG  TRP A   1      41.599 -16.126   5.532  1.00  0.00    -0.028 A 
ATOM     13  CD2 TRP A   1      42.289 -16.850   4.500  1.00  0.00    -0.002 A 
ATOM     14  CE2 TRP A   1      43.352 -17.527   5.103  1.00  0.00     0.042 A 
ATOM     15  CE3 TRP A   1      42.122 -16.992   3.106  1.00  0.00     0.014 A 
ATOM     16  CZ2 TRP A   1      44.252 -18.327   4.386  1.00  0.00     0.030 A 
ATOM     17  NE1 TRP A   1      43.302 -17.248   6.447  1.00  0.00    -0.365 N 
ATOM     18  CH2 TRP A   1      44.070 -18.433   3.005  1.00  0.00     0.002 A 
ATOM     19  CZ3 TRP A   1      43.020 -17.776   2.372  1.00  0.00     0.001 A 
ATOM     20  HE1 TRP A   1      43.946 -17.617   7.132  1.00  0.00     0.165 HD
ATOM     21  CD1 TRP A   1      42.257 -16.408   6.717  1.00  0.00     0.096 A 
ENDBRANCH  11  12
ENDBRANCH   7  11
ENDBRANCH   5   7
BRANCH   1  22
HETATM   22  C   UNK A   0      41.292 -13.278   0.733  1.00  0.00     0.036 A 
HETATM   23  C   UNK A   0      40.614 -14.478   0.524  1.00  0.00     0.030 A 
HETATM   24  C   UNK A   0      39.740 -14.621  -0.562  1.00  0.00     0.018 A 
HETATM   25  C   UNK A   0      39.554 -13.573  -1.475  1.00  0.00     0.015 A 
HETATM   26  C   UNK A   0      40.273 -12.376  -1.312  1.00  0.00    -0.046 A 
HETATM   27  C   UNK A   0      40.146 -11.218  -2.264  1.00  0.00     0.049 C 
HETATM   28  C   UNK A   0      41.131 -12.247  -0.203  1.00  0.00     0.037 A 
BRANCH  25  29
HETATM   29  C   UNK A   0      38.577 -13.750  -2.592  1.00  0.00     0.156 C 
HETATM   30  C   UNK A   0      37.210 -13.131  -2.456  1.00  0.00     0.097 C 
HETATM   31  O   UNK A   0      38.899 -14.359  -3.609  1.00  0.00    -0.293 OA
ENDBRANCH  25  29
ENDBRANCH   1  22
TORSDOF 7
ENDMDL
MODEL 4
REMARK VINA RESULT:      -8.3      1.326      1.969
REMARK  7 active torsions:
REMARK  status: ('A' for Active; 'I' for Inactive)
REMARK    1  A    between atoms: C_3  and  C_4 
REMARK    2  A    between atoms: C_9  and  N_10 
REMARK       I    between atoms: N_10  and  C_11 
REMARK       I    between atoms: C_11  and  N_15 
REMARK    3  A    between atoms: N_15  and  CA_16 
REMARK    4  A    between atoms: CA_16  and  C_17 
REMARK    5  A    between atoms: CA_16  and  CB_19 
REMARK    6  A    between atoms: C_17  and  O_18 
REMARK    7  A    between atoms: CB_19  and  CG_20 
ROOT
HETATM    1  N   UNK A   0      39.381 -12.178   2.969  1.00  0.00    -0.309 N 
HETATM    2  C   UNK A   0      40.009 -12.398   4.157  1.00  0.00     0.321 C 
HETATM    3  O   UNK A   0      39.790 -11.642   5.101  1.00  0.00    -0.247 OA
HETATM    4  H   UNK A   0      38.676 -11.457   3.073  1.00  0.00     0.170 HD
ATOM      5  N   TRP A   1      40.829 -13.476   4.245  1.00  0.00    -0.336 N 
ATOM      6  H   TRP A   1      40.480 -14.278   3.735  1.00  0.00     0.164 HD
ENDROOT
BRANCH   5   7
ATOM      7  CA  TRP A   1      41.485 -13.846   5.509  1.00  0.00     0.114 C 
BRANCH   7   8
ATOM      8  C   TRP A   1      40.839 -15.139   6.045  1.00  0.00     0.189 C 
BRANCH   8   9
ATOM      9  O   TRP A   1      39.547 -14.850   6.586  1.00  0.00    -0.399 OA
ATOM     10  H   TRP A   1      38.934 -15.498   6.198  1.00  0.00     0.209 HD
ENDBRANCH   8   9
ENDBRANCH   7   8
BRANCH   7  11
ATOM     11  CB  TRP A   1      43.001 -14.023   5.277  1.00  0.00     0.068 C 
BRANCH  11  12
ATOM     12  CG  TRP A   1      43.469 -15.454   5.229  1.00  0.00    -0.028 A 
ATOM     13  CD2 TRP A   1      43.301 -16.418   4.177  1.00  0.00    -0.002 A 
ATOM     14  CE2 TRP A   1      43.890 -17.610   4.604  1.00  0.00     0.042 A 
ATOM     15  CE3 TRP A   1      42.711 -16.395   2.895  1.00  0.00     0.014 A 
ATOM     16  CZ2 TRP A   1      43.925 -18.768   3.815  1.00  0.00     0.030 A 
ATOM     17  NE1 TRP A   1      44.378 -17.392   5.869  1.00  0.00    -0.365 N 
ATOM     18  CH2 TRP A   1      43.348 -18.708   2.545  1.00  0.00     0.002 A 
ATOM     19  CZ3 TRP A   1      42.748 -17.538   2.090  1.00  0.00     0.001 A 
ATOM     20  HE1 TRP A   1      44.847 -18.091   6.429  1.00  0.00     0.165 HD
ATOM     21  CD1 TRP A   1      44.134 -16.103   6.255  1.00  0.00     0.096 A 
ENDBRANCH  11  12
ENDBRANCH   7  11
ENDBRANCH   5   7
BRANCH   1  22
HETATM   22  C   UNK A   0      39.539 -12.719   1.680  1.00  0.00     0.036 A 
HETATM   23  C   UNK A   0      40.204 -13.909   1.391  1.00  0.00     0.030 A 
HETATM   24  C   UNK A   0      40.283 -14.379   0.073  1.00  0.00     0.018 A 
HETATM   25  C   UNK A   0      39.723 -13.648  -0.983  1.00  0.00     0.015 A 
HETATM   26  C   UNK A   0      39.098 -12.416  -0.718  1.00  0.00    -0.046 A 
HETATM   27  C   UNK A   0      38.496 -11.563  -1.802  1.00  0.00     0.049 C 
HETATM   28  C   UNK A   0      39.012 -11.973   0.616  1.00  0.00     0.037 A 
BRANCH  25  29
HETATM   29  C   UNK A   0      39.788 -14.207  -2.367  1.00  0.00     0.156 C 
HETATM   30  C   UNK A   0      38.676 -15.113  -2.829  1.00  0.00     0.097 C 
HETATM   31  O   UNK A   0      40.713 -13.905  -3.117  1.00  0.00    -0.293 OA
ENDBRANCH  25  29
ENDBRANCH   1  22
TORSDOF 7
ENDMDL
MODEL 5
REMARK VINA RESULT:      -8.2      2.980      6.507
REMARK  7 active torsions:
REMARK  status: ('A' for Active; 'I' for Inactive)
REMARK    1  A    between atoms: C_3  and  C_4 
REMARK    2  A    between atoms: C_9  and  N_10 
REMARK       I    between atoms: N_10  and  C_11 
REMARK       I    between atoms: C_11  and  N_15 
REMARK    3  A    between atoms: N_15  and  CA_16 
REMARK    4  A    between atoms: CA_16  and  C_17 
REMARK    5  A    between atoms: CA_16  and  CB_19 
REMARK    6  A    between atoms: C_17  and  O_18 
REMARK    7  A    between atoms: CB_19  and  CG_20 
ROOT
HETATM    1  N   UNK A   0      40.227 -13.887   6.612  1.00  0.00    -0.309 N 
HETATM    2  C   UNK A   0      40.055 -12.667   6.032  1.00  0.00     0.321 C 
HETATM    3  O   UNK A   0      39.164 -11.927   6.443  1.00  0.00    -0.247 OA
HETATM    4  H   UNK A   0      39.646 -13.968   7.439  1.00  0.00     0.170 HD
ATOM      5  N   TRP A   1      40.913 -12.315   5.042  1.00  0.00    -0.336 N 
ATOM      6  H   TRP A   1      41.859 -12.634   5.209  1.00  0.00     0.164 HD
ENDROOT
BRANCH   5   7
ATOM      7  CA  TRP A   1      40.864 -10.985   4.413  1.00  0.00     0.114 C 
BRANCH   7   8
ATOM      8  C   TRP A   1      42.131 -10.201   4.806  1.00  0.00     0.189 C 
BRANCH   8   9
ATOM      9  O   TRP A   1      43.186 -10.486   3.882  1.00  0.00    -0.399 OA
ATOM     10  H   TRP A   1      42.786 -10.477   2.995  1.00  0.00     0.209 HD
ENDBRANCH   8   9
ENDBRANCH   7   8
BRANCH   7  11
ATOM     11  CB  TRP A   1      40.742 -11.137   2.882  1.00  0.00     0.068 C 
BRANCH  11  12
ATOM     12  CG  TRP A   1      40.507 -12.547   2.406  1.00  0.00    -0.028 A 
ATOM     13  CD2 TRP A   1      41.470 -13.587   2.174  1.00  0.00    -0.002 A 
ATOM     14  CE2 TRP A   1      40.773 -14.710   1.722  1.00  0.00     0.042 A 
ATOM     15  CE3 TRP A   1      42.871 -13.691   2.311  1.00  0.00     0.014 A 
ATOM     16  CZ2 TRP A   1      41.402 -15.924   1.411  1.00  0.00     0.030 A 
ATOM     17  NE1 TRP A   1      39.445 -14.366   1.660  1.00  0.00    -0.365 N 
ATOM     18  CH2 TRP A   1      42.787 -15.999   1.573  1.00  0.00     0.002 A 
ATOM     19  CZ3 TRP A   1      43.513 -14.899   2.017  1.00  0.00     0.001 A 
ATOM     20  HE1 TRP A   1      38.708 -14.985   1.352  1.00  0.00     0.165 HD
ATOM     21  CD1 TRP A   1      39.272 -13.073   2.068  1.00  0.00     0.096 A 
ENDBRANCH  11  12
ENDBRANCH   7  11
ENDBRANCH   5   7
BRANCH   1  22
HETATM   22  C   UNK A   0      41.000 -15.014   6.277  1.00  0.00     0.036 A 
HETATM   23  C   UNK A   0      40.759 -15.851   5.190  1.00  0.00     0.030 A 
HETATM   24  C   UNK A   0      41.607 -16.935   4.924  1.00  0.00     0.018 A 
HETATM   25  C   UNK A   0      42.695 -17.216   5.763  1.00  0.00     0.015 A 
HETATM   26  C   UNK A   0      42.920 -16.416   6.897  1.00  0.00    -0.046 A 
HETATM   27  C   UNK A   0      44.050 -16.671   7.857  1.00  0.00     0.049 C 
HETATM   28  C   UNK A   0      42.068 -15.320   7.134  1.00  0.00     0.037 A 
BRANCH  25  29
HETATM   29  C   UNK A   0      43.601 -18.352   5.418  1.00  0.00     0.156 C 
HETATM   30  C   UNK A   0      44.604 -18.160   4.309  1.00  0.00     0.097 C 
HETATM   31  O   UNK A   0      43.548 -19.405   6.049  1.00  0.00    -0.293 OA
ENDBRANCH  25  29
ENDBRANCH   1  22
TORSDOF 7
ENDMDL
MODEL 6
REMARK VINA RESULT:      -8.1      5.928      8.934
REMARK  7 active torsions:
REMARK  status: ('A' for Active; 'I' for Inactive)
REMARK    1  A    between atoms: C_3  and  C_4 
REMARK    2  A    between atoms: C_9  and  N_10 
REMARK       I    between atoms: N_10  and  C_11 
REMARK       I    between atoms: C_11  and  N_15 
REMARK    3  A    between atoms: N_15  and  CA_16 
REMARK    4  A    between atoms: CA_16  and  C_17 
REMARK    5  A    between atoms: CA_16  and  CB_19 
REMARK    6  A    between atoms: C_17  and  O_18 
REMARK    7  A    between atoms: CB_19  and  CG_20 
ROOT
HETATM    1  N   UNK A   0      44.949 -10.493   7.998  1.00  0.00    -0.309 N 
HETATM    2  C   UNK A   0      44.699 -11.559   7.189  1.00  0.00     0.321 C 
HETATM    3  O   UNK A   0      45.337 -11.686   6.147  1.00  0.00    -0.247 OA
HETATM    4  H   UNK A   0      45.769  -9.992   7.674  1.00  0.00     0.170 HD
ATOM      5  N   TRP A   1      43.768 -12.456   7.602  1.00  0.00    -0.336 N 
ATOM      6  H   TRP A   1      43.786 -12.611   8.602  1.00  0.00     0.164 HD
ENDROOT
BRANCH   5   7
ATOM      7  CA  TRP A   1      43.488 -13.685   6.841  1.00  0.00     0.114 C 
BRANCH   7   8
ATOM      8  C   TRP A   1      43.137 -14.814   7.830  1.00  0.00     0.189 C 
BRANCH   8   9
ATOM      9  O   TRP A   1      41.994 -15.535   7.361  1.00  0.00    -0.399 OA
ATOM     10  H   TRP A   1      41.902 -15.322   6.416  1.00  0.00     0.209 HD
ENDBRANCH   8   9
ENDBRANCH   7   8
BRANCH   7  11
ATOM     11  CB  TRP A   1      42.340 -13.428   5.841  1.00  0.00     0.068 C 
BRANCH  11  12
ATOM     12  CG  TRP A   1      42.675 -13.737   4.405  1.00  0.00    -0.028 A 
ATOM     13  CD2 TRP A   1      42.856 -15.019   3.782  1.00  0.00    -0.002 A 
ATOM     14  CE2 TRP A   1      43.172 -14.792   2.440  1.00  0.00     0.042 A 
ATOM     15  CE3 TRP A   1      42.776 -16.357   4.224  1.00  0.00     0.014 A 
ATOM     16  CZ2 TRP A   1      43.401 -15.827   1.525  1.00  0.00     0.030 A 
ATOM     17  NE1 TRP A   1      43.203 -13.431   2.255  1.00  0.00    -0.365 N 
ATOM     18  CH2 TRP A   1      43.297 -17.140   1.989  1.00  0.00     0.002 A 
ATOM     19  CZ3 TRP A   1      42.990 -17.404   3.320  1.00  0.00     0.001 A 
ATOM     20  HE1 TRP A   1      43.419 -12.978   1.378  1.00  0.00     0.165 HD
ATOM     21  CD1 TRP A   1      42.905 -12.787   3.424  1.00  0.00     0.096 A 
ENDBRANCH  11  12
ENDBRANCH   7  11
ENDBRANCH   5   7
BRANCH   1  22
HETATM   22  C   UNK A   0      44.297  -9.964   9.127  1.00  0.00     0.036 A 
HETATM   23  C   UNK A   0      43.962 -10.693  10.267  1.00  0.00     0.030 A 
HETATM   24  C   UNK A   0      43.338 -10.067  11.354  1.00  0.00     0.018 A 
HETATM   25  C   UNK A   0      43.010  -8.705  11.306  1.00  0.00     0.015 A 
HETATM   26  C   UNK A   0      43.289  -7.967  10.141  1.00  0.00    -0.046 A 
HETATM   27  C   UNK A   0      42.944  -6.509  10.005  1.00  0.00     0.049 C 
HETATM   28  C   UNK A   0      43.935  -8.611   9.069  1.00  0.00     0.037 A 
BRANCH  25  29
HETATM   29  C   UNK A   0      42.388  -8.066  12.504  1.00  0.00     0.156 C 
HETATM   30  C   UNK A   0      43.292  -7.493  13.564  1.00  0.00     0.097 C 
HETATM   31  O   UNK A   0      41.166  -7.983  12.601  1.00  0.00    -0.293 OA
ENDBRANCH  25  29
ENDBRANCH   1  22
TORSDOF 7
ENDMDL
MODEL 7
REMARK VINA RESULT:      -8.1      2.730      7.204
REMARK  7 active torsions:
REMARK  status: ('A' for Active; 'I' for Inactive)
REMARK    1  A    between atoms: C_3  and  C_4 
REMARK    2  A    between atoms: C_9  and  N_10 
REMARK       I    between atoms: N_10  and  C_11 
REMARK       I    between atoms: C_11  and  N_15 
REMARK    3  A    between atoms: N_15  and  CA_16 
REMARK    4  A    between atoms: CA_16  and  C_17 
REMARK    5  A    between atoms: CA_16  and  CB_19 
REMARK    6  A    between atoms: C_17  and  O_18 
REMARK    7  A    between atoms: CB_19  and  CG_20 
ROOT
HETATM    1  N   UNK A   0      40.370 -16.034   1.230  1.00  0.00    -0.309 N 
HETATM    2  C   UNK A   0      40.070 -14.894   0.549  1.00  0.00     0.321 C 
HETATM    3  O   UNK A   0      39.509 -14.976  -0.542  1.00  0.00    -0.247 OA
HETATM    4  H   UNK A   0      39.945 -16.836   0.778  1.00  0.00     0.170 HD
ATOM      5  N   TRP A   1      40.380 -13.711   1.136  1.00  0.00    -0.336 N 
ATOM      6  H   TRP A   1      40.235 -13.718   2.137  1.00  0.00     0.164 HD
ENDROOT
BRANCH   5   7
ATOM      7  CA  TRP A   1      40.018 -12.424   0.519  1.00  0.00     0.114 C 
BRANCH   7   8
ATOM      8  C   TRP A   1      38.820 -11.826   1.281  1.00  0.00     0.189 C 
BRANCH   8   9
ATOM      9  O   TRP A   1      37.617 -12.023   0.531  1.00  0.00    -0.399 OA
ATOM     10  H   TRP A   1      36.944 -12.327   1.164  1.00  0.00     0.209 HD
ENDBRANCH   8   9
ENDBRANCH   7   8
BRANCH   7  11
ATOM     11  CB  TRP A   1      41.236 -11.476   0.540  1.00  0.00     0.068 C 
BRANCH  11  12
ATOM     12  CG  TRP A   1      41.528 -10.856   1.882  1.00  0.00    -0.028 A 
ATOM     13  CD2 TRP A   1      42.123 -11.462   3.040  1.00  0.00    -0.002 A 
ATOM     14  CE2 TRP A   1      42.169 -10.492   4.044  1.00  0.00     0.042 A 
ATOM     15  CE3 TRP A   1      42.638 -12.742   3.335  1.00  0.00     0.014 A 
ATOM     16  CZ2 TRP A   1      42.706 -10.735   5.315  1.00  0.00     0.030 A 
ATOM     17  NE1 TRP A   1      41.607  -9.349   3.531  1.00  0.00    -0.365 N 
ATOM     18  CH2 TRP A   1      43.223 -12.007   5.571  1.00  0.00     0.002 A 
ATOM     19  CZ3 TRP A   1      43.190 -12.999   4.596  1.00  0.00     0.001 A 
ATOM     20  HE1 TRP A   1      41.496  -8.486   4.044  1.00  0.00     0.165 HD
ATOM     21  CD1 TRP A   1      41.220  -9.553   2.235  1.00  0.00     0.096 A 
ENDBRANCH  11  12
ENDBRANCH   7  11
ENDBRANCH   5   7
BRANCH   1  22
HETATM   22  C   UNK A   0      41.146 -16.299   2.374  1.00  0.00     0.036 A 
HETATM   23  C   UNK A   0      42.434 -16.830   2.357  1.00  0.00     0.030 A 
HETATM   24  C   UNK A   0      43.137 -17.030   3.552  1.00  0.00     0.018 A 
HETATM   25  C   UNK A   0      42.549 -16.730   4.789  1.00  0.00     0.015 A 
HETATM   26  C   UNK A   0      41.228 -16.248   4.828  1.00  0.00    -0.046 A 
HETATM   27  C   UNK A   0      40.521 -15.928   6.118  1.00  0.00     0.049 C 
HETATM   28  C   UNK A   0      40.548 -16.035   3.614  1.00  0.00     0.037 A 
BRANCH  25  29
HETATM   29  C   UNK A   0      43.349 -16.915   6.036  1.00  0.00     0.156 C 
HETATM   30  C   UNK A   0      44.214 -15.776   6.510  1.00  0.00     0.097 C 
HETATM   31  O   UNK A   0      43.274 -17.961   6.675  1.00  0.00    -0.293 OA
ENDBRANCH  25  29
ENDBRANCH   1  22
TORSDOF 7
ENDMDL
MODEL 8
REMARK VINA RESULT:      -8.0      6.097      9.276
REMARK  7 active torsions:
REMARK  status: ('A' for Active; 'I' for Inactive)
REMARK    1  A    between atoms: C_3  and  C_4 
REMARK    2  A    between atoms: C_9  and  N_10 
REMARK       I    between atoms: N_10  and  C_11 
REMARK       I    between atoms: C_11  and  N_15 
REMARK    3  A    between atoms: N_15  and  CA_16 
REMARK    4  A    between atoms: CA_16  and  C_17 
REMARK    5  A    between atoms: CA_16  and  CB_19 
REMARK    6  A    between atoms: C_17  and  O_18 
REMARK    7  A    between atoms: CB_19  and  CG_20 
ROOT
HETATM    1  N   UNK A   0      45.384 -10.427   8.409  1.00  0.00    -0.309 N 
HETATM    2  C   UNK A   0      45.119 -11.285   7.386  1.00  0.00     0.321 C 
HETATM    3  O   UNK A   0      45.939 -11.410   6.478  1.00  0.00    -0.247 OA
HETATM    4  H   UNK A   0      46.336 -10.088   8.345  1.00  0.00     0.170 HD
ATOM      5  N   TRP A   1      43.963 -11.994   7.442  1.00  0.00    -0.336 N 
ATOM      6  H   TRP A   1      43.725 -12.286   8.381  1.00  0.00     0.164 HD
ENDROOT
BRANCH   5   7
ATOM      7  CA  TRP A   1      43.628 -13.008   6.429  1.00  0.00     0.114 C 
BRANCH   7   8
ATOM      8  C   TRP A   1      43.865 -14.407   7.029  1.00  0.00     0.189 C 
BRANCH   8   9
ATOM      9  O   TRP A   1      43.139 -14.542   8.255  1.00  0.00    -0.399 OA
ATOM     10  H   TRP A   1      42.377 -15.115   8.063  1.00  0.00     0.209 HD
ENDBRANCH   8   9
ENDBRANCH   7   8
BRANCH   7  11
ATOM     11  CB  TRP A   1      42.164 -12.825   5.973  1.00  0.00     0.068 C 
BRANCH  11  12
ATOM     12  CG  TRP A   1      41.613 -13.962   5.153  1.00  0.00    -0.028 A 
ATOM     13  CD2 TRP A   1      42.075 -14.461   3.888  1.00  0.00    -0.002 A 
ATOM     14  CE2 TRP A   1      41.233 -15.513   3.519  1.00  0.00     0.042 A 
ATOM     15  CE3 TRP A   1      43.136 -14.130   3.017  1.00  0.00     0.014 A 
ATOM     16  CZ2 TRP A   1      41.401 -16.247   2.338  1.00  0.00     0.030 A 
ATOM     17  NE1 TRP A   1      40.284 -15.637   4.504  1.00  0.00    -0.365 N 
ATOM     18  CH2 TRP A   1      42.469 -15.905   1.506  1.00  0.00     0.002 A 
ATOM     19  CZ3 TRP A   1      43.326 -14.861   1.839  1.00  0.00     0.001 A 
ATOM     20  HE1 TRP A   1      39.534 -16.314   4.494  1.00  0.00     0.165 HD
ATOM     21  CD1 TRP A   1      40.502 -14.715   5.490  1.00  0.00     0.096 A 
ENDBRANCH  11  12
ENDBRANCH   7  11
ENDBRANCH   5   7
BRANCH   1  22
HETATM   22  C   UNK A   0      44.610  -9.925   9.472  1.00  0.00     0.036 A 
HETATM   23  C   UNK A   0      44.263 -10.645  10.614  1.00  0.00     0.030 A 
HETATM   24  C   UNK A   0      43.511 -10.045  11.632  1.00  0.00     0.018 A 
HETATM   25  C   UNK A   0      43.066  -8.721  11.510  1.00  0.00     0.015 A 
HETATM   26  C   UNK A   0      43.357  -7.998  10.339  1.00  0.00    -0.046 A 
HETATM   27  C   UNK A   0      42.893  -6.583  10.124  1.00  0.00     0.049 C 
HETATM   28  C   UNK A   0      44.132  -8.614   9.338  1.00  0.00     0.037 A 
BRANCH  25  29
HETATM   29  C   UNK A   0      42.306  -8.104  12.638  1.00  0.00     0.156 C 
HETATM   30  C   UNK A   0      43.081  -7.454  13.755  1.00  0.00     0.097 C 
HETATM   31  O   UNK A   0      41.078  -8.101  12.634  1.00  0.00    -0.293 OA
ENDBRANCH  25  29
ENDBRANCH   1  22
TORSDOF 7
ENDMDL
MODEL 9
REMARK VINA RESULT:      -8.0      1.622      1.993
REMARK  7 active torsions:
REMARK  status: ('A' for Active; 'I' for Inactive)
REMARK    1  A    between atoms: C_3  and  C_4 
REMARK    2  A    between atoms: C_9  and  N_10 
REMARK       I    between atoms: N_10  and  C_11 
REMARK       I    between atoms: C_11  and  N_15 
REMARK    3  A    between atoms: N_15  and  CA_16 
REMARK    4  A    between atoms: CA_16  and  C_17 
REMARK    5  A    between atoms: CA_16  and  CB_19 
REMARK    6  A    between atoms: C_17  and  O_18 
REMARK    7  A    between atoms: CB_19  and  CG_20 
ROOT
HETATM    1  N   UNK A   0      41.031 -12.245   2.926  1.00  0.00    -0.309 N 
HETATM    2  C   UNK A   0      41.475 -12.918   4.024  1.00  0.00     0.321 C 
HETATM    3  O   UNK A   0      41.775 -12.288   5.035  1.00  0.00    -0.247 OA
HETATM    4  H   UNK A   0      40.874 -11.270   3.153  1.00  0.00     0.170 HD
ATOM      5  N   TRP A   1      41.530 -14.273   3.951  1.00  0.00    -0.336 N 
ATOM      6  H   TRP A   1      40.760 -14.670   3.427  1.00  0.00     0.164 HD
ENDROOT
BRANCH   5   7
ATOM      7  CA  TRP A   1      41.913 -15.094   5.111  1.00  0.00     0.114 C 
BRANCH   7   8
ATOM      8  C   TRP A   1      40.850 -16.191   5.317  1.00  0.00     0.189 C 
BRANCH   8   9
ATOM      9  O   TRP A   1      40.000 -16.268   4.169  1.00  0.00    -0.399 OA
ATOM     10  H   TRP A   1      39.954 -15.369   3.799  1.00  0.00     0.209 HD
ENDBRANCH   8   9
ENDBRANCH   7   8
BRANCH   7  11
ATOM     11  CB  TRP A   1      43.315 -15.697   4.880  1.00  0.00     0.068 C 
BRANCH  11  12
ATOM     12  CG  TRP A   1      43.473 -17.120   5.348  1.00  0.00    -0.028 A 
ATOM     13  CD2 TRP A   1      43.612 -18.313   4.559  1.00  0.00    -0.002 A 
ATOM     14  CE2 TRP A   1      43.710 -19.391   5.442  1.00  0.00     0.042 A 
ATOM     15  CE3 TRP A   1      43.672 -18.587   3.176  1.00  0.00     0.014 A 
ATOM     16  CZ2 TRP A   1      43.872 -20.715   5.015  1.00  0.00     0.030 A 
ATOM     17  NE1 TRP A   1      43.614 -18.883   6.715  1.00  0.00    -0.365 N 
ATOM     18  CH2 TRP A   1      43.945 -20.951   3.641  1.00  0.00     0.002 A 
ATOM     19  CZ3 TRP A   1      43.846 -19.902   2.732  1.00  0.00     0.001 A 
ATOM     20  HE1 TRP A   1      43.642 -19.440   7.557  1.00  0.00     0.165 HD
ATOM     21  CD1 TRP A   1      43.474 -17.523   6.672  1.00  0.00     0.096 A 
ENDBRANCH  11  12
ENDBRANCH   7  11
ENDBRANCH   5   7
BRANCH   1  22
HETATM   22  C   UNK A   0      40.789 -12.625   1.594  1.00  0.00     0.036 A 
HETATM   23  C   UNK A   0      40.308 -13.871   1.196  1.00  0.00     0.030 A 
HETATM   24  C   UNK A   0      40.071 -14.144  -0.158  1.00  0.00     0.018 A 
HETATM   25  C   UNK A   0      40.343 -13.182  -1.141  1.00  0.00     0.015 A 
HETATM   26  C   UNK A   0      40.882 -11.940  -0.763  1.00  0.00    -0.046 A 
HETATM   27  C   UNK A   0      41.223 -10.867  -1.762  1.00  0.00     0.049 C 
HETATM   28  C   UNK A   0      41.093 -11.679   0.604  1.00  0.00     0.037 A 
BRANCH  25  29
HETATM   29  C   UNK A   0      40.032 -13.496  -2.568  1.00  0.00     0.156 C 
HETATM   30  C   UNK A   0      38.600 -13.409  -3.028  1.00  0.00     0.097 C 
HETATM   31  O   UNK A   0      40.933 -13.786  -3.352  1.00  0.00    -0.293 OA
ENDBRANCH  25  29
ENDBRANCH   1  22
TORSDOF 7
ENDMDL
MODEL 10
REMARK VINA RESULT:      -7.9      3.128      6.841
REMARK  7 active torsions:
REMARK  status: ('A' for Active; 'I' for Inactive)
REMARK    1  A    between atoms: C_3  and  C_4 
REMARK    2  A    between atoms: C_9  and  N_10 
REMARK       I    between atoms: N_10  and  C_11 
REMARK       I    between atoms: C_11  and  N_15 
REMARK    3  A    between atoms: N_15  and  CA_16 
REMARK    4  A    between atoms: CA_16  and  C_17 
REMARK    5  A    between atoms: CA_16  and  CB_19 
REMARK    6  A    between atoms: C_17  and  O_18 
REMARK    7  A    between atoms: CB_19  and  CG_20 
ROOT
HETATM    1  N   UNK A   0      39.792 -14.522   2.911  1.00  0.00    -0.309 N 
HETATM    2  C   UNK A   0      39.409 -13.243   3.179  1.00  0.00     0.321 C 
HETATM    3  O   UNK A   0      38.544 -12.716   2.484  1.00  0.00    -0.247 OA
HETATM    4  H   UNK A   0      39.179 -14.933   2.216  1.00  0.00     0.170 HD
ATOM      5  N   TRP A   1      39.988 -12.622   4.238  1.00  0.00    -0.336 N 
ATOM      6  H   TRP A   1      40.149 -13.245   5.020  1.00  0.00     0.164 HD
ENDROOT
BRANCH   5   7
ATOM      7  CA  TRP A   1      39.580 -11.272   4.661  1.00  0.00     0.114 C 
BRANCH   7   8
ATOM      8  C   TRP A   1      39.314 -11.285   6.178  1.00  0.00     0.189 C 
BRANCH   8   9
ATOM      9  O   TRP A   1      39.713 -12.542   6.733  1.00  0.00    -0.399 OA
ATOM     10  H   TRP A   1      39.025 -12.792   7.375  1.00  0.00     0.209 HD
ENDBRANCH   8   9
ENDBRANCH   7   8
BRANCH   7  11
ATOM     11  CB  TRP A   1      40.679 -10.255   4.285  1.00  0.00     0.068 C 
BRANCH  11  12
ATOM     12  CG  TRP A   1      42.087 -10.779   4.396  1.00  0.00    -0.028 A 
ATOM     13  CD2 TRP A   1      42.923 -10.865   5.561  1.00  0.00    -0.002 A 
ATOM     14  CE2 TRP A   1      44.148 -11.403   5.159  1.00  0.00     0.042 A 
ATOM     15  CE3 TRP A   1      42.758 -10.546   6.926  1.00  0.00     0.014 A 
ATOM     16  CZ2 TRP A   1      45.204 -11.643   6.048  1.00  0.00     0.030 A 
ATOM     17  NE1 TRP A   1      44.073 -11.616   3.805  1.00  0.00    -0.365 N 
ATOM     18  CH2 TRP A   1      45.004 -11.332   7.395  1.00  0.00     0.002 A 
ATOM     19  CZ3 TRP A   1      43.798 -10.791   7.830  1.00  0.00     0.001 A 
ATOM     20  HE1 TRP A   1      44.824 -11.989   3.242  1.00  0.00     0.165 HD
ATOM     21  CD1 TRP A   1      42.842 -11.248   3.335  1.00  0.00     0.096 A 
ENDBRANCH  11  12
ENDBRANCH   7  11
ENDBRANCH   5   7
BRANCH   1  22
HETATM   22  C   UNK A   0      40.846 -15.331   3.375  1.00  0.00     0.036 A 
HETATM   23  C   UNK A   0      41.758 -15.996   2.558  1.00  0.00     0.030 A 
HETATM   24  C   UNK A   0      42.792 -16.757   3.119  1.00  0.00     0.018 A 
HETATM   25  C   UNK A   0      42.912 -16.890   4.509  1.00  0.00     0.015 A 
HETATM   26  C   UNK A   0      41.966 -16.273   5.348  1.00  0.00    -0.046 A 
HETATM   27  C   UNK A   0      42.013 -16.392   6.847  1.00  0.00     0.049 C 
HETATM   28  C   UNK A   0      40.947 -15.497   4.764  1.00  0.00     0.037 A 
BRANCH  25  29
HETATM   29  C   UNK A   0      44.056 -17.672   5.067  1.00  0.00     0.156 C 
HETATM   30  C   UNK A   0      43.977 -19.176   5.046  1.00  0.00     0.097 C 
HETATM   31  O   UNK A   0      45.050 -17.095   5.502  1.00  0.00    -0.293 OA
ENDBRANCH  25  29
ENDBRANCH   1  22
TORSDOF 7
ENDMDL
