MODEL 1
REMARK VINA RESULT:      -8.7      0.000      0.000
REMARK  3 active torsions:
REMARK  status: ('A' for Active; 'I' for Inactive)
REMARK    1  A    between atoms: C_7  and  C_8 
REMARK       I    between atoms: C_8  and  N_9 
REMARK    2  A    between atoms: N_9  and  N_10 
REMARK    3  A    between atoms: N_10  and  C_11 
ROOT
HETATM    1  C   UNL     1      42.864 -10.883   4.374  1.00  0.00     0.124 A 
HETATM    2  N   UNL     1      41.671 -10.270   4.485  1.00  0.00    -0.223 NA
HETATM    3  C   UNL     1      41.273  -9.895   5.715  1.00  0.00     0.129 A 
HETATM    4 CL   UNL     1      39.745  -9.117   5.763  1.00  0.00    -0.062 Cl
HETATM    5  C   UNL     1      41.992 -10.105   6.871  1.00  0.00     0.067 A 
HETATM    6  C   UNL     1      43.214 -10.754   6.745  1.00  0.00     0.051 A 
HETATM    7  C   UNL     1      44.013 -11.016   7.904  1.00  0.00     0.099 C 
HETATM    8  N   UNL     1      44.655 -11.224   8.846  1.00  0.00    -0.191 NA
HETATM    9  C   UNL     1      43.657 -11.155   5.484  1.00  0.00     0.068 A 
ENDROOT
BRANCH   1  10
HETATM   10  N   UNL     1      43.239 -11.306   3.083  1.00  0.00    -0.186 NA
HETATM   11  H   UNL     1      44.018 -10.693   2.805  1.00  0.00     0.154 HD
BRANCH  10  12
HETATM   12  N   UNL     1      43.609 -12.665   3.024  1.00  0.00    -0.281 N 
HETATM   13  C   UNL     1      42.708 -13.549   2.465  1.00  0.00     0.271 C 
HETATM   14  O   UNL     1      41.722 -13.183   1.825  1.00  0.00    -0.266 OA
HETATM   15  H   UNL     1      44.294 -12.995   3.711  1.00  0.00     0.184 HD
BRANCH  13  16
HETATM   16  C   UNL     1      43.000 -14.986   2.719  1.00  0.00     0.099 A 
HETATM   17  C   UNL     1      43.148 -15.580   4.076  1.00  0.00     0.201 A 
HETATM   18  C   UNL     1      43.387 -17.045   4.180  1.00  0.00     0.045 A 
HETATM   19  O   UNL     1      43.061 -14.886   5.087  1.00  0.00    -0.286 OA
HETATM   20  C   UNL     1      43.474 -17.813   2.998  1.00  0.00     0.052 A 
HETATM   21  C   UNL     1      43.505 -17.636   5.440  1.00  0.00     0.060 A 
HETATM   22  C   UNL     1      43.720 -19.197   3.097  1.00  0.00    -0.031 A 
HETATM   23  N   UNL     1      43.377 -17.164   1.758  1.00  0.00    -0.364 N 
HETATM   24  C   UNL     1      43.838 -20.072   1.881  1.00  0.00     0.050 C 
HETATM   25  C   UNL     1      43.827 -19.781   4.369  1.00  0.00     0.051 A 
HETATM   26  C   UNL     1      43.720 -19.002   5.518  1.00  0.00     0.117 A 
HETATM   27  F   UNL     1      43.828 -19.584   6.719  1.00  0.00    -0.206 F 
HETATM   28  C   UNL     1      43.117 -15.820   1.675  1.00  0.00     0.109 A 
HETATM   29  H   UNL     1      43.292 -17.717   0.912  1.00  0.00     0.165 HD
ENDBRANCH  13  16
ENDBRANCH  10  12
ENDBRANCH   1  10
TORSDOF 3
ENDMDL
MODEL 2
REMARK VINA RESULT:      -8.6      4.473      6.365
REMARK  3 active torsions:
REMARK  status: ('A' for Active; 'I' for Inactive)
REMARK    1  A    between atoms: C_7  and  C_8 
REMARK       I    between atoms: C_8  and  N_9 
REMARK    2  A    between atoms: N_9  and  N_10 
REMARK    3  A    between atoms: N_10  and  C_11 
ROOT
HETATM    1  C   UNL     1      39.104 -12.507  -0.370  1.00  0.00     0.124 A 
HETATM    2  N   UNL     1      38.838 -13.654  -1.021  1.00  0.00    -0.223 NA
HETATM    3  C   UNL     1      39.147 -13.717  -2.330  1.00  0.00     0.129 A 
HETATM    4 CL   UNL     1      38.780 -15.216  -3.078  1.00  0.00    -0.062 Cl
HETATM    5  C   UNL     1      39.705 -12.687  -3.055  1.00  0.00     0.067 A 
HETATM    6  C   UNL     1      39.959 -11.503  -2.376  1.00  0.00     0.051 A 
HETATM    7  C   UNL     1      40.529 -10.385  -3.066  1.00  0.00     0.099 C 
HETATM    8  N   UNL     1      40.991  -9.484  -3.630  1.00  0.00    -0.191 NA
HETATM    9  C   UNL     1      39.651 -11.404  -1.018  1.00  0.00     0.068 A 
ENDROOT
BRANCH   1  10
HETATM   10  N   UNL     1      38.729 -12.449   0.987  1.00  0.00    -0.186 NA
HETATM   11  H   UNL     1      37.710 -12.598   1.000  1.00  0.00     0.154 HD
BRANCH  10  12
HETATM   12  N   UNL     1      39.396 -13.394   1.794  1.00  0.00    -0.281 N 
HETATM   13  C   UNL     1      40.522 -12.973   2.472  1.00  0.00     0.271 C 
HETATM   14  O   UNL     1      40.830 -11.787   2.584  1.00  0.00    -0.266 OA
HETATM   15  H   UNL     1      39.282 -14.383   1.549  1.00  0.00     0.184 HD
BRANCH  13  16
HETATM   16  C   UNL     1      41.360 -14.067   3.035  1.00  0.00     0.099 A 
HETATM   17  C   UNL     1      41.677 -15.331   2.315  1.00  0.00     0.201 A 
HETATM   18  C   UNL     1      42.572 -16.314   2.981  1.00  0.00     0.045 A 
HETATM   19  O   UNL     1      41.225 -15.553   1.193  1.00  0.00    -0.286 OA
HETATM   20  C   UNL     1      43.078 -16.022   4.267  1.00  0.00     0.052 A 
HETATM   21  C   UNL     1      42.908 -17.498   2.321  1.00  0.00     0.060 A 
HETATM   22  C   UNL     1      43.910 -16.963   4.906  1.00  0.00    -0.031 A 
HETATM   23  N   UNL     1      42.685 -14.832   4.897  1.00  0.00    -0.364 N 
HETATM   24  C   UNL     1      44.473 -16.724   6.278  1.00  0.00     0.050 C 
HETATM   25  C   UNL     1      44.249 -18.145   4.227  1.00  0.00     0.051 A 
HETATM   26  C   UNL     1      43.749 -18.399   2.953  1.00  0.00     0.117 A 
HETATM   27  F   UNL     1      44.086 -19.534   2.329  1.00  0.00    -0.206 F 
HETATM   28  C   UNL     1      41.892 -13.914   4.257  1.00  0.00     0.109 A 
HETATM   29  H   UNL     1      43.152 -14.543   5.750  1.00  0.00     0.165 HD
ENDBRANCH  13  16
ENDBRANCH  10  12
ENDBRANCH   1  10
TORSDOF 3
ENDMDL
MODEL 3
REMARK VINA RESULT:      -8.6      3.164      4.729
REMARK  3 active torsions:
REMARK  status: ('A' for Active; 'I' for Inactive)
REMARK    1  A    between atoms: C_7  and  C_8 
REMARK       I    between atoms: C_8  and  N_9 
REMARK    2  A    between atoms: N_9  and  N_10 
REMARK    3  A    between atoms: N_10  and  C_11 
ROOT
HETATM    1  C   UNL     1      40.088 -12.451   1.820  1.00  0.00     0.124 A 
HETATM    2  N   UNL     1      38.965 -11.712   1.885  1.00  0.00    -0.223 NA
HETATM    3  C   UNL     1      38.235 -11.583   0.761  1.00  0.00     0.129 A 
HETATM    4 CL   UNL     1      36.820 -10.630   0.936  1.00  0.00    -0.062 Cl
HETATM    5  C   UNL     1      38.560 -12.143  -0.455  1.00  0.00     0.067 A 
HETATM    6  C   UNL     1      39.730 -12.890  -0.513  1.00  0.00     0.051 A 
HETATM    7  C   UNL     1      40.137 -13.494  -1.745  1.00  0.00     0.099 C 
HETATM    8  N   UNL     1      40.461 -13.981  -2.746  1.00  0.00    -0.191 NA
HETATM    9  C   UNL     1      40.509 -13.044   0.633  1.00  0.00     0.068 A 
ENDROOT
BRANCH   1  10
HETATM   10  N   UNL     1      40.859 -12.534   2.996  1.00  0.00    -0.186 NA
HETATM   11  H   UNL     1      40.263 -12.154   3.745  1.00  0.00     0.154 HD
BRANCH  10  12
HETATM   12  N   UNL     1      41.287 -13.844   3.295  1.00  0.00    -0.281 N 
HETATM   13  C   UNL     1      42.620 -14.140   3.096  1.00  0.00     0.271 C 
HETATM   14  O   UNL     1      43.474 -13.278   2.894  1.00  0.00    -0.266 OA
HETATM   15  H   UNL     1      40.583 -14.587   3.258  1.00  0.00     0.184 HD
BRANCH  13  16
HETATM   16  C   UNL     1      42.947 -15.593   3.112  1.00  0.00     0.099 A 
HETATM   17  C   UNL     1      43.280 -16.360   4.343  1.00  0.00     0.201 A 
HETATM   18  C   UNL     1      43.534 -17.820   4.214  1.00  0.00     0.045 A 
HETATM   19  O   UNL     1      43.329 -15.809   5.441  1.00  0.00    -0.286 OA
HETATM   20  C   UNL     1      43.461 -18.421   2.938  1.00  0.00     0.052 A 
HETATM   21  C   UNL     1      43.823 -18.572   5.355  1.00  0.00     0.060 A 
HETATM   22  C   UNL     1      43.722 -19.800   2.814  1.00  0.00    -0.031 A 
HETATM   23  N   UNL     1      43.195 -17.614   1.822  1.00  0.00    -0.364 N 
HETATM   24  C   UNL     1      43.675 -20.502   1.486  1.00  0.00     0.050 C 
HETATM   25  C   UNL     1      44.001 -20.547   3.970  1.00  0.00     0.051 A 
HETATM   26  C   UNL     1      44.050 -19.931   5.218  1.00  0.00     0.117 A 
HETATM   27  F   UNL     1      44.322 -20.667   6.302  1.00  0.00    -0.206 F 
HETATM   28  C   UNL     1      42.923 -16.277   1.958  1.00  0.00     0.109 A 
HETATM   29  H   UNL     1      42.997 -18.050   0.928  1.00  0.00     0.165 HD
ENDBRANCH  13  16
ENDBRANCH  10  12
ENDBRANCH   1  10
TORSDOF 3
ENDMDL
MODEL 4
REMARK VINA RESULT:      -8.5      1.486      2.111
REMARK  3 active torsions:
REMARK  status: ('A' for Active; 'I' for Inactive)
REMARK    1  A    between atoms: C_7  and  C_8 
REMARK       I    between atoms: C_8  and  N_9 
REMARK    2  A    between atoms: N_9  and  N_10 
REMARK    3  A    between atoms: N_10  and  C_11 
ROOT
HETATM    1  C   UNL     1      42.851 -11.201   4.475  1.00  0.00     0.124 A 
HETATM    2  N   UNL     1      43.831 -10.997   5.374  1.00  0.00    -0.223 NA
HETATM    3  C   UNL     1      43.472 -10.594   6.609  1.00  0.00     0.129 A 
HETATM    4 CL   UNL     1      44.783 -10.363   7.691  1.00  0.00    -0.062 Cl
HETATM    5  C   UNL     1      42.176 -10.364   7.014  1.00  0.00     0.067 A 
HETATM    6  C   UNL     1      41.175 -10.563   6.071  1.00  0.00     0.051 A 
HETATM    7  C   UNL     1      39.805 -10.335   6.417  1.00  0.00     0.099 C 
HETATM    8  N   UNL     1      38.697 -10.149   6.704  1.00  0.00    -0.191 NA
HETATM    9  C   UNL     1      41.512 -10.981   4.783  1.00  0.00     0.068 A 
ENDROOT
BRANCH   1  10
HETATM   10  N   UNL     1      43.253 -11.578   3.177  1.00  0.00    -0.186 NA
HETATM   11  H   UNL     1      44.039 -10.956   2.940  1.00  0.00     0.154 HD
BRANCH  10  12
HETATM   12  N   UNL     1      43.622 -12.935   3.077  1.00  0.00    -0.281 N 
HETATM   13  C   UNL     1      42.710 -13.804   2.512  1.00  0.00     0.271 C 
HETATM   14  O   UNL     1      41.712 -13.422   1.901  1.00  0.00    -0.266 OA
HETATM   15  H   UNL     1      44.320 -13.282   3.742  1.00  0.00     0.184 HD
BRANCH  13  16
HETATM   16  C   UNL     1      43.008 -15.247   2.724  1.00  0.00     0.099 A 
HETATM   17  C   UNL     1      43.185 -15.875   4.062  1.00  0.00     0.201 A 
HETATM   18  C   UNL     1      43.426 -17.342   4.123  1.00  0.00     0.045 A 
HETATM   19  O   UNL     1      43.121 -15.206   5.091  1.00  0.00    -0.286 OA
HETATM   20  C   UNL     1      43.486 -18.080   2.921  1.00  0.00     0.052 A 
HETATM   21  C   UNL     1      43.571 -17.964   5.365  1.00  0.00     0.060 A 
HETATM   22  C   UNL     1      43.734 -19.466   2.979  1.00  0.00    -0.031 A 
HETATM   23  N   UNL     1      43.362 -17.400   1.700  1.00  0.00    -0.364 N 
HETATM   24  C   UNL     1      43.824 -20.310   1.740  1.00  0.00     0.050 C 
HETATM   25  C   UNL     1      43.868 -20.082   4.234  1.00  0.00     0.051 A 
HETATM   26  C   UNL     1      43.787 -19.332   5.404  1.00  0.00     0.117 A 
HETATM   27  F   UNL     1      43.922 -19.944   6.587  1.00  0.00    -0.206 F 
HETATM   28  C   UNL     1      43.101 -16.055   1.657  1.00  0.00     0.109 A 
HETATM   29  H   UNL     1      43.258 -17.932   0.843  1.00  0.00     0.165 HD
ENDBRANCH  13  16
ENDBRANCH  10  12
ENDBRANCH   1  10
TORSDOF 3
ENDMDL
MODEL 5
REMARK VINA RESULT:      -8.5      3.859      5.684
REMARK  3 active torsions:
REMARK  status: ('A' for Active; 'I' for Inactive)
REMARK    1  A    between atoms: C_7  and  C_8 
REMARK       I    between atoms: C_8  and  N_9 
REMARK    2  A    between atoms: N_9  and  N_10 
REMARK    3  A    between atoms: N_10  and  C_11 
ROOT
HETATM    1  C   UNL     1      38.821 -11.887   0.799  1.00  0.00     0.124 A 
HETATM    2  N   UNL     1      39.118 -10.575   0.851  1.00  0.00    -0.223 NA
HETATM    3  C   UNL     1      39.807 -10.049  -0.179  1.00  0.00     0.129 A 
HETATM    4 CL   UNL     1      40.138  -8.372  -0.032  1.00  0.00    -0.062 Cl
HETATM    5  C   UNL     1      40.240 -10.758  -1.279  1.00  0.00     0.067 A 
HETATM    6  C   UNL     1      39.940 -12.114  -1.312  1.00  0.00     0.051 A 
HETATM    7  C   UNL     1      40.366 -12.917  -2.418  1.00  0.00     0.099 C 
HETATM    8  N   UNL     1      40.714 -13.562  -3.317  1.00  0.00    -0.191 NA
HETATM    9  C   UNL     1      39.228 -12.691  -0.261  1.00  0.00     0.068 A 
ENDROOT
BRANCH   1  10
HETATM   10  N   UNL     1      38.140 -12.425   1.909  1.00  0.00    -0.186 NA
HETATM   11  H   UNL     1      37.208 -12.693   1.560  1.00  0.00     0.154 HD
BRANCH  10  12
HETATM   12  N   UNL     1      38.803 -13.522   2.496  1.00  0.00    -0.281 N 
HETATM   13  C   UNL     1      39.752 -13.251   3.462  1.00  0.00     0.271 C 
HETATM   14  O   UNL     1      39.878 -12.143   3.984  1.00  0.00    -0.266 OA
HETATM   15  H   UNL     1      38.860 -14.384   1.946  1.00  0.00     0.184 HD
BRANCH  13  16
HETATM   16  C   UNL     1      40.638 -14.396   3.807  1.00  0.00     0.099 A 
HETATM   17  C   UNL     1      41.116 -15.408   2.825  1.00  0.00     0.201 A 
HETATM   18  C   UNL     1      42.042 -16.469   3.303  1.00  0.00     0.045 A 
HETATM   19  O   UNL     1      40.768 -15.362   1.646  1.00  0.00    -0.286 OA
HETATM   20  C   UNL     1      42.426 -16.486   4.661  1.00  0.00     0.052 A 
HETATM   21  C   UNL     1      42.527 -17.418   2.400  1.00  0.00     0.060 A 
HETATM   22  C   UNL     1      43.288 -17.503   5.118  1.00  0.00    -0.031 A 
HETATM   23  N   UNL     1      41.886 -15.527   5.532  1.00  0.00    -0.364 N 
HETATM   24  C   UNL     1      43.726 -17.590   6.552  1.00  0.00     0.050 C 
HETATM   25  C   UNL     1      43.777 -18.445   4.198  1.00  0.00     0.051 A 
HETATM   26  C   UNL     1      43.395 -18.394   2.860  1.00  0.00     0.117 A 
HETATM   27  F   UNL     1      43.874 -19.306   2.005  1.00  0.00    -0.206 F 
HETATM   28  C   UNL     1      41.065 -14.529   5.072  1.00  0.00     0.109 A 
HETATM   29  H   UNL     1      42.262 -15.438   6.469  1.00  0.00     0.165 HD
ENDBRANCH  13  16
ENDBRANCH  10  12
ENDBRANCH   1  10
TORSDOF 3
ENDMDL
MODEL 6
REMARK VINA RESULT:      -8.4      3.500      8.193
REMARK  3 active torsions:
REMARK  status: ('A' for Active; 'I' for Inactive)
REMARK    1  A    between atoms: C_7  and  C_8 
REMARK       I    between atoms: C_8  and  N_9 
REMARK    2  A    between atoms: N_9  and  N_10 
REMARK    3  A    between atoms: N_10  and  C_11 
ROOT
HETATM    1  C   UNL     1      43.251 -15.944   3.822  1.00  0.00     0.124 A 
HETATM    2  N   UNL     1      43.404 -16.100   5.150  1.00  0.00    -0.223 NA
HETATM    3  C   UNL     1      43.657 -17.340   5.609  1.00  0.00     0.129 A 
HETATM    4 CL   UNL     1      43.842 -17.446   7.310  1.00  0.00    -0.062 Cl
HETATM    5  C   UNL     1      43.760 -18.464   4.818  1.00  0.00     0.067 A 
HETATM    6  C   UNL     1      43.584 -18.292   3.452  1.00  0.00     0.051 A 
HETATM    7  C   UNL     1      43.666 -19.416   2.569  1.00  0.00     0.099 C 
HETATM    8  N   UNL     1      43.734 -20.330   1.859  1.00  0.00    -0.191 NA
HETATM    9  C   UNL     1      43.320 -17.020   2.943  1.00  0.00     0.068 A 
ENDROOT
BRANCH   1  10
HETATM   10  N   UNL     1      42.941 -14.645   3.370  1.00  0.00    -0.186 NA
HETATM   11  H   UNL     1      42.134 -14.757   2.739  1.00  0.00     0.154 HD
BRANCH  10  12
HETATM   12  N   UNL     1      42.655 -13.742   4.414  1.00  0.00    -0.281 N 
HETATM   13  C   UNL     1      43.275 -12.510   4.379  1.00  0.00     0.271 C 
HETATM   14  O   UNL     1      43.870 -12.088   3.388  1.00  0.00    -0.266 OA
HETATM   15  H   UNL     1      42.350 -14.139   5.308  1.00  0.00     0.184 HD
BRANCH  13  16
HETATM   16  C   UNL     1      43.198 -11.734   5.648  1.00  0.00     0.099 A 
HETATM   17  C   UNL     1      44.351 -11.516   6.564  1.00  0.00     0.201 A 
HETATM   18  C   UNL     1      44.139 -10.673   7.771  1.00  0.00     0.045 A 
HETATM   19  O   UNL     1      45.454 -12.004   6.324  1.00  0.00    -0.286 OA
HETATM   20  C   UNL     1      42.861 -10.122   8.010  1.00  0.00     0.052 A 
HETATM   21  C   UNL     1      45.208 -10.429   8.637  1.00  0.00     0.060 A 
HETATM   22  C   UNL     1      42.656  -9.341   9.164  1.00  0.00    -0.031 A 
HETATM   23  N   UNL     1      41.816 -10.423   7.124  1.00  0.00    -0.364 N 
HETATM   24  C   UNL     1      41.320  -8.735   9.488  1.00  0.00     0.050 C 
HETATM   25  C   UNL     1      43.742  -9.094  10.021  1.00  0.00     0.051 A 
HETATM   26  C   UNL     1      44.995  -9.637   9.752  1.00  0.00     0.117 A 
HETATM   27  F   UNL     1      46.011  -9.388  10.587  1.00  0.00    -0.206 F 
HETATM   28  C   UNL     1      42.032 -11.167   5.993  1.00  0.00     0.109 A 
HETATM   29  H   UNL     1      40.938  -9.921   7.201  1.00  0.00     0.165 HD
ENDBRANCH  13  16
ENDBRANCH  10  12
ENDBRANCH   1  10
TORSDOF 3
ENDMDL
MODEL 7
REMARK VINA RESULT:      -8.4      3.207      4.833
REMARK  3 active torsions:
REMARK  status: ('A' for Active; 'I' for Inactive)
REMARK    1  A    between atoms: C_7  and  C_8 
REMARK       I    between atoms: C_8  and  N_9 
REMARK    2  A    between atoms: N_9  and  N_10 
REMARK    3  A    between atoms: N_10  and  C_11 
ROOT
HETATM    1  C   UNL     1      40.742 -12.321   2.708  1.00  0.00     0.124 A 
HETATM    2  N   UNL     1      40.946 -11.038   2.357  1.00  0.00    -0.223 NA
HETATM    3  C   UNL     1      40.715 -10.696   1.075  1.00  0.00     0.129 A 
HETATM    4 CL   UNL     1      40.995  -9.042   0.717  1.00  0.00    -0.062 Cl
HETATM    5  C   UNL     1      40.297 -11.567   0.093  1.00  0.00     0.067 A 
HETATM    6  C   UNL     1      40.106 -12.892   0.464  1.00  0.00     0.051 A 
HETATM    7  C   UNL     1      39.682 -13.857  -0.504  1.00  0.00     0.099 C 
HETATM    8  N   UNL     1      39.338 -14.634  -1.294  1.00  0.00    -0.191 NA
HETATM    9  C   UNL     1      40.336 -13.280   1.785  1.00  0.00     0.068 A 
ENDROOT
BRANCH   1  10
HETATM   10  N   UNL     1      41.035 -12.665   4.043  1.00  0.00    -0.186 NA
HETATM   11  H   UNL     1      40.220 -12.357   4.593  1.00  0.00     0.154 HD
BRANCH  10  12
HETATM   12  N   UNL     1      41.288 -14.040   4.226  1.00  0.00    -0.281 N 
HETATM   13  C   UNL     1      42.560 -14.408   4.614  1.00  0.00     0.271 C 
HETATM   14  O   UNL     1      43.396 -13.600   5.019  1.00  0.00    -0.266 OA
HETATM   15  H   UNL     1      40.697 -14.698   3.709  1.00  0.00     0.184 HD
BRANCH  13  16
HETATM   16  C   UNL     1      42.861 -15.860   4.476  1.00  0.00     0.099 A 
HETATM   17  C   UNL     1      42.784 -16.610   3.193  1.00  0.00     0.201 A 
HETATM   18  C   UNL     1      43.165 -18.048   3.196  1.00  0.00     0.045 A 
HETATM   19  O   UNL     1      42.430 -16.057   2.154  1.00  0.00    -0.286 OA
HETATM   20  C   UNL     1      43.575 -18.649   4.407  1.00  0.00     0.052 A 
HETATM   21  C   UNL     1      43.127 -18.773   2.003  1.00  0.00     0.060 A 
HETATM   22  C   UNL     1      43.916 -20.016   4.413  1.00  0.00    -0.031 A 
HETATM   23  N   UNL     1      43.567 -17.882   5.582  1.00  0.00    -0.364 N 
HETATM   24  C   UNL     1      44.348 -20.722   5.667  1.00  0.00     0.050 C 
HETATM   25  C   UNL     1      43.884 -20.731   3.205  1.00  0.00     0.051 A 
HETATM   26  C   UNL     1      43.492 -20.109   2.023  1.00  0.00     0.117 A 
HETATM   27  F   UNL     1      43.468 -20.816   0.886  1.00  0.00    -0.206 F 
HETATM   28  C   UNL     1      43.252 -16.547   5.560  1.00  0.00     0.109 A 
HETATM   29  H   UNL     1      43.994 -18.255   6.423  1.00  0.00     0.165 HD
ENDBRANCH  13  16
ENDBRANCH  10  12
ENDBRANCH   1  10
TORSDOF 3
ENDMDL
MODEL 8
REMARK VINA RESULT:      -8.3      3.243      4.494
REMARK  3 active torsions:
REMARK  status: ('A' for Active; 'I' for Inactive)
REMARK    1  A    between atoms: C_7  and  C_8 
REMARK       I    between atoms: C_8  and  N_9 
REMARK    2  A    between atoms: N_9  and  N_10 
REMARK    3  A    between atoms: N_10  and  C_11 
ROOT
HETATM    1  C   UNL     1      42.310  -9.830   8.551  1.00  0.00     0.124 A 
HETATM    2  N   UNL     1      43.448 -10.216   7.945  1.00  0.00    -0.223 NA
HETATM    3  C   UNL     1      44.600 -10.078   8.630  1.00  0.00     0.129 A 
HETATM    4 CL   UNL     1      45.998 -10.599   7.785  1.00  0.00    -0.062 Cl
HETATM    5  C   UNL     1      44.698  -9.559   9.902  1.00  0.00     0.067 A 
HETATM    6  C   UNL     1      43.519  -9.149  10.510  1.00  0.00     0.051 A 
HETATM    7  C   UNL     1      43.544  -8.589  11.827  1.00  0.00     0.099 C 
HETATM    8  N   UNL     1      43.572  -8.138  12.895  1.00  0.00    -0.191 NA
HETATM    9  C   UNL     1      42.308  -9.279   9.828  1.00  0.00     0.068 A 
ENDROOT
BRANCH   1  10
HETATM   10  N   UNL     1      41.124  -9.942   7.797  1.00  0.00    -0.186 NA
HETATM   11  H   UNL     1      40.887  -8.981   7.511  1.00  0.00     0.154 HD
BRANCH  10  12
HETATM   12  N   UNL     1      41.247 -10.795   6.682  1.00  0.00    -0.281 N 
HETATM   13  C   UNL     1      40.162 -11.585   6.360  1.00  0.00     0.271 C 
HETATM   14  O   UNL     1      39.045 -11.418   6.848  1.00  0.00    -0.266 OA
HETATM   15  H   UNL     1      42.193 -11.087   6.416  1.00  0.00     0.184 HD
BRANCH  13  16
HETATM   16  C   UNL     1      40.451 -12.683   5.397  1.00  0.00     0.099 A 
HETATM   17  C   UNL     1      41.616 -13.603   5.504  1.00  0.00     0.201 A 
HETATM   18  C   UNL     1      41.749 -14.690   4.497  1.00  0.00     0.045 A 
HETATM   19  O   UNL     1      42.440 -13.481   6.408  1.00  0.00    -0.286 OA
HETATM   20  C   UNL     1      40.779 -14.805   3.477  1.00  0.00     0.052 A 
HETATM   21  C   UNL     1      42.817 -15.584   4.586  1.00  0.00     0.060 A 
HETATM   22  C   UNL     1      40.916 -15.822   2.512  1.00  0.00    -0.031 A 
HETATM   23  N   UNL     1      39.742 -13.862   3.417  1.00  0.00    -0.364 N 
HETATM   24  C   UNL     1      39.929 -15.994   1.392  1.00  0.00     0.050 C 
HETATM   25  C   UNL     1      41.989 -16.721   2.618  1.00  0.00     0.051 A 
HETATM   26  C   UNL     1      42.921 -16.595   3.645  1.00  0.00     0.117 A 
HETATM   27  F   UNL     1      43.936 -17.464   3.721  1.00  0.00    -0.206 F 
HETATM   28  C   UNL     1      39.607 -12.888   4.374  1.00  0.00     0.109 A 
HETATM   29  H   UNL     1      38.964 -14.016   2.785  1.00  0.00     0.165 HD
ENDBRANCH  13  16
ENDBRANCH  10  12
ENDBRANCH   1  10
TORSDOF 3
ENDMDL
MODEL 9
REMARK VINA RESULT:      -8.2      3.147      4.335
REMARK  3 active torsions:
REMARK  status: ('A' for Active; 'I' for Inactive)
REMARK    1  A    between atoms: C_7  and  C_8 
REMARK       I    between atoms: C_8  and  N_9 
REMARK    2  A    between atoms: N_9  and  N_10 
REMARK    3  A    between atoms: N_10  and  C_11 
ROOT
HETATM    1  C   UNL     1      42.214  -9.719   8.446  1.00  0.00     0.124 A 
HETATM    2  N   UNL     1      42.155  -9.075   9.627  1.00  0.00    -0.223 NA
HETATM    3  C   UNL     1      43.317  -8.819  10.258  1.00  0.00     0.129 A 
HETATM    4 CL   UNL     1      43.148  -7.992  11.751  1.00  0.00    -0.062 Cl
HETATM    5  C   UNL     1      44.561  -9.179   9.789  1.00  0.00     0.067 A 
HETATM    6  C   UNL     1      44.607  -9.858   8.578  1.00  0.00     0.051 A 
HETATM    7  C   UNL     1      45.864 -10.273   8.033  1.00  0.00     0.099 C 
HETATM    8  N   UNL     1      46.886 -10.606   7.597  1.00  0.00    -0.191 NA
HETATM    9  C   UNL     1      43.422 -10.139   7.897  1.00  0.00     0.068 A 
ENDROOT
BRANCH   1  10
HETATM   10  N   UNL     1      40.983 -10.017   7.827  1.00  0.00    -0.186 NA
HETATM   11  H   UNL     1      40.568  -9.106   7.585  1.00  0.00     0.154 HD
BRANCH  10  12
HETATM   12  N   UNL     1      41.113 -10.841   6.690  1.00  0.00    -0.281 N 
HETATM   13  C   UNL     1      40.048 -11.658   6.370  1.00  0.00     0.271 C 
HETATM   14  O   UNL     1      38.935 -11.538   6.882  1.00  0.00    -0.266 OA
HETATM   15  H   UNL     1      42.062 -11.096   6.401  1.00  0.00     0.184 HD
BRANCH  13  16
HETATM   16  C   UNL     1      40.353 -12.725   5.377  1.00  0.00     0.099 A 
HETATM   17  C   UNL     1      41.514 -13.651   5.478  1.00  0.00     0.201 A 
HETATM   18  C   UNL     1      41.664 -14.704   4.438  1.00  0.00     0.045 A 
HETATM   19  O   UNL     1      42.320 -13.561   6.401  1.00  0.00    -0.286 OA
HETATM   20  C   UNL     1      40.715 -14.783   3.396  1.00  0.00     0.052 A 
HETATM   21  C   UNL     1      42.729 -15.605   4.519  1.00  0.00     0.060 A 
HETATM   22  C   UNL     1      40.870 -15.768   2.401  1.00  0.00    -0.031 A 
HETATM   23  N   UNL     1      39.681 -13.836   3.346  1.00  0.00    -0.364 N 
HETATM   24  C   UNL     1      39.905 -15.901   1.256  1.00  0.00     0.050 C 
HETATM   25  C   UNL     1      41.938 -16.674   2.499  1.00  0.00     0.051 A 
HETATM   26  C   UNL     1      42.850 -16.584   3.547  1.00  0.00     0.117 A 
HETATM   27  F   UNL     1      43.861 -17.458   3.615  1.00  0.00    -0.206 F 
HETATM   28  C   UNL     1      39.529 -12.894   4.332  1.00  0.00     0.109 A 
HETATM   29  H   UNL     1      38.917 -13.967   2.694  1.00  0.00     0.165 HD
ENDBRANCH  13  16
ENDBRANCH  10  12
ENDBRANCH   1  10
TORSDOF 3
ENDMDL
MODEL 10
REMARK VINA RESULT:      -8.2      4.384      5.668
REMARK  3 active torsions:
REMARK  status: ('A' for Active; 'I' for Inactive)
REMARK    1  A    between atoms: C_7  and  C_8 
REMARK       I    between atoms: C_8  and  N_9 
REMARK    2  A    between atoms: N_9  and  N_10 
REMARK    3  A    between atoms: N_10  and  C_11 
ROOT
HETATM    1  C   UNL     1      40.511 -11.778  -1.462  1.00  0.00     0.124 A 
HETATM    2  N   UNL     1      39.250 -11.377  -1.215  1.00  0.00    -0.223 NA
HETATM    3  C   UNL     1      39.041 -10.062  -1.010  1.00  0.00     0.129 A 
HETATM    4 CL   UNL     1      37.406  -9.639  -0.709  1.00  0.00    -0.062 Cl
HETATM    5  C   UNL     1      40.026  -9.099  -1.021  1.00  0.00     0.067 A 
HETATM    6  C   UNL     1      41.325  -9.529  -1.260  1.00  0.00     0.051 A 
HETATM    7  C   UNL     1      42.403  -8.587  -1.276  1.00  0.00     0.099 C 
HETATM    8  N   UNL     1      43.271  -7.819  -1.289  1.00  0.00    -0.191 NA
HETATM    9  C   UNL     1      41.577 -10.884  -1.478  1.00  0.00     0.068 A 
ENDROOT
BRANCH   1  10
HETATM   10  N   UNL     1      40.711 -13.163  -1.628  1.00  0.00    -0.186 NA
HETATM   11  H   UNL     1      41.405 -13.253  -2.384  1.00  0.00     0.154 HD
BRANCH  10  12
HETATM   12  N   UNL     1      41.143 -13.812  -0.453  1.00  0.00    -0.281 N 
HETATM   13  C   UNL     1      40.327 -14.795   0.069  1.00  0.00     0.271 C 
HETATM   14  O   UNL     1      39.379 -15.277  -0.551  1.00  0.00    -0.266 OA
HETATM   15  H   UNL     1      41.785 -13.298   0.157  1.00  0.00     0.184 HD
BRANCH  13  16
HETATM   16  C   UNL     1      40.659 -15.211   1.459  1.00  0.00     0.099 A 
HETATM   17  C   UNL     1      41.991 -15.726   1.881  1.00  0.00     0.201 A 
HETATM   18  C   UNL     1      42.195 -16.053   3.317  1.00  0.00     0.045 A 
HETATM   19  O   UNL     1      42.904 -15.863   1.070  1.00  0.00    -0.286 OA
HETATM   20  C   UNL     1      41.125 -15.876   4.222  1.00  0.00     0.052 A 
HETATM   21  C   UNL     1      43.441 -16.514   3.748  1.00  0.00     0.060 A 
HETATM   22  C   UNL     1      41.313 -16.205   5.579  1.00  0.00    -0.031 A 
HETATM   23  N   UNL     1      39.886 -15.437   3.731  1.00  0.00    -0.364 N 
HETATM   24  C   UNL     1      40.216 -16.054   6.594  1.00  0.00     0.050 C 
HETATM   25  C   UNL     1      42.574 -16.658   6.002  1.00  0.00     0.051 A 
HETATM   26  C   UNL     1      43.616 -16.807   5.090  1.00  0.00     0.117 A 
HETATM   27  F   UNL     1      44.806 -17.244   5.520  1.00  0.00    -0.206 F 
HETATM   28  C   UNL     1      39.721 -15.100   2.412  1.00  0.00     0.109 A 
HETATM   29  H   UNL     1      39.159 -15.168   4.385  1.00  0.00     0.165 HD
ENDBRANCH  13  16
ENDBRANCH  10  12
ENDBRANCH   1  10
TORSDOF 3
ENDMDL
