MODEL 1
REMARK VINA RESULT:      -8.7      0.000      0.000
REMARK  6 active torsions:
REMARK  status: ('A' for Active; 'I' for Inactive)
REMARK    1  A    between atoms: C_3  and  C_4 
REMARK       I    between atoms: C_4  and  N_5 
REMARK    2  A    between atoms: N_5  and  C_6 
REMARK    3  A    between atoms: C_14  and  N_15 
REMARK       I    between atoms: N_15  and  C_16 
REMARK    4  A    between atoms: C_16  and  C_17 
REMARK    5  A    between atoms: C_17  and  S_18 
REMARK    6  A    between atoms: S_18  and  C_19 
ROOT
HETATM    1  C   UNL     1      43.209 -20.509   2.113  1.00  0.00     0.001 A 
HETATM    2  C   UNL     1      42.814 -19.189   1.903  1.00  0.00     0.019 A 
HETATM    3  C   UNL     1      43.191 -18.178   2.808  1.00  0.00     0.059 A 
HETATM    4  C   UNL     1      43.931 -18.504   3.968  1.00  0.00     0.050 A 
HETATM    5  C   UNL     1      44.328 -19.835   4.149  1.00  0.00     0.030 A 
HETATM    6  C   UNL     1      43.976 -20.826   3.227  1.00  0.00     0.002 A 
ENDROOT
BRANCH   4   7
HETATM    7  N   UNL     1      44.216 -17.500   4.927  1.00  0.00    -0.326 N 
HETATM    8  C   UNL     1      43.860 -17.461   6.258  1.00  0.00     0.231 C 
HETATM    9  O   UNL     1      43.309 -18.383   6.865  1.00  0.00    -0.272 OA
HETATM   10  H   UNL     1      44.735 -16.694   4.568  1.00  0.00     0.169 HD
BRANCH   8  11
HETATM   11  C   UNL     1      44.136 -16.158   6.999  1.00  0.00     0.185 C 
BRANCH  11  12
HETATM   12  S   UNL     1      42.660 -15.232   7.505  1.00  0.00    -0.083 SA
BRANCH  12  13
HETATM   13  C   UNL     1      42.538 -14.094   6.217  1.00  0.00     0.168 A 
HETATM   14  N   UNL     1      43.154 -14.141   5.062  1.00  0.00    -0.223 NA
HETATM   15  C   UNL     1      42.784 -12.980   4.426  1.00  0.00     0.086 A 
HETATM   16  C   UNL     1      41.907 -12.235   5.211  1.00  0.00     0.063 A 
HETATM   17  C   UNL     1      43.157 -12.490   3.167  1.00  0.00     0.034 A 
HETATM   18  N   UNL     1      41.777 -12.973   6.359  1.00  0.00    -0.333 N 
HETATM   19  C   UNL     1      41.361 -11.015   4.806  1.00  0.00     0.032 A 
HETATM   20  H   UNL     1      41.238 -12.734   7.177  1.00  0.00     0.168 HD
HETATM   21  C   UNL     1      41.743 -10.546   3.544  1.00  0.00     0.002 A 
HETATM   22  C   UNL     1      42.628 -11.267   2.737  1.00  0.00     0.002 A 
ENDBRANCH  12  13
ENDBRANCH  11  12
ENDBRANCH   8  11
ENDBRANCH   4   7
BRANCH   3  23
HETATM   23  C   UNL     1      42.818 -16.759   2.505  1.00  0.00     0.258 C 
HETATM   24  N   UNL     1      41.466 -16.541   2.296  1.00  0.00    -0.323 N 
HETATM   25  H   UNL     1      40.874 -17.360   2.230  1.00  0.00     0.169 HD
HETATM   26  O   UNL     1      43.704 -15.920   2.402  1.00  0.00    -0.267 OA
BRANCH  24  27
HETATM   27  C   UNL     1      40.828 -15.307   2.054  1.00  0.00     0.035 A 
HETATM   28  C   UNL     1      40.035 -14.640   2.994  1.00  0.00     0.032 A 
HETATM   29  C   UNL     1      39.432 -13.421   2.674  1.00  0.00     0.044 A 
HETATM   30  C   UNL     1      39.617 -12.871   1.413  1.00  0.00     0.116 A 
HETATM   31  F   UNL     1      39.039 -11.703   1.108  1.00  0.00    -0.206 F 
HETATM   32  C   UNL     1      40.393 -13.521   0.462  1.00  0.00     0.044 A 
HETATM   33  C   UNL     1      40.996 -14.740   0.782  1.00  0.00     0.032 A 
ENDBRANCH  24  27
ENDBRANCH   3  23
TORSDOF 6
ENDMDL
MODEL 2
REMARK VINA RESULT:      -8.6      2.436      2.590
REMARK  6 active torsions:
REMARK  status: ('A' for Active; 'I' for Inactive)
REMARK    1  A    between atoms: C_3  and  C_4 
REMARK       I    between atoms: C_4  and  N_5 
REMARK    2  A    between atoms: N_5  and  C_6 
REMARK    3  A    between atoms: C_14  and  N_15 
REMARK       I    between atoms: N_15  and  C_16 
REMARK    4  A    between atoms: C_16  and  C_17 
REMARK    5  A    between atoms: C_17  and  S_18 
REMARK    6  A    between atoms: S_18  and  C_19 
ROOT
HETATM    1  C   UNL     1      43.327 -20.285   2.386  1.00  0.00     0.001 A 
HETATM    2  C   UNL     1      42.887 -19.012   2.029  1.00  0.00     0.019 A 
HETATM    3  C   UNL     1      43.181 -17.900   2.842  1.00  0.00     0.059 A 
HETATM    4  C   UNL     1      43.879 -18.076   4.058  1.00  0.00     0.050 A 
HETATM    5  C   UNL     1      44.323 -19.363   4.388  1.00  0.00     0.030 A 
HETATM    6  C   UNL     1      44.055 -20.455   3.558  1.00  0.00     0.002 A 
ENDROOT
BRANCH   4   7
HETATM    7  N   UNL     1      44.079 -16.970   4.923  1.00  0.00    -0.326 N 
HETATM    8  C   UNL     1      43.238 -16.485   5.902  1.00  0.00     0.231 C 
HETATM    9  O   UNL     1      42.191 -17.030   6.261  1.00  0.00    -0.272 OA
HETATM   10  H   UNL     1      44.953 -16.459   4.777  1.00  0.00     0.169 HD
BRANCH   8  11
HETATM   11  C   UNL     1      43.630 -15.158   6.541  1.00  0.00     0.185 C 
BRANCH  11  12
HETATM   12  S   UNL     1      42.518 -13.771   6.177  1.00  0.00    -0.083 SA
BRANCH  12  13
HETATM   13  C   UNL     1      43.476 -12.443   6.714  1.00  0.00     0.168 A 
HETATM   14  N   UNL     1      44.783 -12.362   6.712  1.00  0.00    -0.223 NA
HETATM   15  C   UNL     1      45.055 -11.149   7.298  1.00  0.00     0.086 A 
HETATM   16  C   UNL     1      43.879 -10.480   7.636  1.00  0.00     0.063 A 
HETATM   17  C   UNL     1      46.288 -10.545   7.578  1.00  0.00     0.034 A 
HETATM   18  N   UNL     1      42.884 -11.343   7.256  1.00  0.00    -0.333 N 
HETATM   19  C   UNL     1      43.858  -9.220   8.236  1.00  0.00     0.032 A 
HETATM   20  H   UNL     1      41.891 -11.211   7.370  1.00  0.00     0.168 HD
HETATM   21  C   UNL     1      45.101  -8.632   8.503  1.00  0.00     0.002 A 
HETATM   22  C   UNL     1      46.297  -9.282   8.184  1.00  0.00     0.002 A 
ENDBRANCH  12  13
ENDBRANCH  11  12
ENDBRANCH   8  11
ENDBRANCH   4   7
BRANCH   3  23
HETATM   23  C   UNL     1      42.762 -16.537   2.384  1.00  0.00     0.258 C 
HETATM   24  N   UNL     1      41.397 -16.366   2.222  1.00  0.00    -0.323 N 
HETATM   25  H   UNL     1      40.820 -17.195   2.293  1.00  0.00     0.169 HD
HETATM   26  O   UNL     1      43.625 -15.705   2.128  1.00  0.00    -0.267 OA
BRANCH  24  27
HETATM   27  C   UNL     1      40.721 -15.182   1.861  1.00  0.00     0.035 A 
HETATM   28  C   UNL     1      40.175 -14.283   2.783  1.00  0.00     0.032 A 
HETATM   29  C   UNL     1      39.515 -13.132   2.343  1.00  0.00     0.044 A 
HETATM   30  C   UNL     1      39.397 -12.883   0.982  1.00  0.00     0.116 A 
HETATM   31  F   UNL     1      38.764 -11.780   0.563  1.00  0.00    -0.206 F 
HETATM   32  C   UNL     1      39.924 -13.767   0.051  1.00  0.00     0.044 A 
HETATM   33  C   UNL     1      40.584 -14.918   0.490  1.00  0.00     0.032 A 
ENDBRANCH  24  27
ENDBRANCH   3  23
TORSDOF 6
ENDMDL
MODEL 3
REMARK VINA RESULT:      -8.3      3.386      5.889
REMARK  6 active torsions:
REMARK  status: ('A' for Active; 'I' for Inactive)
REMARK    1  A    between atoms: C_3  and  C_4 
REMARK       I    between atoms: C_4  and  N_5 
REMARK    2  A    between atoms: N_5  and  C_6 
REMARK    3  A    between atoms: C_14  and  N_15 
REMARK       I    between atoms: N_15  and  C_16 
REMARK    4  A    between atoms: C_16  and  C_17 
REMARK    5  A    between atoms: C_17  and  S_18 
REMARK    6  A    between atoms: S_18  and  C_19 
ROOT
HETATM    1  C   UNL     1      39.691 -13.675  -0.865  1.00  0.00     0.001 A 
HETATM    2  C   UNL     1      40.180 -14.711  -0.073  1.00  0.00     0.019 A 
HETATM    3  C   UNL     1      40.291 -14.553   1.323  1.00  0.00     0.059 A 
HETATM    4  C   UNL     1      39.958 -13.318   1.924  1.00  0.00     0.050 A 
HETATM    5  C   UNL     1      39.455 -12.296   1.108  1.00  0.00     0.030 A 
HETATM    6  C   UNL     1      39.317 -12.475  -0.272  1.00  0.00     0.002 A 
ENDROOT
BRANCH   4   7
HETATM    7  N   UNL     1      40.172 -13.130   3.313  1.00  0.00    -0.326 N 
HETATM    8  C   UNL     1      41.369 -13.069   3.995  1.00  0.00     0.231 C 
HETATM    9  O   UNL     1      42.481 -13.060   3.461  1.00  0.00    -0.272 OA
HETATM   10  H   UNL     1      39.321 -13.053   3.875  1.00  0.00     0.169 HD
BRANCH   8  11
HETATM   11  C   UNL     1      41.286 -13.057   5.517  1.00  0.00     0.185 C 
BRANCH  11  12
HETATM   12  S   UNL     1      42.668 -13.865   6.369  1.00  0.00    -0.083 SA
BRANCH  12  13
HETATM   13  C   UNL     1      43.597 -12.495   6.845  1.00  0.00     0.168 A 
HETATM   14  N   UNL     1      44.899 -12.366   6.789  1.00  0.00    -0.223 NA
HETATM   15  C   UNL     1      45.149 -11.134   7.345  1.00  0.00     0.086 A 
HETATM   16  C   UNL     1      43.964 -10.502   7.719  1.00  0.00     0.063 A 
HETATM   17  C   UNL     1      46.369 -10.481   7.564  1.00  0.00     0.034 A 
HETATM   18  N   UNL     1      42.987 -11.407   7.393  1.00  0.00    -0.333 N 
HETATM   19  C   UNL     1      43.921  -9.233   8.298  1.00  0.00     0.032 A 
HETATM   20  H   UNL     1      41.995 -11.310   7.545  1.00  0.00     0.168 HD
HETATM   21  C   UNL     1      45.151  -8.596   8.505  1.00  0.00     0.002 A 
HETATM   22  C   UNL     1      46.356  -9.208   8.149  1.00  0.00     0.002 A 
ENDBRANCH  12  13
ENDBRANCH  11  12
ENDBRANCH   8  11
ENDBRANCH   4   7
BRANCH   3  23
HETATM   23  C   UNL     1      40.743 -15.716   2.150  1.00  0.00     0.258 C 
HETATM   24  N   UNL     1      42.073 -16.068   1.990  1.00  0.00    -0.323 N 
HETATM   25  H   UNL     1      42.583 -15.609   1.245  1.00  0.00     0.169 HD
HETATM   26  O   UNL     1      39.924 -16.305   2.845  1.00  0.00    -0.267 OA
BRANCH  24  27
HETATM   27  C   UNL     1      42.779 -17.076   2.679  1.00  0.00     0.035 A 
HETATM   28  C   UNL     1      42.972 -18.370   2.185  1.00  0.00     0.032 A 
HETATM   29  C   UNL     1      43.681 -19.314   2.934  1.00  0.00     0.044 A 
HETATM   30  C   UNL     1      44.191 -18.966   4.177  1.00  0.00     0.116 A 
HETATM   31  F   UNL     1      44.870 -19.871   4.893  1.00  0.00    -0.206 F 
HETATM   32  C   UNL     1      44.003 -17.689   4.689  1.00  0.00     0.044 A 
HETATM   33  C   UNL     1      43.295 -16.745   3.941  1.00  0.00     0.032 A 
ENDBRANCH  24  27
ENDBRANCH   3  23
TORSDOF 6
ENDMDL
MODEL 4
REMARK VINA RESULT:      -7.7      2.935      6.143
REMARK  6 active torsions:
REMARK  status: ('A' for Active; 'I' for Inactive)
REMARK    1  A    between atoms: C_3  and  C_4 
REMARK       I    between atoms: C_4  and  N_5 
REMARK    2  A    between atoms: N_5  and  C_6 
REMARK    3  A    between atoms: C_14  and  N_15 
REMARK       I    between atoms: N_15  and  C_16 
REMARK    4  A    between atoms: C_16  and  C_17 
REMARK    5  A    between atoms: C_17  and  S_18 
REMARK    6  A    between atoms: S_18  and  C_19 
ROOT
HETATM    1  C   UNL     1      39.311 -14.026  -1.760  1.00  0.00     0.001 A 
HETATM    2  C   UNL     1      39.785 -14.761  -0.676  1.00  0.00     0.019 A 
HETATM    3  C   UNL     1      40.479 -14.124   0.371  1.00  0.00     0.059 A 
HETATM    4  C   UNL     1      40.747 -12.737   0.303  1.00  0.00     0.050 A 
HETATM    5  C   UNL     1      40.247 -12.018  -0.791  1.00  0.00     0.030 A 
HETATM    6  C   UNL     1      39.531 -12.655  -1.809  1.00  0.00     0.002 A 
ENDROOT
BRANCH   4   7
HETATM    7  N   UNL     1      41.537 -12.122   1.306  1.00  0.00    -0.326 N 
HETATM    8  C   UNL     1      41.145 -11.218   2.271  1.00  0.00     0.231 C 
HETATM    9  O   UNL     1      39.979 -10.878   2.481  1.00  0.00    -0.272 OA
HETATM   10  H   UNL     1      42.529 -12.371   1.289  1.00  0.00     0.169 HD
BRANCH   8  11
HETATM   11  C   UNL     1      42.256 -10.573   3.092  1.00  0.00     0.185 C 
BRANCH  11  12
HETATM   12  S   UNL     1      41.860 -10.299   4.841  1.00  0.00    -0.083 SA
BRANCH  12  13
HETATM   13  C   UNL     1      41.832 -11.921   5.422  1.00  0.00     0.168 A 
HETATM   14  N   UNL     1      40.875 -12.800   5.260  1.00  0.00    -0.223 NA
HETATM   15  C   UNL     1      41.296 -13.903   5.963  1.00  0.00     0.086 A 
HETATM   16  C   UNL     1      42.546 -13.684   6.539  1.00  0.00     0.063 A 
HETATM   17  C   UNL     1      40.662 -15.138   6.158  1.00  0.00     0.034 A 
HETATM   18  N   UNL     1      42.858 -12.398   6.179  1.00  0.00    -0.333 N 
HETATM   19  C   UNL     1      43.220 -14.642   7.299  1.00  0.00     0.032 A 
HETATM   20  H   UNL     1      43.683 -11.879   6.439  1.00  0.00     0.168 HD
HETATM   21  C   UNL     1      42.570 -15.870   7.478  1.00  0.00     0.002 A 
HETATM   22  C   UNL     1      41.312 -16.115   6.921  1.00  0.00     0.002 A 
ENDBRANCH  12  13
ENDBRANCH  11  12
ENDBRANCH   8  11
ENDBRANCH   4   7
BRANCH   3  23
HETATM   23  C   UNL     1      40.901 -14.933   1.558  1.00  0.00     0.258 C 
HETATM   24  N   UNL     1      42.042 -15.697   1.371  1.00  0.00    -0.323 N 
HETATM   25  H   UNL     1      42.408 -15.751   0.429  1.00  0.00     0.169 HD
HETATM   26  O   UNL     1      40.204 -14.920   2.565  1.00  0.00    -0.267 OA
BRANCH  24  27
HETATM   27  C   UNL     1      42.696 -16.502   2.326  1.00  0.00     0.035 A 
HETATM   28  C   UNL     1      43.253 -16.011   3.512  1.00  0.00     0.032 A 
HETATM   29  C   UNL     1      43.890 -16.877   4.406  1.00  0.00     0.044 A 
HETATM   30  C   UNL     1      43.975 -18.231   4.111  1.00  0.00     0.116 A 
HETATM   31  F   UNL     1      44.586 -19.058   4.969  1.00  0.00    -0.206 F 
HETATM   32  C   UNL     1      43.438 -18.737   2.936  1.00  0.00     0.044 A 
HETATM   33  C   UNL     1      42.800 -17.872   2.042  1.00  0.00     0.032 A 
ENDBRANCH  24  27
ENDBRANCH   3  23
TORSDOF 6
ENDMDL
MODEL 5
REMARK VINA RESULT:      -7.7      3.406      6.695
REMARK  6 active torsions:
REMARK  status: ('A' for Active; 'I' for Inactive)
REMARK    1  A    between atoms: C_3  and  C_4 
REMARK       I    between atoms: C_4  and  N_5 
REMARK    2  A    between atoms: N_5  and  C_6 
REMARK    3  A    between atoms: C_14  and  N_15 
REMARK       I    between atoms: N_15  and  C_16 
REMARK    4  A    between atoms: C_16  and  C_17 
REMARK    5  A    between atoms: C_17  and  S_18 
REMARK    6  A    between atoms: S_18  and  C_19 
ROOT
HETATM    1  C   UNL     1      44.261 -12.129   7.052  1.00  0.00     0.001 A 
HETATM    2  C   UNL     1      43.916 -13.439   6.724  1.00  0.00     0.019 A 
HETATM    3  C   UNL     1      43.014 -13.699   5.674  1.00  0.00     0.059 A 
HETATM    4  C   UNL     1      42.407 -12.628   4.979  1.00  0.00     0.050 A 
HETATM    5  C   UNL     1      42.781 -11.321   5.318  1.00  0.00     0.030 A 
HETATM    6  C   UNL     1      43.703 -11.074   6.340  1.00  0.00     0.002 A 
ENDROOT
BRANCH   4   7
HETATM    7  N   UNL     1      41.421 -12.894   3.996  1.00  0.00    -0.326 N 
HETATM    8  C   UNL     1      40.066 -13.081   4.170  1.00  0.00     0.231 C 
HETATM    9  O   UNL     1      39.469 -12.932   5.239  1.00  0.00    -0.272 OA
HETATM   10  H   UNL     1      41.775 -12.978   3.040  1.00  0.00     0.169 HD
BRANCH   8  11
HETATM   11  C   UNL     1      39.281 -13.550   2.951  1.00  0.00     0.185 C 
BRANCH  11  12
HETATM   12  S   UNL     1      40.217 -14.570   1.778  1.00  0.00    -0.083 SA
BRANCH  12  13
HETATM   13  C   UNL     1      40.512 -13.427   0.523  1.00  0.00     0.168 A 
HETATM   14  N   UNL     1      40.687 -12.136   0.657  1.00  0.00    -0.223 NA
HETATM   15  C   UNL     1      40.812 -11.669  -0.629  1.00  0.00     0.086 A 
HETATM   16  C   UNL     1      40.735 -12.711  -1.552  1.00  0.00     0.063 A 
HETATM   17  C   UNL     1      40.996 -10.359  -1.093  1.00  0.00     0.034 A 
HETATM   18  N   UNL     1      40.532 -13.825  -0.779  1.00  0.00    -0.333 N 
HETATM   19  C   UNL     1      40.844 -12.525  -2.931  1.00  0.00     0.032 A 
HETATM   20  H   UNL     1      40.399 -14.771  -1.102  1.00  0.00     0.168 HD
HETATM   21  C   UNL     1      41.032 -11.210  -3.373  1.00  0.00     0.002 A 
HETATM   22  C   UNL     1      41.104 -10.143  -2.473  1.00  0.00     0.002 A 
ENDBRANCH  12  13
ENDBRANCH  11  12
ENDBRANCH   8  11
ENDBRANCH   4   7
BRANCH   3  23
HETATM   23  C   UNL     1      42.731 -15.120   5.298  1.00  0.00     0.258 C 
HETATM   24  N   UNL     1      43.572 -15.649   4.332  1.00  0.00    -0.323 N 
HETATM   25  H   UNL     1      44.204 -15.005   3.872  1.00  0.00     0.169 HD
HETATM   26  O   UNL     1      41.771 -15.689   5.801  1.00  0.00    -0.267 OA
BRANCH  24  27
HETATM   27  C   UNL     1      43.576 -16.968   3.832  1.00  0.00     0.035 A 
HETATM   28  C   UNL     1      42.956 -17.353   2.638  1.00  0.00     0.032 A 
HETATM   29  C   UNL     1      43.003 -18.684   2.215  1.00  0.00     0.044 A 
HETATM   30  C   UNL     1      43.663 -19.630   2.986  1.00  0.00     0.116 A 
HETATM   31  F   UNL     1      43.706 -20.905   2.579  1.00  0.00    -0.206 F 
HETATM   32  C   UNL     1      44.277 -19.271   4.178  1.00  0.00     0.044 A 
HETATM   33  C   UNL     1      44.231 -17.940   4.602  1.00  0.00     0.032 A 
ENDBRANCH  24  27
ENDBRANCH   3  23
TORSDOF 6
ENDMDL
MODEL 6
REMARK VINA RESULT:      -7.5      6.166      9.446
REMARK  6 active torsions:
REMARK  status: ('A' for Active; 'I' for Inactive)
REMARK    1  A    between atoms: C_3  and  C_4 
REMARK       I    between atoms: C_4  and  N_5 
REMARK    2  A    between atoms: N_5  and  C_6 
REMARK    3  A    between atoms: C_14  and  N_15 
REMARK       I    between atoms: N_15  and  C_16 
REMARK    4  A    between atoms: C_16  and  C_17 
REMARK    5  A    between atoms: C_17  and  S_18 
REMARK    6  A    between atoms: S_18  and  C_19 
ROOT
HETATM    1  C   UNL     1      46.395 -10.417   7.657  1.00  0.00     0.001 A 
HETATM    2  C   UNL     1      45.571  -9.786   8.586  1.00  0.00     0.019 A 
HETATM    3  C   UNL     1      44.175  -9.972   8.547  1.00  0.00     0.059 A 
HETATM    4  C   UNL     1      43.594 -10.760   7.527  1.00  0.00     0.050 A 
HETATM    5  C   UNL     1      44.445 -11.395   6.613  1.00  0.00     0.030 A 
HETATM    6  C   UNL     1      45.832 -11.231   6.681  1.00  0.00     0.002 A 
ENDROOT
BRANCH   4   7
HETATM    7  N   UNL     1      42.183 -10.857   7.429  1.00  0.00    -0.326 N 
HETATM    8  C   UNL     1      41.338 -10.210   6.552  1.00  0.00     0.231 C 
HETATM    9  O   UNL     1      41.710  -9.504   5.612  1.00  0.00    -0.272 OA
HETATM   10  H   UNL     1      41.743 -11.472   8.118  1.00  0.00     0.169 HD
BRANCH   8  11
HETATM   11  C   UNL     1      39.844 -10.358   6.811  1.00  0.00     0.185 C 
BRANCH  11  12
HETATM   12  S   UNL     1      38.924 -11.247   5.525  1.00  0.00    -0.083 SA
BRANCH  12  13
HETATM   13  C   UNL     1      39.766 -12.750   5.508  1.00  0.00     0.168 A 
HETATM   14  N   UNL     1      39.726 -13.687   6.422  1.00  0.00    -0.223 NA
HETATM   15  C   UNL     1      40.616 -14.637   5.983  1.00  0.00     0.086 A 
HETATM   16  C   UNL     1      41.183 -14.268   4.764  1.00  0.00     0.063 A 
HETATM   17  C   UNL     1      40.996 -15.850   6.572  1.00  0.00     0.034 A 
HETATM   18  N   UNL     1      40.623 -13.046   4.492  1.00  0.00    -0.333 N 
HETATM   19  C   UNL     1      42.112 -15.054   4.080  1.00  0.00     0.032 A 
HETATM   20  H   UNL     1      40.816 -12.454   3.700  1.00  0.00     0.168 HD
HETATM   21  C   UNL     1      42.475 -16.264   4.685  1.00  0.00     0.002 A 
HETATM   22  C   UNL     1      41.931 -16.657   5.911  1.00  0.00     0.002 A 
ENDBRANCH  12  13
ENDBRANCH  11  12
ENDBRANCH   8  11
ENDBRANCH   4   7
BRANCH   3  23
HETATM   23  C   UNL     1      43.330  -9.344   9.611  1.00  0.00     0.258 C 
HETATM   24  N   UNL     1      43.652  -9.712  10.908  1.00  0.00    -0.323 N 
HETATM   25  H   UNL     1      44.324 -10.461  11.019  1.00  0.00     0.169 HD
HETATM   26  O   UNL     1      42.400  -8.619   9.281  1.00  0.00    -0.267 OA
BRANCH  24  27
HETATM   27  C   UNL     1      43.068  -9.235  12.100  1.00  0.00     0.035 A 
HETATM   28  C   UNL     1      42.000  -9.862  12.752  1.00  0.00     0.032 A 
HETATM   29  C   UNL     1      41.476  -9.322  13.929  1.00  0.00     0.044 A 
HETATM   30  C   UNL     1      42.014  -8.154  14.452  1.00  0.00     0.116 A 
HETATM   31  F   UNL     1      41.509  -7.638  15.580  1.00  0.00    -0.206 F 
HETATM   32  C   UNL     1      43.067  -7.511  13.816  1.00  0.00     0.044 A 
HETATM   33  C   UNL     1      43.593  -8.051  12.638  1.00  0.00     0.032 A 
ENDBRANCH  24  27
ENDBRANCH   3  23
TORSDOF 6
ENDMDL
MODEL 7
REMARK VINA RESULT:      -7.4      3.501      7.365
REMARK  6 active torsions:
REMARK  status: ('A' for Active; 'I' for Inactive)
REMARK    1  A    between atoms: C_3  and  C_4 
REMARK       I    between atoms: C_4  and  N_5 
REMARK    2  A    between atoms: N_5  and  C_6 
REMARK    3  A    between atoms: C_14  and  N_15 
REMARK       I    between atoms: N_15  and  C_16 
REMARK    4  A    between atoms: C_16  and  C_17 
REMARK    5  A    between atoms: C_17  and  S_18 
REMARK    6  A    between atoms: S_18  and  C_19 
ROOT
HETATM    1  C   UNL     1      45.010  -9.559   9.263  1.00  0.00     0.001 A 
HETATM    2  C   UNL     1      44.958 -10.749   8.539  1.00  0.00     0.019 A 
HETATM    3  C   UNL     1      43.920 -10.979   7.616  1.00  0.00     0.059 A 
HETATM    4  C   UNL     1      42.889 -10.025   7.456  1.00  0.00     0.050 A 
HETATM    5  C   UNL     1      42.971  -8.831   8.184  1.00  0.00     0.030 A 
HETATM    6  C   UNL     1      44.024  -8.598   9.074  1.00  0.00     0.002 A 
ENDROOT
BRANCH   4   7
HETATM    7  N   UNL     1      41.792 -10.309   6.605  1.00  0.00    -0.326 N 
HETATM    8  C   UNL     1      41.617  -9.955   5.284  1.00  0.00     0.231 C 
HETATM    9  O   UNL     1      42.474  -9.408   4.586  1.00  0.00    -0.272 OA
HETATM   10  H   UNL     1      41.025 -10.826   7.045  1.00  0.00     0.169 HD
BRANCH   8  11
HETATM   11  C   UNL     1      40.244 -10.229   4.681  1.00  0.00     0.185 C 
BRANCH  11  12
HETATM   12  S   UNL     1      39.415 -11.719   5.299  1.00  0.00    -0.083 SA
BRANCH  12  13
HETATM   13  C   UNL     1      40.249 -12.940   4.414  1.00  0.00     0.168 A 
HETATM   14  N   UNL     1      39.748 -14.056   3.948  1.00  0.00    -0.223 NA
HETATM   15  C   UNL     1      40.821 -14.710   3.390  1.00  0.00     0.086 A 
HETATM   16  C   UNL     1      41.986 -13.952   3.505  1.00  0.00     0.063 A 
HETATM   17  C   UNL     1      40.881 -15.961   2.761  1.00  0.00     0.034 A 
HETATM   18  N   UNL     1      41.585 -12.826   4.177  1.00  0.00    -0.333 N 
HETATM   19  C   UNL     1      43.224 -14.368   3.013  1.00  0.00     0.032 A 
HETATM   20  H   UNL     1      42.166 -12.055   4.467  1.00  0.00     0.168 HD
HETATM   21  C   UNL     1      43.260 -15.619   2.384  1.00  0.00     0.002 A 
HETATM   22  C   UNL     1      42.111 -16.406   2.262  1.00  0.00     0.002 A 
ENDBRANCH  12  13
ENDBRANCH  11  12
ENDBRANCH   8  11
ENDBRANCH   4   7
BRANCH   3  23
HETATM   23  C   UNL     1      43.943 -12.233   6.798  1.00  0.00     0.258 C 
HETATM   24  N   UNL     1      43.512 -13.372   7.458  1.00  0.00    -0.323 N 
HETATM   25  H   UNL     1      43.350 -13.291   8.454  1.00  0.00     0.169 HD
HETATM   26  O   UNL     1      44.386 -12.190   5.657  1.00  0.00    -0.267 OA
BRANCH  24  27
HETATM   27  C   UNL     1      43.373 -14.669   6.921  1.00  0.00     0.035 A 
HETATM   28  C   UNL     1      44.432 -15.411   6.389  1.00  0.00     0.032 A 
HETATM   29  C   UNL     1      44.210 -16.691   5.872  1.00  0.00     0.044 A 
HETATM   30  C   UNL     1      42.928 -17.225   5.882  1.00  0.00     0.116 A 
HETATM   31  F   UNL     1      42.717 -18.450   5.385  1.00  0.00    -0.206 F 
HETATM   32  C   UNL     1      41.861 -16.501   6.397  1.00  0.00     0.044 A 
HETATM   33  C   UNL     1      42.083 -15.222   6.914  1.00  0.00     0.032 A 
ENDBRANCH  24  27
ENDBRANCH   3  23
TORSDOF 6
ENDMDL
MODEL 8
REMARK VINA RESULT:      -7.3      3.491      6.299
REMARK  6 active torsions:
REMARK  status: ('A' for Active; 'I' for Inactive)
REMARK    1  A    between atoms: C_3  and  C_4 
REMARK       I    between atoms: C_4  and  N_5 
REMARK    2  A    between atoms: N_5  and  C_6 
REMARK    3  A    between atoms: C_14  and  N_15 
REMARK       I    between atoms: N_15  and  C_16 
REMARK    4  A    between atoms: C_16  and  C_17 
REMARK    5  A    between atoms: C_17  and  S_18 
REMARK    6  A    between atoms: S_18  and  C_19 
ROOT
HETATM    1  C   UNL     1      39.317 -13.965  -1.804  1.00  0.00     0.001 A 
HETATM    2  C   UNL     1      39.848 -14.650  -0.712  1.00  0.00     0.019 A 
HETATM    3  C   UNL     1      40.038 -13.994   0.520  1.00  0.00     0.059 A 
HETATM    4  C   UNL     1      39.741 -12.618   0.643  1.00  0.00     0.050 A 
HETATM    5  C   UNL     1      39.195 -11.955  -0.465  1.00  0.00     0.030 A 
HETATM    6  C   UNL     1      38.980 -12.623  -1.673  1.00  0.00     0.002 A 
ENDROOT
BRANCH   4   7
HETATM    7  N   UNL     1      40.033 -11.939   1.852  1.00  0.00    -0.326 N 
HETATM    8  C   UNL     1      41.132 -11.163   2.156  1.00  0.00     0.231 C 
HETATM    9  O   UNL     1      42.008 -10.842   1.350  1.00  0.00    -0.272 OA
HETATM   10  H   UNL     1      39.344 -12.067   2.598  1.00  0.00     0.169 HD
BRANCH   8  11
HETATM   11  C   UNL     1      41.273 -10.721   3.608  1.00  0.00     0.185 C 
BRANCH  11  12
HETATM   12  S   UNL     1      41.468 -12.068   4.807  1.00  0.00    -0.083 SA
BRANCH  12  13
HETATM   13  C   UNL     1      42.630 -11.380   5.877  1.00  0.00     0.168 A 
HETATM   14  N   UNL     1      42.414 -10.478   6.801  1.00  0.00    -0.223 NA
HETATM   15  C   UNL     1      43.658 -10.212   7.322  1.00  0.00     0.086 A 
HETATM   16  C   UNL     1      44.636 -10.994   6.711  1.00  0.00     0.063 A 
HETATM   17  C   UNL     1      44.034  -9.311   8.328  1.00  0.00     0.034 A 
HETATM   18  N   UNL     1      43.944 -11.726   5.780  1.00  0.00    -0.333 N 
HETATM   19  C   UNL     1      45.988 -10.940   7.054  1.00  0.00     0.032 A 
HETATM   20  H   UNL     1      44.326 -12.388   5.123  1.00  0.00     0.168 HD
HETATM   21  C   UNL     1      46.342 -10.036   8.064  1.00  0.00     0.002 A 
HETATM   22  C   UNL     1      45.385  -9.232   8.689  1.00  0.00     0.002 A 
ENDBRANCH  12  13
ENDBRANCH  11  12
ENDBRANCH   8  11
ENDBRANCH   4   7
BRANCH   3  23
HETATM   23  C   UNL     1      40.533 -14.783   1.692  1.00  0.00     0.258 C 
HETATM   24  N   UNL     1      41.744 -15.426   1.497  1.00  0.00    -0.323 N 
HETATM   25  H   UNL     1      42.119 -15.422   0.556  1.00  0.00     0.169 HD
HETATM   26  O   UNL     1      39.832 -14.863   2.693  1.00  0.00    -0.267 OA
BRANCH  24  27
HETATM   27  C   UNL     1      42.471 -16.183   2.438  1.00  0.00     0.035 A 
HETATM   28  C   UNL     1      42.918 -15.682   3.666  1.00  0.00     0.032 A 
HETATM   29  C   UNL     1      43.638 -16.499   4.543  1.00  0.00     0.044 A 
HETATM   30  C   UNL     1      43.915 -17.813   4.191  1.00  0.00     0.116 A 
HETATM   31  F   UNL     1      44.605 -18.593   5.032  1.00  0.00    -0.206 F 
HETATM   32  C   UNL     1      43.489 -18.327   2.974  1.00  0.00     0.044 A 
HETATM   33  C   UNL     1      42.769 -17.511   2.096  1.00  0.00     0.032 A 
ENDBRANCH  24  27
ENDBRANCH   3  23
TORSDOF 6
ENDMDL
MODEL 9
REMARK VINA RESULT:      -7.3      3.892      6.869
REMARK  6 active torsions:
REMARK  status: ('A' for Active; 'I' for Inactive)
REMARK    1  A    between atoms: C_3  and  C_4 
REMARK       I    between atoms: C_4  and  N_5 
REMARK    2  A    between atoms: N_5  and  C_6 
REMARK    3  A    between atoms: C_14  and  N_15 
REMARK       I    between atoms: N_15  and  C_16 
REMARK    4  A    between atoms: C_16  and  C_17 
REMARK    5  A    between atoms: C_17  and  S_18 
REMARK    6  A    between atoms: S_18  and  C_19 
ROOT
HETATM    1  C   UNL     1      43.129 -11.804   4.933  1.00  0.00     0.001 A 
HETATM    2  C   UNL     1      42.884 -13.176   4.927  1.00  0.00     0.019 A 
HETATM    3  C   UNL     1      42.432 -13.816   3.756  1.00  0.00     0.059 A 
HETATM    4  C   UNL     1      42.170 -13.060   2.591  1.00  0.00     0.050 A 
HETATM    5  C   UNL     1      42.438 -11.685   2.618  1.00  0.00     0.030 A 
HETATM    6  C   UNL     1      42.918 -11.065   3.775  1.00  0.00     0.002 A 
ENDROOT
BRANCH   4   7
HETATM    7  N   UNL     1      41.614 -13.693   1.451  1.00  0.00    -0.326 N 
HETATM    8  C   UNL     1      40.292 -13.984   1.191  1.00  0.00     0.231 C 
HETATM    9  O   UNL     1      39.344 -13.625   1.893  1.00  0.00    -0.272 OA
HETATM   10  H   UNL     1      42.295 -13.988   0.745  1.00  0.00     0.169 HD
BRANCH   8  11
HETATM   11  C   UNL     1      40.012 -14.850  -0.032  1.00  0.00     0.185 C 
BRANCH  11  12
HETATM   12  S   UNL     1      39.275 -13.977  -1.441  1.00  0.00    -0.083 SA
BRANCH  12  13
HETATM   13  C   UNL     1      39.844 -12.375  -1.159  1.00  0.00     0.168 A 
HETATM   14  N   UNL     1      41.025 -11.895  -1.456  1.00  0.00    -0.223 NA
HETATM   15  C   UNL     1      41.007 -10.609  -0.969  1.00  0.00     0.086 A 
HETATM   16  C   UNL     1      39.776 -10.309  -0.390  1.00  0.00     0.063 A 
HETATM   17  C   UNL     1      42.011  -9.631  -0.986  1.00  0.00     0.034 A 
HETATM   18  N   UNL     1      39.055 -11.468  -0.520  1.00  0.00    -0.333 N 
HETATM   19  C   UNL     1      39.475  -9.067   0.173  1.00  0.00     0.032 A 
HETATM   20  H   UNL     1      38.118 -11.639  -0.189  1.00  0.00     0.168 HD
HETATM   21  C   UNL     1      40.490  -8.103   0.143  1.00  0.00     0.002 A 
HETATM   22  C   UNL     1      41.738  -8.377  -0.423  1.00  0.00     0.002 A 
ENDBRANCH  12  13
ENDBRANCH  11  12
ENDBRANCH   8  11
ENDBRANCH   4   7
BRANCH   3  23
HETATM   23  C   UNL     1      42.258 -15.303   3.765  1.00  0.00     0.258 C 
HETATM   24  N   UNL     1      43.363 -16.025   3.344  1.00  0.00    -0.323 N 
HETATM   25  H   UNL     1      44.130 -15.498   2.944  1.00  0.00     0.169 HD
HETATM   26  O   UNL     1      41.170 -15.773   4.073  1.00  0.00    -0.267 OA
BRANCH  24  27
HETATM   27  C   UNL     1      43.503 -17.428   3.306  1.00  0.00     0.035 A 
HETATM   28  C   UNL     1      43.107 -18.224   2.226  1.00  0.00     0.032 A 
HETATM   29  C   UNL     1      43.277 -19.610   2.269  1.00  0.00     0.044 A 
HETATM   30  C   UNL     1      43.837 -20.201   3.393  1.00  0.00     0.116 A 
HETATM   31  F   UNL     1      43.998 -21.530   3.433  1.00  0.00    -0.206 F 
HETATM   32  C   UNL     1      44.229 -19.431   4.480  1.00  0.00     0.044 A 
HETATM   33  C   UNL     1      44.059 -18.044   4.437  1.00  0.00     0.032 A 
ENDBRANCH  24  27
ENDBRANCH   3  23
TORSDOF 6
ENDMDL
MODEL 10
REMARK VINA RESULT:      -7.2      7.267     10.463
REMARK  6 active torsions:
REMARK  status: ('A' for Active; 'I' for Inactive)
REMARK    1  A    between atoms: C_3  and  C_4 
REMARK       I    between atoms: C_4  and  N_5 
REMARK    2  A    between atoms: N_5  and  C_6 
REMARK    3  A    between atoms: C_14  and  N_15 
REMARK       I    between atoms: N_15  and  C_16 
REMARK    4  A    between atoms: C_16  and  C_17 
REMARK    5  A    between atoms: C_17  and  S_18 
REMARK    6  A    between atoms: S_18  and  C_19 
ROOT
HETATM    1  C   UNL     1      46.695  -9.823   7.888  1.00  0.00     0.001 A 
HETATM    2  C   UNL     1      45.770  -9.044   8.580  1.00  0.00     0.019 A 
HETATM    3  C   UNL     1      44.395  -9.341   8.516  1.00  0.00     0.059 A 
HETATM    4  C   UNL     1      43.936 -10.402   7.702  1.00  0.00     0.050 A 
HETATM    5  C   UNL     1      44.887 -11.179   7.026  1.00  0.00     0.030 A 
HETATM    6  C   UNL     1      46.253 -10.896   7.123  1.00  0.00     0.002 A 
ENDROOT
BRANCH   4   7
HETATM    7  N   UNL     1      42.545 -10.629   7.557  1.00  0.00    -0.326 N 
HETATM    8  C   UNL     1      41.788 -10.614   6.404  1.00  0.00     0.231 C 
HETATM    9  O   UNL     1      42.249 -10.503   5.266  1.00  0.00    -0.272 OA
HETATM   10  H   UNL     1      42.042 -10.803   8.432  1.00  0.00     0.169 HD
BRANCH   8  11
HETATM   11  C   UNL     1      40.277 -10.697   6.580  1.00  0.00     0.185 C 
BRANCH  11  12
HETATM   12  S   UNL     1      39.421  -9.098   6.647  1.00  0.00    -0.083 SA
BRANCH  12  13
HETATM   13  C   UNL     1      39.266  -8.889   8.350  1.00  0.00     0.168 A 
HETATM   14  N   UNL     1      38.680  -7.897   8.972  1.00  0.00    -0.223 NA
HETATM   15  C   UNL     1      38.887  -8.155  10.306  1.00  0.00     0.086 A 
HETATM   16  C   UNL     1      39.593  -9.344  10.484  1.00  0.00     0.063 A 
HETATM   17  C   UNL     1      38.499  -7.417  11.433  1.00  0.00     0.034 A 
HETATM   18  N   UNL     1      39.829  -9.785   9.207  1.00  0.00    -0.333 N 
HETATM   19  C   UNL     1      39.931  -9.856  11.738  1.00  0.00     0.032 A 
HETATM   20  H   UNL     1      40.343 -10.608   8.936  1.00  0.00     0.168 HD
HETATM   21  C   UNL     1      39.531  -9.105  12.850  1.00  0.00     0.002 A 
HETATM   22  C   UNL     1      38.829  -7.905  12.704  1.00  0.00     0.002 A 
ENDBRANCH  12  13
ENDBRANCH  11  12
ENDBRANCH   8  11
ENDBRANCH   4   7
BRANCH   3  23
HETATM   23  C   UNL     1      43.440  -8.533   9.339  1.00  0.00     0.258 C 
HETATM   24  N   UNL     1      43.778  -8.410  10.677  1.00  0.00    -0.323 N 
HETATM   25  H   UNL     1      44.550  -8.976  11.009  1.00  0.00     0.169 HD
HETATM   26  O   UNL     1      42.422  -8.100   8.814  1.00  0.00    -0.267 OA
BRANCH  24  27
HETATM   27  C   UNL     1      43.101  -7.664  11.664  1.00  0.00     0.035 A 
HETATM   28  C   UNL     1      42.367  -6.503  11.398  1.00  0.00     0.032 A 
HETATM   29  C   UNL     1      41.727  -5.819  12.436  1.00  0.00     0.044 A 
HETATM   30  C   UNL     1      41.826  -6.290  13.737  1.00  0.00     0.116 A 
HETATM   31  F   UNL     1      41.213  -5.633  14.729  1.00  0.00    -0.206 F 
HETATM   32  C   UNL     1      42.558  -7.435  14.023  1.00  0.00     0.044 A 
HETATM   33  C   UNL     1      43.197  -8.121  12.987  1.00  0.00     0.032 A 
ENDBRANCH  24  27
ENDBRANCH   3  23
TORSDOF 6
ENDMDL
