MODEL 1
REMARK VINA RESULT:      -7.4      0.000      0.000
REMARK  4 active torsions:
REMARK  status: ('A' for Active; 'I' for Inactive)
REMARK    1  A    between atoms: S_2  and  N_3 
REMARK    2  A    between atoms: N_3  and  N_4 
REMARK    3  A    between atoms: C_10  and  C_11 
REMARK    4  A    between atoms: C_13  and  O_14 
ROOT
HETATM    1  N   UNL     1      41.262 -14.804   3.018  1.00  0.00    -0.224 N 
HETATM    2  C   UNL     1      42.118 -15.856   2.729  1.00  0.00     0.276 C 
HETATM    3  O   UNL     1      42.325 -16.234   1.576  1.00  0.00    -0.266 OA
HETATM    4  C   UNL     1      42.699 -16.559   3.889  1.00  0.00     0.055 A 
HETATM    5  C   UNL     1      42.074 -16.371   5.131  1.00  0.00     0.026 A 
HETATM    6  N   UNL     1      40.978 -15.498   5.253  1.00  0.00    -0.265 NA
HETATM    7  C   UNL     1      41.067 -14.311   4.388  1.00  0.00     0.222 C 
HETATM    8  C   UNL     1      43.746 -17.468   3.730  1.00  0.00     0.019 A 
HETATM    9  C   UNL     1      44.177 -18.212   4.827  1.00  0.00     0.001 A 
HETATM   10  C   UNL     1      43.539 -18.065   6.060  1.00  0.00     0.002 A 
HETATM   11  C   UNL     1      42.481 -17.163   6.207  1.00  0.00     0.024 A 
HETATM   12  H   UNL     1      40.732 -15.274   6.208  1.00  0.00     0.130 HD
ENDROOT
BRANCH   7  13
HETATM   13  C   UNL     1      42.166 -13.340   4.859  1.00  0.00    -0.017 A 
HETATM   14  C   UNL     1      42.499 -13.221   6.223  1.00  0.00     0.047 A 
HETATM   15  C   UNL     1      43.513 -12.359   6.638  1.00  0.00     0.066 A 
HETATM   16  C   UNL     1      44.219 -11.593   5.724  1.00  0.00     0.036 A 
HETATM   17  C   UNL     1      43.928 -11.708   4.370  1.00  0.00     0.003 A 
HETATM   18  C   UNL     1      42.925 -12.583   3.942  1.00  0.00     0.011 A 
BRANCH  15  19
HETATM   19  O   UNL     1      43.852 -12.241   7.955  1.00  0.00    -0.361 OA
HETATM   20  H   UNL     1      43.088 -12.496   8.497  1.00  0.00     0.217 HD
ENDBRANCH  15  19
ENDBRANCH   7  13
BRANCH   1  21
HETATM   21  N   UNL     1      40.135 -14.646   2.063  1.00  0.00    -0.220 N 
HETATM   22  H   UNL     1      39.796 -15.548   1.699  1.00  0.00     0.200 HD
BRANCH  21  23
HETATM   23  S   UNL     1      40.179 -13.449   0.872  1.00  0.00     0.240 S 
HETATM   24  C   UNL     1      39.766 -14.404  -0.572  1.00  0.00     0.187 C 
HETATM   25  O   UNL     1      41.536 -12.972   0.730  1.00  0.00    -0.205 OA
HETATM   26  O   UNL     1      39.082 -12.544   1.134  1.00  0.00    -0.205 OA
ENDBRANCH  21  23
ENDBRANCH   1  21
TORSDOF 4
ENDMDL
MODEL 2
REMARK VINA RESULT:      -7.1      2.265      2.795
REMARK  4 active torsions:
REMARK  status: ('A' for Active; 'I' for Inactive)
REMARK    1  A    between atoms: S_2  and  N_3 
REMARK    2  A    between atoms: N_3  and  N_4 
REMARK    3  A    between atoms: C_10  and  C_11 
REMARK    4  A    between atoms: C_13  and  O_14 
ROOT
HETATM    1  N   UNL     1      42.314 -12.753   4.531  1.00  0.00    -0.224 N 
HETATM    2  C   UNL     1      42.771 -14.013   4.174  1.00  0.00     0.276 C 
HETATM    3  O   UNL     1      42.845 -14.375   2.999  1.00  0.00    -0.266 OA
HETATM    4  C   UNL     1      43.078 -14.932   5.287  1.00  0.00     0.055 A 
HETATM    5  C   UNL     1      42.547 -14.614   6.545  1.00  0.00     0.026 A 
HETATM    6  N   UNL     1      41.805 -13.433   6.729  1.00  0.00    -0.265 NA
HETATM    7  C   UNL     1      42.289 -12.299   5.928  1.00  0.00     0.222 C 
HETATM    8  C   UNL     1      43.762 -16.128   5.064  1.00  0.00     0.019 A 
HETATM    9  C   UNL     1      43.914 -17.032   6.115  1.00  0.00     0.001 A 
HETATM   10  C   UNL     1      43.357 -16.749   7.362  1.00  0.00     0.002 A 
HETATM   11  C   UNL     1      42.661 -15.554   7.572  1.00  0.00     0.024 A 
HETATM   12  H   UNL     1      41.644 -13.193   7.698  1.00  0.00     0.130 HD
ENDROOT
BRANCH   7  13
HETATM   13  C   UNL     1      43.647 -11.778   6.434  1.00  0.00    -0.017 A 
HETATM   14  C   UNL     1      43.855 -11.487   7.797  1.00  0.00     0.047 A 
HETATM   15  C   UNL     1      45.096 -11.041   8.250  1.00  0.00     0.066 A 
HETATM   16  C   UNL     1      46.157 -10.867   7.376  1.00  0.00     0.036 A 
HETATM   17  C   UNL     1      45.987 -11.170   6.031  1.00  0.00     0.003 A 
HETATM   18  C   UNL     1      44.752 -11.634   5.568  1.00  0.00     0.011 A 
BRANCH  15  19
HETATM   19  O   UNL     1      45.313 -10.765   9.569  1.00  0.00    -0.361 OA
HETATM   20  H   UNL     1      44.678 -10.088   9.854  1.00  0.00     0.217 HD
ENDBRANCH  15  19
ENDBRANCH   7  13
BRANCH   1  21
HETATM   21  N   UNL     1      41.309 -12.176   3.601  1.00  0.00    -0.220 N 
HETATM   22  H   UNL     1      41.423 -11.160   3.476  1.00  0.00     0.200 HD
BRANCH  21  23
HETATM   23  S   UNL     1      39.686 -12.633   3.700  1.00  0.00     0.240 S 
HETATM   24  C   UNL     1      38.892 -11.170   3.067  1.00  0.00     0.187 C 
HETATM   25  O   UNL     1      39.320 -12.784   5.090  1.00  0.00    -0.205 OA
HETATM   26  O   UNL     1      39.482 -13.697   2.742  1.00  0.00    -0.205 OA
ENDBRANCH  21  23
ENDBRANCH   1  21
TORSDOF 4
ENDMDL
MODEL 3
REMARK VINA RESULT:      -7.0     14.955     16.600
REMARK  4 active torsions:
REMARK  status: ('A' for Active; 'I' for Inactive)
REMARK    1  A    between atoms: S_2  and  N_3 
REMARK    2  A    between atoms: N_3  and  N_4 
REMARK    3  A    between atoms: C_10  and  C_11 
REMARK    4  A    between atoms: C_13  and  O_14 
ROOT
HETATM    1  N   UNL     1      45.387 -29.447   2.314  1.00  0.00    -0.224 N 
HETATM    2  C   UNL     1      45.898 -30.370   3.213  1.00  0.00     0.276 C 
HETATM    3  O   UNL     1      45.177 -31.161   3.821  1.00  0.00    -0.266 OA
HETATM    4  C   UNL     1      47.350 -30.293   3.469  1.00  0.00     0.055 A 
HETATM    5  C   UNL     1      48.003 -29.107   3.101  1.00  0.00     0.026 A 
HETATM    6  N   UNL     1      47.296 -28.073   2.461  1.00  0.00    -0.265 NA
HETATM    7  C   UNL     1      46.254 -28.549   1.539  1.00  0.00     0.222 C 
HETATM    8  C   UNL     1      48.014 -31.307   4.162  1.00  0.00     0.019 A 
HETATM    9  C   UNL     1      49.354 -31.135   4.503  1.00  0.00     0.001 A 
HETATM   10  C   UNL     1      50.007 -29.945   4.179  1.00  0.00     0.002 A 
HETATM   11  C   UNL     1      49.330 -28.928   3.498  1.00  0.00     0.024 A 
HETATM   12  H   UNL     1      47.887 -27.358   2.057  1.00  0.00     0.130 HD
ENDROOT
BRANCH   7  13
HETATM   13  C   UNL     1      46.858 -29.203   0.282  1.00  0.00    -0.017 A 
HETATM   14  C   UNL     1      46.351 -30.418  -0.222  1.00  0.00     0.047 A 
HETATM   15  C   UNL     1      46.886 -30.990  -1.376  1.00  0.00     0.066 A 
HETATM   16  C   UNL     1      47.931 -30.384  -2.057  1.00  0.00     0.036 A 
HETATM   17  C   UNL     1      48.433 -29.174  -1.596  1.00  0.00     0.003 A 
HETATM   18  C   UNL     1      47.893 -28.583  -0.449  1.00  0.00     0.011 A 
BRANCH  15  19
HETATM   19  O   UNL     1      46.399 -32.161  -1.881  1.00  0.00    -0.361 OA
HETATM   20  H   UNL     1      45.903 -32.618  -1.183  1.00  0.00     0.217 HD
ENDBRANCH  15  19
ENDBRANCH   7  13
BRANCH   1  21
HETATM   21  N   UNL     1      44.014 -28.974   2.630  1.00  0.00    -0.220 N 
HETATM   22  H   UNL     1      43.868 -28.830   3.639  1.00  0.00     0.200 HD
BRANCH  21  23
HETATM   23  S   UNL     1      42.671 -29.671   1.880  1.00  0.00     0.240 S 
HETATM   24  C   UNL     1      41.776 -30.271   3.297  1.00  0.00     0.187 C 
HETATM   25  O   UNL     1      43.102 -30.808   1.098  1.00  0.00    -0.205 OA
HETATM   26  O   UNL     1      41.903 -28.596   1.293  1.00  0.00    -0.205 OA
ENDBRANCH  21  23
ENDBRANCH   1  21
TORSDOF 4
ENDMDL
MODEL 4
REMARK VINA RESULT:      -7.0      3.711      6.517
REMARK  4 active torsions:
REMARK  status: ('A' for Active; 'I' for Inactive)
REMARK    1  A    between atoms: S_2  and  N_3 
REMARK    2  A    between atoms: N_3  and  N_4 
REMARK    3  A    between atoms: C_10  and  C_11 
REMARK    4  A    between atoms: C_13  and  O_14 
ROOT
HETATM    1  N   UNL     1      44.221 -12.159   6.220  1.00  0.00    -0.224 N 
HETATM    2  C   UNL     1      44.193 -11.620   4.942  1.00  0.00     0.276 C 
HETATM    3  O   UNL     1      45.211 -11.218   4.378  1.00  0.00    -0.266 OA
HETATM    4  C   UNL     1      42.859 -11.470   4.329  1.00  0.00     0.055 A 
HETATM    5  C   UNL     1      41.751 -11.521   5.186  1.00  0.00     0.026 A 
HETATM    6  N   UNL     1      41.923 -11.764   6.561  1.00  0.00    -0.265 NA
HETATM    7  C   UNL     1      43.017 -12.699   6.865  1.00  0.00     0.222 C 
HETATM    8  C   UNL     1      42.720 -11.167   2.973  1.00  0.00     0.019 A 
HETATM    9  C   UNL     1      41.451 -10.901   2.461  1.00  0.00     0.001 A 
HETATM   10  C   UNL     1      40.343 -10.908   3.309  1.00  0.00     0.002 A 
HETATM   11  C   UNL     1      40.494 -11.198   4.669  1.00  0.00     0.024 A 
HETATM   12  H   UNL     1      41.066 -11.984   7.052  1.00  0.00     0.130 HD
ENDROOT
BRANCH   7  13
HETATM   13  C   UNL     1      42.677 -14.138   6.435  1.00  0.00    -0.017 A 
HETATM   14  C   UNL     1      41.343 -14.589   6.387  1.00  0.00     0.047 A 
HETATM   15  C   UNL     1      41.043 -15.886   5.972  1.00  0.00     0.066 A 
HETATM   16  C   UNL     1      42.044 -16.768   5.598  1.00  0.00     0.036 A 
HETATM   17  C   UNL     1      43.367 -16.341   5.613  1.00  0.00     0.003 A 
HETATM   18  C   UNL     1      43.678 -15.038   6.011  1.00  0.00     0.011 A 
BRANCH  15  19
HETATM   19  O   UNL     1      39.754 -16.333   5.912  1.00  0.00    -0.361 OA
HETATM   20  H   UNL     1      39.466 -16.328   4.986  1.00  0.00     0.217 HD
ENDBRANCH  15  19
ENDBRANCH   7  13
BRANCH   1  21
HETATM   21  N   UNL     1      45.284 -11.605   7.098  1.00  0.00    -0.220 N 
HETATM   22  H   UNL     1      45.871 -12.339   7.520  1.00  0.00     0.200 HD
BRANCH  21  23
HETATM   23  S   UNL     1      44.939 -10.357   8.183  1.00  0.00     0.240 S 
HETATM   24  C   UNL     1      46.376  -9.328   7.968  1.00  0.00     0.187 C 
HETATM   25  O   UNL     1      44.951 -10.882   9.529  1.00  0.00    -0.205 OA
HETATM   26  O   UNL     1      43.798  -9.640   7.660  1.00  0.00    -0.205 OA
ENDBRANCH  21  23
ENDBRANCH   1  21
TORSDOF 4
ENDMDL
MODEL 5
REMARK VINA RESULT:      -7.0     15.161     16.694
REMARK  4 active torsions:
REMARK  status: ('A' for Active; 'I' for Inactive)
REMARK    1  A    between atoms: S_2  and  N_3 
REMARK    2  A    between atoms: N_3  and  N_4 
REMARK    3  A    between atoms: C_10  and  C_11 
REMARK    4  A    between atoms: C_13  and  O_14 
ROOT
HETATM    1  N   UNL     1      44.985 -29.818   0.959  1.00  0.00    -0.224 N 
HETATM    2  C   UNL     1      45.927 -30.832   1.051  1.00  0.00     0.276 C 
HETATM    3  O   UNL     1      45.723 -31.859   1.699  1.00  0.00    -0.266 OA
HETATM    4  C   UNL     1      47.227 -30.572   0.403  1.00  0.00     0.055 A 
HETATM    5  C   UNL     1      47.533 -29.239   0.093  1.00  0.00     0.026 A 
HETATM    6  N   UNL     1      46.600 -28.216   0.343  1.00  0.00    -0.265 NA
HETATM    7  C   UNL     1      45.203 -28.623   0.133  1.00  0.00     0.222 C 
HETATM    8  C   UNL     1      48.159 -31.596   0.223  1.00  0.00     0.019 A 
HETATM    9  C   UNL     1      49.426 -31.285  -0.268  1.00  0.00     0.001 A 
HETATM   10  C   UNL     1      49.759 -29.959  -0.544  1.00  0.00     0.002 A 
HETATM   11  C   UNL     1      48.824 -28.938  -0.347  1.00  0.00     0.024 A 
HETATM   12  H   UNL     1      46.826 -27.334  -0.097  1.00  0.00     0.130 HD
ENDROOT
BRANCH   7  13
HETATM   13  C   UNL     1      44.888 -28.838  -1.360  1.00  0.00    -0.017 A 
HETATM   14  C   UNL     1      45.307 -27.911  -2.334  1.00  0.00     0.047 A 
HETATM   15  C   UNL     1      45.040 -28.125  -3.686  1.00  0.00     0.066 A 
HETATM   16  C   UNL     1      44.353 -29.253  -4.109  1.00  0.00     0.036 A 
HETATM   17  C   UNL     1      43.949 -30.195  -3.172  1.00  0.00     0.003 A 
HETATM   18  C   UNL     1      44.227 -29.998  -1.816  1.00  0.00     0.011 A 
BRANCH  15  19
HETATM   19  O   UNL     1      45.449 -27.240  -4.641  1.00  0.00    -0.361 OA
HETATM   20  H   UNL     1      46.412 -27.311  -4.739  1.00  0.00     0.217 HD
ENDBRANCH  15  19
ENDBRANCH   7  13
BRANCH   1  21
HETATM   21  N   UNL     1      44.111 -29.679   2.153  1.00  0.00    -0.220 N 
HETATM   22  H   UNL     1      44.491 -30.161   2.980  1.00  0.00     0.200 HD
BRANCH  21  23
HETATM   23  S   UNL     1      42.437 -29.860   2.018  1.00  0.00     0.240 S 
HETATM   24  C   UNL     1      42.342 -31.418   1.162  1.00  0.00     0.187 C 
HETATM   25  O   UNL     1      41.918 -28.830   1.146  1.00  0.00    -0.205 OA
HETATM   26  O   UNL     1      41.918 -30.055   3.353  1.00  0.00    -0.205 OA
ENDBRANCH  21  23
ENDBRANCH   1  21
TORSDOF 4
ENDMDL
MODEL 6
REMARK VINA RESULT:      -6.8      2.841      5.482
REMARK  4 active torsions:
REMARK  status: ('A' for Active; 'I' for Inactive)
REMARK    1  A    between atoms: S_2  and  N_3 
REMARK    2  A    between atoms: N_3  and  N_4 
REMARK    3  A    between atoms: C_10  and  C_11 
REMARK    4  A    between atoms: C_13  and  O_14 
ROOT
HETATM    1  N   UNL     1      42.067 -12.677   4.678  1.00  0.00    -0.224 N 
HETATM    2  C   UNL     1      41.962 -14.037   4.926  1.00  0.00     0.276 C 
HETATM    3  O   UNL     1      41.692 -14.481   6.043  1.00  0.00    -0.266 OA
HETATM    4  C   UNL     1      42.281 -14.931   3.797  1.00  0.00     0.055 A 
HETATM    5  C   UNL     1      43.003 -14.380   2.728  1.00  0.00     0.026 A 
HETATM    6  N   UNL     1      43.346 -13.016   2.727  1.00  0.00    -0.265 NA
HETATM    7  C   UNL     1      42.324 -12.148   3.332  1.00  0.00     0.222 C 
HETATM    8  C   UNL     1      41.985 -16.295   3.851  1.00  0.00     0.019 A 
HETATM    9  C   UNL     1      42.424 -17.129   2.824  1.00  0.00     0.001 A 
HETATM   10  C   UNL     1      43.177 -16.603   1.774  1.00  0.00     0.002 A 
HETATM   11  C   UNL     1      43.481 -15.239   1.735  1.00  0.00     0.024 A 
HETATM   12  H   UNL     1      43.678 -12.674   1.835  1.00  0.00     0.130 HD
ENDROOT
BRANCH   7  13
HETATM   13  C   UNL     1      41.062 -12.051   2.454  1.00  0.00    -0.017 A 
HETATM   14  C   UNL     1      41.151 -12.043   1.048  1.00  0.00     0.047 A 
HETATM   15  C   UNL     1      40.002 -11.981   0.260  1.00  0.00     0.066 A 
HETATM   16  C   UNL     1      38.742 -11.923   0.836  1.00  0.00     0.036 A 
HETATM   17  C   UNL     1      38.624 -11.954   2.220  1.00  0.00     0.003 A 
HETATM   18  C   UNL     1      39.769 -12.033   3.018  1.00  0.00     0.011 A 
BRANCH  15  19
HETATM   19  O   UNL     1      40.073 -11.983  -1.103  1.00  0.00    -0.361 OA
HETATM   20  H   UNL     1      40.999 -11.861  -1.366  1.00  0.00     0.217 HD
ENDBRANCH  15  19
ENDBRANCH   7  13
BRANCH   1  21
HETATM   21  N   UNL     1      42.541 -11.874   5.835  1.00  0.00    -0.220 N 
HETATM   22  H   UNL     1      42.048 -10.974   5.920  1.00  0.00     0.200 HD
BRANCH  21  23
HETATM   23  S   UNL     1      44.191 -11.738   6.168  1.00  0.00     0.240 S 
HETATM   24  C   UNL     1      44.172 -10.460   7.408  1.00  0.00     0.187 C 
HETATM   25  O   UNL     1      44.869 -11.227   4.998  1.00  0.00    -0.205 OA
HETATM   26  O   UNL     1      44.602 -12.968   6.806  1.00  0.00    -0.205 OA
ENDBRANCH  21  23
ENDBRANCH   1  21
TORSDOF 4
ENDMDL
MODEL 7
REMARK VINA RESULT:      -6.7      2.832      5.553
REMARK  4 active torsions:
REMARK  status: ('A' for Active; 'I' for Inactive)
REMARK    1  A    between atoms: S_2  and  N_3 
REMARK    2  A    between atoms: N_3  and  N_4 
REMARK    3  A    between atoms: C_10  and  C_11 
REMARK    4  A    between atoms: C_13  and  O_14 
ROOT
HETATM    1  N   UNL     1      40.182 -13.491   3.392  1.00  0.00    -0.224 N 
HETATM    2  C   UNL     1      40.526 -12.612   2.376  1.00  0.00     0.276 C 
HETATM    3  O   UNL     1      40.751 -11.421   2.589  1.00  0.00    -0.266 OA
HETATM    4  C   UNL     1      40.521 -13.166   1.008  1.00  0.00     0.055 A 
HETATM    5  C   UNL     1      39.829 -14.369   0.807  1.00  0.00     0.026 A 
HETATM    6  N   UNL     1      39.225 -15.035   1.889  1.00  0.00    -0.265 NA
HETATM    7  C   UNL     1      39.979 -14.926   3.147  1.00  0.00     0.222 C 
HETATM    8  C   UNL     1      41.073 -12.454  -0.058  1.00  0.00     0.019 A 
HETATM    9  C   UNL     1      40.928 -12.947  -1.354  1.00  0.00     0.001 A 
HETATM   10  C   UNL     1      40.209 -14.122  -1.575  1.00  0.00     0.002 A 
HETATM   11  C   UNL     1      39.647 -14.821  -0.502  1.00  0.00     0.024 A 
HETATM   12  H   UNL     1      38.935 -15.981   1.682  1.00  0.00     0.130 HD
ENDROOT
BRANCH   7  13
HETATM   13  C   UNL     1      41.287 -15.737   3.103  1.00  0.00    -0.017 A 
HETATM   14  C   UNL     1      42.201 -15.706   4.174  1.00  0.00     0.047 A 
HETATM   15  C   UNL     1      43.371 -16.464   4.137  1.00  0.00     0.066 A 
HETATM   16  C   UNL     1      43.670 -17.266   3.047  1.00  0.00     0.036 A 
HETATM   17  C   UNL     1      42.774 -17.334   1.987  1.00  0.00     0.003 A 
HETATM   18  C   UNL     1      41.591 -16.591   2.022  1.00  0.00     0.011 A 
BRANCH  15  19
HETATM   19  O   UNL     1      44.261 -16.450   5.173  1.00  0.00    -0.361 OA
HETATM   20  H   UNL     1      45.122 -16.756   4.847  1.00  0.00     0.217 HD
ENDBRANCH  15  19
ENDBRANCH   7  13
BRANCH   1  21
HETATM   21  N   UNL     1      39.430 -12.872   4.514  1.00  0.00    -0.220 N 
HETATM   22  H   UNL     1      38.947 -12.006   4.237  1.00  0.00     0.200 HD
BRANCH  21  23
HETATM   23  S   UNL     1      40.123 -12.756   6.051  1.00  0.00     0.240 S 
HETATM   24  C   UNL     1      39.261 -11.337   6.694  1.00  0.00     0.187 C 
HETATM   25  O   UNL     1      41.522 -12.417   5.916  1.00  0.00    -0.205 OA
HETATM   26  O   UNL     1      39.693 -13.913   6.803  1.00  0.00    -0.205 OA
ENDBRANCH  21  23
ENDBRANCH   1  21
TORSDOF 4
ENDMDL
MODEL 8
REMARK VINA RESULT:      -6.6     15.337     17.173
REMARK  4 active torsions:
REMARK  status: ('A' for Active; 'I' for Inactive)
REMARK    1  A    between atoms: S_2  and  N_3 
REMARK    2  A    between atoms: N_3  and  N_4 
REMARK    3  A    between atoms: C_10  and  C_11 
REMARK    4  A    between atoms: C_13  and  O_14 
ROOT
HETATM    1  N   UNL     1      47.104 -29.425   0.426  1.00  0.00    -0.224 N 
HETATM    2  C   UNL     1      46.269 -28.946   1.424  1.00  0.00     0.276 C 
HETATM    3  O   UNL     1      46.579 -27.990   2.135  1.00  0.00    -0.266 OA
HETATM    4  C   UNL     1      45.023 -29.705   1.648  1.00  0.00     0.055 A 
HETATM    5  C   UNL     1      44.962 -31.006   1.129  1.00  0.00     0.026 A 
HETATM    6  N   UNL     1      46.033 -31.524   0.377  1.00  0.00    -0.265 NA
HETATM    7  C   UNL     1      46.705 -30.523  -0.465  1.00  0.00     0.222 C 
HETATM    8  C   UNL     1      44.002 -29.191   2.451  1.00  0.00     0.019 A 
HETATM    9  C   UNL     1      42.901 -29.993   2.749  1.00  0.00     0.001 A 
HETATM   10  C   UNL     1      42.845 -31.303   2.272  1.00  0.00     0.002 A 
HETATM   11  C   UNL     1      43.879 -31.814   1.481  1.00  0.00     0.024 A 
HETATM   12  H   UNL     1      45.813 -32.377  -0.121  1.00  0.00     0.130 HD
ENDROOT
BRANCH   7  13
HETATM   13  C   UNL     1      45.817 -30.074  -1.641  1.00  0.00    -0.017 A 
HETATM   14  C   UNL     1      46.021 -28.834  -2.277  1.00  0.00     0.047 A 
HETATM   15  C   UNL     1      45.229 -28.447  -3.358  1.00  0.00     0.066 A 
HETATM   16  C   UNL     1      44.219 -29.267  -3.835  1.00  0.00     0.036 A 
HETATM   17  C   UNL     1      44.012 -30.507  -3.242  1.00  0.00     0.003 A 
HETATM   18  C   UNL     1      44.811 -30.912  -2.169  1.00  0.00     0.011 A 
BRANCH  15  19
HETATM   19  O   UNL     1      45.422 -27.252  -3.989  1.00  0.00    -0.361 OA
HETATM   20  H   UNL     1      46.375 -27.082  -4.048  1.00  0.00     0.217 HD
ENDBRANCH  15  19
ENDBRANCH   7  13
BRANCH   1  21
HETATM   21  N   UNL     1      48.554 -29.254   0.701  1.00  0.00    -0.220 N 
HETATM   22  H   UNL     1      49.107 -29.125  -0.157  1.00  0.00     0.200 HD
BRANCH  21  23
HETATM   23  S   UNL     1      49.336 -30.241   1.827  1.00  0.00     0.240 S 
HETATM   24  C   UNL     1      50.828 -30.636   0.939  1.00  0.00     0.187 C 
HETATM   25  O   UNL     1      48.574 -31.458   2.001  1.00  0.00    -0.205 OA
HETATM   26  O   UNL     1      49.697 -29.407   2.951  1.00  0.00    -0.205 OA
ENDBRANCH  21  23
ENDBRANCH   1  21
TORSDOF 4
ENDMDL
MODEL 9
REMARK VINA RESULT:      -6.6      2.671      3.468
REMARK  4 active torsions:
REMARK  status: ('A' for Active; 'I' for Inactive)
REMARK    1  A    between atoms: S_2  and  N_3 
REMARK    2  A    between atoms: N_3  and  N_4 
REMARK    3  A    between atoms: C_10  and  C_11 
REMARK    4  A    between atoms: C_13  and  O_14 
ROOT
HETATM    1  N   UNL     1      39.593 -13.053   1.266  1.00  0.00    -0.224 N 
HETATM    2  C   UNL     1      40.720 -13.670   0.744  1.00  0.00     0.276 C 
HETATM    3  O   UNL     1      41.144 -13.415  -0.383  1.00  0.00    -0.266 OA
HETATM    4  C   UNL     1      41.334 -14.718   1.582  1.00  0.00     0.055 A 
HETATM    5  C   UNL     1      40.549 -15.255   2.614  1.00  0.00     0.026 A 
HETATM    6  N   UNL     1      39.257 -14.757   2.859  1.00  0.00    -0.265 NA
HETATM    7  C   UNL     1      39.127 -13.309   2.635  1.00  0.00     0.222 C 
HETATM    8  C   UNL     1      42.593 -15.238   1.277  1.00  0.00     0.019 A 
HETATM    9  C   UNL     1      43.080 -16.319   2.010  1.00  0.00     0.001 A 
HETATM   10  C   UNL     1      42.295 -16.889   3.013  1.00  0.00     0.002 A 
HETATM   11  C   UNL     1      41.029 -16.372   3.302  1.00  0.00     0.024 A 
HETATM   12  H   UNL     1      38.858 -15.059   3.738  1.00  0.00     0.130 HD
ENDROOT
BRANCH   7  13
HETATM   13  C   UNL     1      39.875 -12.494   3.706  1.00  0.00    -0.017 A 
HETATM   14  C   UNL     1      40.715 -11.420   3.351  1.00  0.00     0.047 A 
HETATM   15  C   UNL     1      41.368 -10.671   4.329  1.00  0.00     0.066 A 
HETATM   16  C   UNL     1      41.214 -10.962   5.675  1.00  0.00     0.036 A 
HETATM   17  C   UNL     1      40.372 -12.000   6.055  1.00  0.00     0.003 A 
HETATM   18  C   UNL     1      39.699 -12.747   5.083  1.00  0.00     0.011 A 
BRANCH  15  19
HETATM   19  O   UNL     1      42.177  -9.622   3.999  1.00  0.00    -0.361 OA
HETATM   20  H   UNL     1      42.063  -9.426   3.055  1.00  0.00     0.217 HD
ENDBRANCH  15  19
ENDBRANCH   7  13
BRANCH   1  21
HETATM   21  N   UNL     1      38.575 -12.671   0.252  1.00  0.00    -0.220 N 
HETATM   22  H   UNL     1      38.826 -12.982  -0.697  1.00  0.00     0.200 HD
BRANCH  21  23
HETATM   23  S   UNL     1      37.891 -11.126   0.262  1.00  0.00     0.240 S 
HETATM   24  C   UNL     1      37.371 -10.986  -1.435  1.00  0.00     0.187 C 
HETATM   25  O   UNL     1      38.930 -10.150   0.503  1.00  0.00    -0.205 OA
HETATM   26  O   UNL     1      36.705 -11.189   1.086  1.00  0.00    -0.205 OA
ENDBRANCH  21  23
ENDBRANCH   1  21
TORSDOF 4
ENDMDL
MODEL 10
REMARK VINA RESULT:      -6.6      2.290      4.650
REMARK  4 active torsions:
REMARK  status: ('A' for Active; 'I' for Inactive)
REMARK    1  A    between atoms: S_2  and  N_3 
REMARK    2  A    between atoms: N_3  and  N_4 
REMARK    3  A    between atoms: C_10  and  C_11 
REMARK    4  A    between atoms: C_13  and  O_14 
ROOT
HETATM    1  N   UNL     1      40.205 -14.091   1.924  1.00  0.00    -0.224 N 
HETATM    2  C   UNL     1      39.766 -12.960   2.594  1.00  0.00     0.276 C 
HETATM    3  O   UNL     1      38.598 -12.575   2.536  1.00  0.00    -0.266 OA
HETATM    4  C   UNL     1      40.799 -12.188   3.312  1.00  0.00     0.055 A 
HETATM    5  C   UNL     1      42.136 -12.426   2.961  1.00  0.00     0.026 A 
HETATM    6  N   UNL     1      42.459 -13.407   2.005  1.00  0.00    -0.265 NA
HETATM    7  C   UNL     1      41.582 -14.587   2.048  1.00  0.00     0.222 C 
HETATM    8  C   UNL     1      40.450 -11.177   4.210  1.00  0.00     0.019 A 
HETATM    9  C   UNL     1      41.451 -10.381   4.764  1.00  0.00     0.001 A 
HETATM   10  C   UNL     1      42.781 -10.580   4.394  1.00  0.00     0.002 A 
HETATM   11  C   UNL     1      43.121 -11.585   3.483  1.00  0.00     0.024 A 
HETATM   12  H   UNL     1      43.441 -13.644   1.972  1.00  0.00     0.130 HD
ENDROOT
BRANCH   7  13
HETATM   13  C   UNL     1      41.824 -15.434   3.311  1.00  0.00    -0.017 A 
HETATM   14  C   UNL     1      43.105 -15.928   3.624  1.00  0.00     0.047 A 
HETATM   15  C   UNL     1      43.320 -16.673   4.784  1.00  0.00     0.066 A 
HETATM   16  C   UNL     1      42.281 -16.950   5.659  1.00  0.00     0.036 A 
HETATM   17  C   UNL     1      41.012 -16.454   5.387  1.00  0.00     0.003 A 
HETATM   18  C   UNL     1      40.790 -15.692   4.236  1.00  0.00     0.011 A 
BRANCH  15  19
HETATM   19  O   UNL     1      44.558 -17.149   5.103  1.00  0.00    -0.361 OA
HETATM   20  H   UNL     1      45.056 -17.298   4.284  1.00  0.00     0.217 HD
ENDBRANCH  15  19
ENDBRANCH   7  13
BRANCH   1  21
HETATM   21  N   UNL     1      39.483 -14.375   0.656  1.00  0.00    -0.220 N 
HETATM   22  H   UNL     1      39.549 -15.363   0.376  1.00  0.00     0.200 HD
BRANCH  21  23
HETATM   23  S   UNL     1      39.613 -13.324  -0.660  1.00  0.00     0.240 S 
HETATM   24  C   UNL     1      39.533 -14.479  -2.013  1.00  0.00     0.187 C 
HETATM   25  O   UNL     1      40.926 -12.719  -0.655  1.00  0.00    -0.205 OA
HETATM   26  O   UNL     1      38.410 -12.523  -0.689  1.00  0.00    -0.205 OA
ENDBRANCH  21  23
ENDBRANCH   1  21
TORSDOF 4
ENDMDL
