MODEL 1
REMARK VINA RESULT:      -9.4      0.000      0.000
REMARK  9 active torsions:
REMARK  status: ('A' for Active; 'I' for Inactive)
REMARK    1  A    between atoms: O_2  and  C_3 
REMARK    2  A    between atoms: C_6  and  N_7 
REMARK    3  A    between atoms: N_10  and  C_11 
REMARK    4  A    between atoms: C_11  and  C_12 
REMARK    5  A    between atoms: C_14  and  O_15 
REMARK    6  A    between atoms: C_17  and  O_18 
REMARK    7  A    between atoms: C_22  and  C_23 
REMARK    8  A    between atoms: C_23  and  C_24 
REMARK       I    between atoms: C_24  and  N_25 
REMARK    9  A    between atoms: N_25  and  C_26 
ROOT
HETATM    1  N   UNL     1      43.163 -12.409   4.635  1.00  0.00    -0.232 N 
HETATM    2  C   UNL     1      42.696 -11.788   3.497  1.00  0.00     0.333 C 
HETATM    3  O   UNL     1      42.679 -10.595   3.228  1.00  0.00    -0.246 OA
HETATM    4  N   UNL     1      42.081 -12.737   2.667  1.00  0.00    -0.315 N 
HETATM    5  C   UNL     1      42.122 -14.057   3.267  1.00  0.00     0.191 C 
HETATM    6  C   UNL     1      42.754 -13.720   4.615  1.00  0.00     0.256 C 
HETATM    7  O   UNL     1      42.857 -14.584   5.484  1.00  0.00    -0.270 OA
ENDROOT
BRANCH   4   8
HETATM    8  C   UNL     1      40.923 -12.261   1.927  1.00  0.00     0.167 C 
BRANCH   8   9
HETATM    9  C   UNL     1      40.711 -12.831   0.553  1.00  0.00    -0.037 A 
HETATM   10  C   UNL     1      41.021 -12.069  -0.585  1.00  0.00     0.048 A 
HETATM   11  C   UNL     1      40.651 -12.509  -1.863  1.00  0.00     0.102 A 
HETATM   12  C   UNL     1      39.980 -13.736  -2.001  1.00  0.00     0.101 A 
HETATM   13  C   UNL     1      39.731 -14.528  -0.876  1.00  0.00     0.040 A 
HETATM   14  C   UNL     1      40.085 -14.073   0.393  1.00  0.00     0.012 A 
BRANCH  11  15
HETATM   15  O   UNL     1      40.869 -11.806  -3.021  1.00  0.00    -0.353 OA
HETATM   16  C   UNL     1      40.216 -10.552  -3.154  1.00  0.00     0.210 C 
ENDBRANCH  11  15
BRANCH  12  17
HETATM   17  O   UNL     1      39.614 -14.122  -3.267  1.00  0.00    -0.353 OA
HETATM   18  C   UNL     1      38.225 -14.401  -3.417  1.00  0.00     0.210 C 
ENDBRANCH  12  17
ENDBRANCH   8   9
ENDBRANCH   4   8
BRANCH   5  19
HETATM   19  C   UNL     1      43.060 -15.019   2.539  1.00  0.00     0.138 C 
BRANCH  19  20
HETATM   20  C   UNL     1      42.785 -16.488   2.838  1.00  0.00     0.224 C 
HETATM   21  N   UNL     1      43.776 -17.137   3.548  1.00  0.00    -0.327 N 
HETATM   22  H   UNL     1      44.574 -16.594   3.874  1.00  0.00     0.169 HD
HETATM   23  O   UNL     1      41.756 -17.005   2.409  1.00  0.00    -0.273 OA
BRANCH  21  24
HETATM   24  C   UNL     1      43.812 -18.500   3.919  1.00  0.00     0.034 A 
HETATM   25  C   UNL     1      43.847 -19.558   3.010  1.00  0.00     0.029 A 
HETATM   26  C   UNL     1      43.897 -20.880   3.465  1.00  0.00     0.002 A 
HETATM   27  C   UNL     1      43.895 -21.155   4.832  1.00  0.00     0.000 A 
HETATM   28  C   UNL     1      43.859 -20.107   5.746  1.00  0.00     0.002 A 
HETATM   29  C   UNL     1      43.831 -18.786   5.291  1.00  0.00     0.029 A 
ENDBRANCH  21  24
ENDBRANCH  19  20
ENDBRANCH   5  19
BRANCH   1  30
HETATM   30  C   UNL     1      43.796 -11.746   5.737  1.00  0.00     0.047 A 
HETATM   31  C   UNL     1      43.053 -11.211   6.804  1.00  0.00     0.033 A 
HETATM   32  C   UNL     1      43.665 -10.618   7.920  1.00  0.00     0.039 A 
HETATM   33  C   UNL     1      45.048 -10.532   7.998  1.00  0.00     0.068 A 
HETATM   34  C   UNL     1      45.805 -11.004   6.930  1.00  0.00     0.039 A 
HETATM   35  C   UNL     1      45.189 -11.601   5.818  1.00  0.00     0.033 A 
BRANCH  33  36
HETATM   36  O   UNL     1      45.762 -10.004   9.035  1.00  0.00    -0.356 OA
HETATM   37  C   UNL     1      45.020  -9.647  10.196  1.00  0.00     0.210 C 
ENDBRANCH  33  36
ENDBRANCH   1  30
TORSDOF 9
ENDMDL
MODEL 2
REMARK VINA RESULT:      -9.0      2.009      6.276
REMARK  9 active torsions:
REMARK  status: ('A' for Active; 'I' for Inactive)
REMARK    1  A    between atoms: O_2  and  C_3 
REMARK    2  A    between atoms: C_6  and  N_7 
REMARK    3  A    between atoms: N_10  and  C_11 
REMARK    4  A    between atoms: C_11  and  C_12 
REMARK    5  A    between atoms: C_14  and  O_15 
REMARK    6  A    between atoms: C_17  and  O_18 
REMARK    7  A    between atoms: C_22  and  C_23 
REMARK    8  A    between atoms: C_23  and  C_24 
REMARK       I    between atoms: C_24  and  N_25 
REMARK    9  A    between atoms: N_25  and  C_26 
ROOT
HETATM    1  N   UNL     1      42.706 -11.736   5.058  1.00  0.00    -0.232 N 
HETATM    2  C   UNL     1      41.505 -12.410   5.062  1.00  0.00     0.333 C 
HETATM    3  O   UNL     1      40.790 -12.694   6.014  1.00  0.00    -0.246 OA
HETATM    4  N   UNL     1      41.230 -12.881   3.771  1.00  0.00    -0.315 N 
HETATM    5  C   UNL     1      42.291 -12.522   2.848  1.00  0.00     0.191 C 
HETATM    6  C   UNL     1      43.275 -11.867   3.814  1.00  0.00     0.256 C 
HETATM    7  O   UNL     1      44.388 -11.519   3.423  1.00  0.00    -0.270 OA
ENDROOT
BRANCH   4   8
HETATM    8  C   UNL     1      40.555 -14.168   3.706  1.00  0.00     0.167 C 
BRANCH   8   9
HETATM    9  C   UNL     1      41.422 -15.387   3.568  1.00  0.00    -0.037 A 
HETATM   10  C   UNL     1      42.233 -15.803   4.636  1.00  0.00     0.048 A 
HETATM   11  C   UNL     1      43.184 -16.817   4.459  1.00  0.00     0.102 A 
HETATM   12  C   UNL     1      43.307 -17.433   3.202  1.00  0.00     0.101 A 
HETATM   13  C   UNL     1      42.455 -17.067   2.156  1.00  0.00     0.040 A 
HETATM   14  C   UNL     1      41.525 -16.043   2.336  1.00  0.00     0.012 A 
BRANCH  11  15
HETATM   15  O   UNL     1      44.049 -17.250   5.432  1.00  0.00    -0.353 OA
HETATM   16  C   UNL     1      43.480 -17.773   6.624  1.00  0.00     0.210 C 
ENDBRANCH  11  15
BRANCH  12  17
HETATM   17  O   UNL     1      44.267 -18.406   3.062  1.00  0.00    -0.353 OA
HETATM   18  C   UNL     1      43.769 -19.658   2.597  1.00  0.00     0.210 C 
ENDBRANCH  12  17
ENDBRANCH   8   9
ENDBRANCH   4   8
BRANCH   5  19
HETATM   19  C   UNL     1      41.868 -11.467   1.827  1.00  0.00     0.138 C 
BRANCH  19  20
HETATM   20  C   UNL     1      40.747 -11.923   0.901  1.00  0.00     0.224 C 
HETATM   21  N   UNL     1      41.124 -12.823  -0.077  1.00  0.00    -0.327 N 
HETATM   22  H   UNL     1      42.084 -13.165  -0.078  1.00  0.00     0.169 HD
HETATM   23  O   UNL     1      39.621 -11.451   1.043  1.00  0.00    -0.273 OA
BRANCH  21  24
HETATM   24  C   UNL     1      40.313 -13.372  -1.095  1.00  0.00     0.034 A 
HETATM   25  C   UNL     1      40.016 -12.725  -2.294  1.00  0.00     0.029 A 
HETATM   26  C   UNL     1      39.214 -13.350  -3.256  1.00  0.00     0.002 A 
HETATM   27  C   UNL     1      38.690 -14.619  -3.019  1.00  0.00     0.000 A 
HETATM   28  C   UNL     1      38.980 -15.273  -1.826  1.00  0.00     0.002 A 
HETATM   29  C   UNL     1      39.798 -14.657  -0.874  1.00  0.00     0.029 A 
ENDBRANCH  21  24
ENDBRANCH  19  20
ENDBRANCH   5  19
BRANCH   1  30
HETATM   30  C   UNL     1      43.339 -11.167   6.212  1.00  0.00     0.047 A 
HETATM   31  C   UNL     1      42.810 -10.041   6.866  1.00  0.00     0.033 A 
HETATM   32  C   UNL     1      43.385  -9.515   8.035  1.00  0.00     0.039 A 
HETATM   33  C   UNL     1      44.520 -10.096   8.581  1.00  0.00     0.068 A 
HETATM   34  C   UNL     1      45.096 -11.178   7.921  1.00  0.00     0.039 A 
HETATM   35  C   UNL     1      44.515 -11.704   6.756  1.00  0.00     0.033 A 
BRANCH  33  36
HETATM   36  O   UNL     1      45.157  -9.698   9.721  1.00  0.00    -0.356 OA
HETATM   37  C   UNL     1      44.338  -9.515  10.871  1.00  0.00     0.210 C 
ENDBRANCH  33  36
ENDBRANCH   1  30
TORSDOF 9
ENDMDL
MODEL 3
REMARK VINA RESULT:      -8.7      1.934      8.349
REMARK  9 active torsions:
REMARK  status: ('A' for Active; 'I' for Inactive)
REMARK    1  A    between atoms: O_2  and  C_3 
REMARK    2  A    between atoms: C_6  and  N_7 
REMARK    3  A    between atoms: N_10  and  C_11 
REMARK    4  A    between atoms: C_11  and  C_12 
REMARK    5  A    between atoms: C_14  and  O_15 
REMARK    6  A    between atoms: C_17  and  O_18 
REMARK    7  A    between atoms: C_22  and  C_23 
REMARK    8  A    between atoms: C_23  and  C_24 
REMARK       I    between atoms: C_24  and  N_25 
REMARK    9  A    between atoms: N_25  and  C_26 
ROOT
HETATM    1  N   UNL     1      42.134 -14.854   3.540  1.00  0.00    -0.232 N 
HETATM    2  C   UNL     1      42.682 -13.717   2.987  1.00  0.00     0.333 C 
HETATM    3  O   UNL     1      43.737 -13.592   2.382  1.00  0.00    -0.246 OA
HETATM    4  N   UNL     1      41.895 -12.608   3.327  1.00  0.00    -0.315 N 
HETATM    5  C   UNL     1      40.769 -13.002   4.154  1.00  0.00     0.191 C 
HETATM    6  C   UNL     1      41.076 -14.486   4.336  1.00  0.00     0.256 C 
HETATM    7  O   UNL     1      40.392 -15.172   5.093  1.00  0.00    -0.270 OA
ENDROOT
BRANCH   4   8
HETATM    8  C   UNL     1      42.625 -11.371   3.557  1.00  0.00     0.167 C 
BRANCH   8   9
HETATM    9  C   UNL     1      43.191 -11.159   4.933  1.00  0.00    -0.037 A 
HETATM   10  C   UNL     1      42.480 -10.408   5.883  1.00  0.00     0.048 A 
HETATM   11  C   UNL     1      43.077 -10.042   7.097  1.00  0.00     0.102 A 
HETATM   12  C   UNL     1      44.394 -10.452   7.367  1.00  0.00     0.101 A 
HETATM   13  C   UNL     1      45.079 -11.256   6.452  1.00  0.00     0.040 A 
HETATM   14  C   UNL     1      44.485 -11.599   5.238  1.00  0.00     0.012 A 
BRANCH  11  15
HETATM   15  O   UNL     1      42.475  -9.270   8.057  1.00  0.00    -0.353 OA
HETATM   16  C   UNL     1      42.302  -7.890   7.770  1.00  0.00     0.210 C 
ENDBRANCH  11  15
BRANCH  12  17
HETATM   17  O   UNL     1      44.953 -10.053   8.558  1.00  0.00    -0.353 OA
HETATM   18  C   UNL     1      45.982  -9.077   8.426  1.00  0.00     0.210 C 
ENDBRANCH  12  17
ENDBRANCH   8   9
ENDBRANCH   4   8
BRANCH   5  19
HETATM   19  C   UNL     1      39.426 -12.888   3.435  1.00  0.00     0.138 C 
BRANCH  19  20
HETATM   20  C   UNL     1      39.544 -12.461   1.978  1.00  0.00     0.224 C 
HETATM   21  N   UNL     1      39.784 -13.487   1.085  1.00  0.00    -0.327 N 
HETATM   22  H   UNL     1      39.803 -14.443   1.437  1.00  0.00     0.169 HD
HETATM   23  O   UNL     1      39.464 -11.268   1.692  1.00  0.00    -0.273 OA
BRANCH  21  24
HETATM   24  C   UNL     1      39.987 -13.380  -0.309  1.00  0.00     0.034 A 
HETATM   25  C   UNL     1      40.766 -12.394  -0.915  1.00  0.00     0.029 A 
HETATM   26  C   UNL     1      40.925 -12.371  -2.304  1.00  0.00     0.002 A 
HETATM   27  C   UNL     1      40.293 -13.324  -3.101  1.00  0.00     0.000 A 
HETATM   28  C   UNL     1      39.513 -14.311  -2.508  1.00  0.00     0.002 A 
HETATM   29  C   UNL     1      39.372 -14.347  -1.118  1.00  0.00     0.029 A 
ENDBRANCH  21  24
ENDBRANCH  19  20
ENDBRANCH   5  19
BRANCH   1  30
HETATM   30  C   UNL     1      42.699 -16.170   3.454  1.00  0.00     0.047 A 
HETATM   31  C   UNL     1      43.498 -16.700   4.481  1.00  0.00     0.033 A 
HETATM   32  C   UNL     1      44.002 -18.011   4.437  1.00  0.00     0.039 A 
HETATM   33  C   UNL     1      43.729 -18.831   3.351  1.00  0.00     0.068 A 
HETATM   34  C   UNL     1      42.986 -18.310   2.296  1.00  0.00     0.039 A 
HETATM   35  C   UNL     1      42.480 -17.002   2.346  1.00  0.00     0.033 A 
BRANCH  33  36
HETATM   36  O   UNL     1      44.137 -20.124   3.200  1.00  0.00    -0.356 OA
HETATM   37  C   UNL     1      44.004 -20.966   4.342  1.00  0.00     0.210 C 
ENDBRANCH  33  36
ENDBRANCH   1  30
TORSDOF 9
ENDMDL
MODEL 4
REMARK VINA RESULT:      -8.7      2.011      8.179
REMARK  9 active torsions:
REMARK  status: ('A' for Active; 'I' for Inactive)
REMARK    1  A    between atoms: O_2  and  C_3 
REMARK    2  A    between atoms: C_6  and  N_7 
REMARK    3  A    between atoms: N_10  and  C_11 
REMARK    4  A    between atoms: C_11  and  C_12 
REMARK    5  A    between atoms: C_14  and  O_15 
REMARK    6  A    between atoms: C_17  and  O_18 
REMARK    7  A    between atoms: C_22  and  C_23 
REMARK    8  A    between atoms: C_23  and  C_24 
REMARK       I    between atoms: C_24  and  N_25 
REMARK    9  A    between atoms: N_25  and  C_26 
ROOT
HETATM    1  N   UNL     1      42.169 -14.795   3.681  1.00  0.00    -0.232 N 
HETATM    2  C   UNL     1      42.654 -13.696   3.005  1.00  0.00     0.333 C 
HETATM    3  O   UNL     1      43.698 -13.583   2.379  1.00  0.00    -0.246 OA
HETATM    4  N   UNL     1      41.813 -12.598   3.236  1.00  0.00    -0.315 N 
HETATM    5  C   UNL     1      40.714 -12.959   4.112  1.00  0.00     0.191 C 
HETATM    6  C   UNL     1      41.098 -14.399   4.445  1.00  0.00     0.256 C 
HETATM    7  O   UNL     1      40.454 -15.035   5.277  1.00  0.00    -0.270 OA
ENDROOT
BRANCH   4   8
HETATM    8  C   UNL     1      42.480 -11.309   3.328  1.00  0.00     0.167 C 
BRANCH   8   9
HETATM    9  C   UNL     1      42.726 -10.764   4.706  1.00  0.00    -0.037 A 
HETATM   10  C   UNL     1      43.751 -11.297   5.506  1.00  0.00     0.048 A 
HETATM   11  C   UNL     1      43.867 -10.934   6.854  1.00  0.00     0.102 A 
HETATM   12  C   UNL     1      42.958 -10.011   7.399  1.00  0.00     0.101 A 
HETATM   13  C   UNL     1      41.979  -9.429   6.588  1.00  0.00     0.040 A 
HETATM   14  C   UNL     1      41.859  -9.811   5.253  1.00  0.00     0.012 A 
BRANCH  11  15
HETATM   15  O   UNL     1      44.804 -11.442   7.717  1.00  0.00    -0.353 OA
HETATM   16  C   UNL     1      46.102 -10.867   7.682  1.00  0.00     0.210 C 
ENDBRANCH  11  15
BRANCH  12  17
HETATM   17  O   UNL     1      43.090  -9.698   8.731  1.00  0.00    -0.353 OA
HETATM   18  C   UNL     1      41.925  -9.127   9.318  1.00  0.00     0.210 C 
ENDBRANCH  12  17
ENDBRANCH   8   9
ENDBRANCH   4   8
BRANCH   5  19
HETATM   19  C   UNL     1      39.362 -12.989   3.401  1.00  0.00     0.138 C 
BRANCH  19  20
HETATM   20  C   UNL     1      39.431 -12.579   1.935  1.00  0.00     0.224 C 
HETATM   21  N   UNL     1      39.758 -13.595   1.058  1.00  0.00    -0.327 N 
HETATM   22  H   UNL     1      39.866 -14.538   1.425  1.00  0.00     0.169 HD
HETATM   23  O   UNL     1      39.241 -11.403   1.631  1.00  0.00    -0.273 OA
BRANCH  21  24
HETATM   24  C   UNL     1      39.941 -13.494  -0.340  1.00  0.00     0.034 A 
HETATM   25  C   UNL     1      39.326 -14.330  -1.273  1.00  0.00     0.029 A 
HETATM   26  C   UNL     1      39.552 -14.150  -2.641  1.00  0.00     0.002 A 
HETATM   27  C   UNL     1      40.406 -13.144  -3.088  1.00  0.00     0.000 A 
HETATM   28  C   UNL     1      41.025 -12.306  -2.167  1.00  0.00     0.002 A 
HETATM   29  C   UNL     1      40.783 -12.472  -0.800  1.00  0.00     0.029 A 
ENDBRANCH  21  24
ENDBRANCH  19  20
ENDBRANCH   5  19
BRANCH   1  30
HETATM   30  C   UNL     1      42.799 -16.082   3.727  1.00  0.00     0.047 A 
HETATM   31  C   UNL     1      43.582 -16.483   4.823  1.00  0.00     0.033 A 
HETATM   32  C   UNL     1      44.150 -17.765   4.908  1.00  0.00     0.039 A 
HETATM   33  C   UNL     1      43.961 -18.685   3.887  1.00  0.00     0.068 A 
HETATM   34  C   UNL     1      43.237 -18.293   2.765  1.00  0.00     0.039 A 
HETATM   35  C   UNL     1      42.666 -17.013   2.686  1.00  0.00     0.033 A 
BRANCH  33  36
HETATM   36  O   UNL     1      44.436 -19.964   3.861  1.00  0.00    -0.356 OA
HETATM   37  C   UNL     1      44.285 -20.719   5.059  1.00  0.00     0.210 C 
ENDBRANCH  33  36
ENDBRANCH   1  30
TORSDOF 9
ENDMDL
MODEL 5
REMARK VINA RESULT:      -8.5      1.635      7.889
REMARK  9 active torsions:
REMARK  status: ('A' for Active; 'I' for Inactive)
REMARK    1  A    between atoms: O_2  and  C_3 
REMARK    2  A    between atoms: C_6  and  N_7 
REMARK    3  A    between atoms: N_10  and  C_11 
REMARK    4  A    between atoms: C_11  and  C_12 
REMARK    5  A    between atoms: C_14  and  O_15 
REMARK    6  A    between atoms: C_17  and  O_18 
REMARK    7  A    between atoms: C_22  and  C_23 
REMARK    8  A    between atoms: C_23  and  C_24 
REMARK       I    between atoms: C_24  and  N_25 
REMARK    9  A    between atoms: N_25  and  C_26 
ROOT
HETATM    1  N   UNL     1      41.314 -12.397   1.493  1.00  0.00    -0.232 N 
HETATM    2  C   UNL     1      41.937 -11.532   2.366  1.00  0.00     0.333 C 
HETATM    3  O   UNL     1      42.040 -10.315   2.295  1.00  0.00    -0.246 OA
HETATM    4  N   UNL     1      42.599 -12.269   3.359  1.00  0.00    -0.315 N 
HETATM    5  C   UNL     1      42.429 -13.694   3.150  1.00  0.00     0.191 C 
HETATM    6  C   UNL     1      41.662 -13.683   1.830  1.00  0.00     0.256 C 
HETATM    7  O   UNL     1      41.419 -14.737   1.245  1.00  0.00    -0.270 OA
ENDROOT
BRANCH   4   8
HETATM    8  C   UNL     1      43.856 -11.702   3.823  1.00  0.00     0.167 C 
BRANCH   8   9
HETATM    9  C   UNL     1      43.938 -11.322   5.274  1.00  0.00    -0.037 A 
HETATM   10  C   UNL     1      42.829 -10.755   5.922  1.00  0.00     0.048 A 
HETATM   11  C   UNL     1      42.950 -10.222   7.212  1.00  0.00     0.102 A 
HETATM   12  C   UNL     1      44.193 -10.278   7.866  1.00  0.00     0.101 A 
HETATM   13  C   UNL     1      45.281 -10.902   7.250  1.00  0.00     0.040 A 
HETATM   14  C   UNL     1      45.156 -11.412   5.958  1.00  0.00     0.012 A 
BRANCH  11  15
HETATM   15  O   UNL     1      41.933  -9.607   7.897  1.00  0.00    -0.353 OA
HETATM   16  C   UNL     1      41.389  -8.424   7.331  1.00  0.00     0.210 C 
ENDBRANCH  11  15
BRANCH  12  17
HETATM   17  O   UNL     1      44.276  -9.724   9.121  1.00  0.00    -0.353 OA
HETATM   18  C   UNL     1      45.533  -9.915   9.764  1.00  0.00     0.210 C 
ENDBRANCH  12  17
ENDBRANCH   8   9
ENDBRANCH   4   8
BRANCH   5  19
HETATM   19  C   UNL     1      41.538 -14.354   4.201  1.00  0.00     0.138 C 
BRANCH  19  20
HETATM   20  C   UNL     1      41.731 -15.861   4.310  1.00  0.00     0.224 C 
HETATM   21  N   UNL     1      42.832 -16.361   3.642  1.00  0.00    -0.327 N 
HETATM   22  H   UNL     1      43.463 -15.704   3.187  1.00  0.00     0.169 HD
HETATM   23  O   UNL     1      40.903 -16.530   4.927  1.00  0.00    -0.273 OA
BRANCH  21  24
HETATM   24  C   UNL     1      43.225 -17.714   3.530  1.00  0.00     0.034 A 
HETATM   25  C   UNL     1      43.864 -18.430   4.542  1.00  0.00     0.029 A 
HETATM   26  C   UNL     1      44.206 -19.774   4.351  1.00  0.00     0.002 A 
HETATM   27  C   UNL     1      43.925 -20.406   3.141  1.00  0.00     0.000 A 
HETATM   28  C   UNL     1      43.289 -19.700   2.125  1.00  0.00     0.002 A 
HETATM   29  C   UNL     1      42.929 -18.364   2.324  1.00  0.00     0.029 A 
ENDBRANCH  21  24
ENDBRANCH  19  20
ENDBRANCH   5  19
BRANCH   1  30
HETATM   30  C   UNL     1      40.589 -12.006   0.319  1.00  0.00     0.047 A 
HETATM   31  C   UNL     1      41.245 -11.556  -0.839  1.00  0.00     0.033 A 
HETATM   32  C   UNL     1      40.550 -11.233  -2.017  1.00  0.00     0.039 A 
HETATM   33  C   UNL     1      39.167 -11.341  -2.066  1.00  0.00     0.068 A 
HETATM   34  C   UNL     1      38.490 -11.731  -0.915  1.00  0.00     0.039 A 
HETATM   35  C   UNL     1      39.189 -12.059   0.258  1.00  0.00     0.033 A 
BRANCH  33  36
HETATM   36  O   UNL     1      38.381 -11.083  -3.151  1.00  0.00    -0.356 OA
HETATM   37  C   UNL     1      38.583  -9.828  -3.794  1.00  0.00     0.210 C 
ENDBRANCH  33  36
ENDBRANCH   1  30
TORSDOF 9
ENDMDL
MODEL 6
REMARK VINA RESULT:      -8.4      1.862      6.692
REMARK  9 active torsions:
REMARK  status: ('A' for Active; 'I' for Inactive)
REMARK    1  A    between atoms: O_2  and  C_3 
REMARK    2  A    between atoms: C_6  and  N_7 
REMARK    3  A    between atoms: N_10  and  C_11 
REMARK    4  A    between atoms: C_11  and  C_12 
REMARK    5  A    between atoms: C_14  and  O_15 
REMARK    6  A    between atoms: C_17  and  O_18 
REMARK    7  A    between atoms: C_22  and  C_23 
REMARK    8  A    between atoms: C_23  and  C_24 
REMARK       I    between atoms: C_24  and  N_25 
REMARK    9  A    between atoms: N_25  and  C_26 
ROOT
HETATM    1  N   UNL     1      41.817 -14.894   4.117  1.00  0.00    -0.232 N 
HETATM    2  C   UNL     1      40.540 -14.715   3.631  1.00  0.00     0.333 C 
HETATM    3  O   UNL     1      39.809 -15.528   3.082  1.00  0.00    -0.246 OA
HETATM    4  N   UNL     1      40.189 -13.362   3.731  1.00  0.00    -0.315 N 
HETATM    5  C   UNL     1      41.273 -12.583   4.299  1.00  0.00     0.191 C 
HETATM    6  C   UNL     1      42.346 -13.662   4.415  1.00  0.00     0.256 C 
HETATM    7  O   UNL     1      43.488 -13.365   4.762  1.00  0.00    -0.270 OA
ENDROOT
BRANCH   4   8
HETATM    8  C   UNL     1      39.356 -12.852   2.653  1.00  0.00     0.167 C 
BRANCH   8   9
HETATM    9  C   UNL     1      40.041 -12.524   1.357  1.00  0.00    -0.037 A 
HETATM   10  C   UNL     1      40.806 -11.352   1.237  1.00  0.00     0.048 A 
HETATM   11  C   UNL     1      41.289 -10.938  -0.011  1.00  0.00     0.102 A 
HETATM   12  C   UNL     1      41.018 -11.719  -1.147  1.00  0.00     0.101 A 
HETATM   13  C   UNL     1      40.315 -12.920  -1.020  1.00  0.00     0.040 A 
HETATM   14  C   UNL     1      39.822 -13.315   0.223  1.00  0.00     0.012 A 
BRANCH  11  15
HETATM   15  O   UNL     1      42.000  -9.784  -0.225  1.00  0.00    -0.353 OA
HETATM   16  C   UNL     1      41.306  -8.554  -0.074  1.00  0.00     0.210 C 
ENDBRANCH  11  15
BRANCH  12  17
HETATM   17  O   UNL     1      41.490 -11.267  -2.356  1.00  0.00    -0.353 OA
HETATM   18  C   UNL     1      40.487 -10.724  -3.211  1.00  0.00     0.210 C 
ENDBRANCH  12  17
ENDBRANCH   8   9
ENDBRANCH   4   8
BRANCH   5  19
HETATM   19  C   UNL     1      40.972 -12.070   5.707  1.00  0.00     0.138 C 
BRANCH  19  20
HETATM   20  C   UNL     1      41.975 -11.040   6.212  1.00  0.00     0.224 C 
HETATM   21  N   UNL     1      42.886 -11.514   7.136  1.00  0.00    -0.327 N 
HETATM   22  H   UNL     1      42.873 -12.507   7.366  1.00  0.00     0.169 HD
HETATM   23  O   UNL     1      41.893  -9.879   5.818  1.00  0.00    -0.273 OA
BRANCH  21  24
HETATM   24  C   UNL     1      43.889 -10.779   7.806  1.00  0.00     0.034 A 
HETATM   25  C   UNL     1      45.198 -10.639   7.344  1.00  0.00     0.029 A 
HETATM   26  C   UNL     1      46.125  -9.878   8.065  1.00  0.00     0.002 A 
HETATM   27  C   UNL     1      45.755  -9.265   9.260  1.00  0.00     0.000 A 
HETATM   28  C   UNL     1      44.453  -9.398   9.730  1.00  0.00     0.002 A 
HETATM   29  C   UNL     1      43.521 -10.141   8.999  1.00  0.00     0.029 A 
ENDBRANCH  21  24
ENDBRANCH  19  20
ENDBRANCH   5  19
BRANCH   1  30
HETATM   30  C   UNL     1      42.534 -16.136   4.120  1.00  0.00     0.047 A 
HETATM   31  C   UNL     1      42.866 -16.795   5.317  1.00  0.00     0.033 A 
HETATM   32  C   UNL     1      43.510 -18.043   5.331  1.00  0.00     0.039 A 
HETATM   33  C   UNL     1      43.853 -18.668   4.140  1.00  0.00     0.068 A 
HETATM   34  C   UNL     1      43.585 -18.011   2.944  1.00  0.00     0.039 A 
HETATM   35  C   UNL     1      42.936 -16.766   2.934  1.00  0.00     0.033 A 
BRANCH  33  36
HETATM   36  O   UNL     1      44.456 -19.887   4.019  1.00  0.00    -0.356 OA
HETATM   37  C   UNL     1      44.392 -20.739   5.158  1.00  0.00     0.210 C 
ENDBRANCH  33  36
ENDBRANCH   1  30
TORSDOF 9
ENDMDL
MODEL 7
REMARK VINA RESULT:      -8.3      3.657      9.529
REMARK  9 active torsions:
REMARK  status: ('A' for Active; 'I' for Inactive)
REMARK    1  A    between atoms: O_2  and  C_3 
REMARK    2  A    between atoms: C_6  and  N_7 
REMARK    3  A    between atoms: N_10  and  C_11 
REMARK    4  A    between atoms: C_11  and  C_12 
REMARK    5  A    between atoms: C_14  and  O_15 
REMARK    6  A    between atoms: C_17  and  O_18 
REMARK    7  A    between atoms: C_22  and  C_23 
REMARK    8  A    between atoms: C_23  and  C_24 
REMARK       I    between atoms: C_24  and  N_25 
REMARK    9  A    between atoms: N_25  and  C_26 
ROOT
HETATM    1  N   UNL     1      42.241 -14.454   4.667  1.00  0.00    -0.232 N 
HETATM    2  C   UNL     1      42.572 -13.260   4.066  1.00  0.00     0.333 C 
HETATM    3  O   UNL     1      43.367 -13.054   3.159  1.00  0.00    -0.246 OA
HETATM    4  N   UNL     1      41.941 -12.206   4.742  1.00  0.00    -0.315 N 
HETATM    5  C   UNL     1      41.154 -12.700   5.857  1.00  0.00     0.191 C 
HETATM    6  C   UNL     1      41.506 -14.185   5.797  1.00  0.00     0.256 C 
HETATM    7  O   UNL     1      41.112 -14.951   6.674  1.00  0.00    -0.270 OA
ENDROOT
BRANCH   4   8
HETATM    8  C   UNL     1      42.704 -10.971   4.825  1.00  0.00     0.167 C 
BRANCH   8   9
HETATM    9  C   UNL     1      43.384 -10.676   6.133  1.00  0.00    -0.037 A 
HETATM   10  C   UNL     1      42.856  -9.707   7.002  1.00  0.00     0.048 A 
HETATM   11  C   UNL     1      43.577  -9.286   8.127  1.00  0.00     0.102 A 
HETATM   12  C   UNL     1      44.833  -9.858   8.392  1.00  0.00     0.101 A 
HETATM   13  C   UNL     1      45.331 -10.870   7.566  1.00  0.00     0.040 A 
HETATM   14  C   UNL     1      44.614 -11.269   6.438  1.00  0.00     0.012 A 
BRANCH  11  15
HETATM   15  O   UNL     1      43.160  -8.313   8.998  1.00  0.00    -0.353 OA
HETATM   16  C   UNL     1      42.882  -7.029   8.457  1.00  0.00     0.210 C 
ENDBRANCH  11  15
BRANCH  12  17
HETATM   17  O   UNL     1      45.520  -9.403   9.491  1.00  0.00    -0.353 OA
HETATM   18  C   UNL     1      45.280 -10.146  10.683  1.00  0.00     0.210 C 
ENDBRANCH  12  17
ENDBRANCH   8   9
ENDBRANCH   4   8
BRANCH   5  19
HETATM   19  C   UNL     1      39.648 -12.568   5.635  1.00  0.00     0.138 C 
BRANCH  19  20
HETATM   20  C   UNL     1      39.013 -11.415   6.402  1.00  0.00     0.224 C 
HETATM   21  N   UNL     1      39.885 -10.678   7.179  1.00  0.00    -0.327 N 
HETATM   22  H   UNL     1      40.878 -10.904   7.142  1.00  0.00     0.169 HD
HETATM   23  O   UNL     1      37.799 -11.238   6.324  1.00  0.00    -0.273 OA
BRANCH  21  24
HETATM   24  C   UNL     1      39.570  -9.594   8.028  1.00  0.00     0.034 A 
HETATM   25  C   UNL     1      39.428  -8.275   7.594  1.00  0.00     0.029 A 
HETATM   26  C   UNL     1      39.099  -7.263   8.503  1.00  0.00     0.002 A 
HETATM   27  C   UNL     1      38.926  -7.558   9.854  1.00  0.00     0.000 A 
HETATM   28  C   UNL     1      39.066  -8.870  10.297  1.00  0.00     0.002 A 
HETATM   29  C   UNL     1      39.374  -9.884   9.385  1.00  0.00     0.029 A 
ENDBRANCH  21  24
ENDBRANCH  19  20
ENDBRANCH   5  19
BRANCH   1  30
HETATM   30  C   UNL     1      42.746 -15.741   4.285  1.00  0.00     0.047 A 
HETATM   31  C   UNL     1      43.737 -16.398   5.034  1.00  0.00     0.033 A 
HETATM   32  C   UNL     1      44.193 -17.686   4.707  1.00  0.00     0.039 A 
HETATM   33  C   UNL     1      43.676 -18.353   3.606  1.00  0.00     0.068 A 
HETATM   34  C   UNL     1      42.734 -17.702   2.815  1.00  0.00     0.039 A 
HETATM   35  C   UNL     1      42.277 -16.417   3.150  1.00  0.00     0.033 A 
BRANCH  33  36
HETATM   36  O   UNL     1      44.015 -19.611   3.198  1.00  0.00    -0.356 OA
HETATM   37  C   UNL     1      43.362 -20.093   2.028  1.00  0.00     0.210 C 
ENDBRANCH  33  36
ENDBRANCH   1  30
TORSDOF 9
ENDMDL
MODEL 8
REMARK VINA RESULT:      -8.3      2.011      2.668
REMARK  9 active torsions:
REMARK  status: ('A' for Active; 'I' for Inactive)
REMARK    1  A    between atoms: O_2  and  C_3 
REMARK    2  A    between atoms: C_6  and  N_7 
REMARK    3  A    between atoms: N_10  and  C_11 
REMARK    4  A    between atoms: C_11  and  C_12 
REMARK    5  A    between atoms: C_14  and  O_15 
REMARK    6  A    between atoms: C_17  and  O_18 
REMARK    7  A    between atoms: C_22  and  C_23 
REMARK    8  A    between atoms: C_23  and  C_24 
REMARK       I    between atoms: C_24  and  N_25 
REMARK    9  A    between atoms: N_25  and  C_26 
ROOT
HETATM    1  N   UNL     1      41.567 -12.373   4.051  1.00  0.00    -0.232 N 
HETATM    2  C   UNL     1      41.936 -12.065   2.759  1.00  0.00     0.333 C 
HETATM    3  O   UNL     1      42.952 -11.510   2.365  1.00  0.00    -0.246 OA
HETATM    4  N   UNL     1      40.882 -12.371   1.888  1.00  0.00    -0.315 N 
HETATM    5  C   UNL     1      39.743 -12.901   2.614  1.00  0.00     0.191 C 
HETATM    6  C   UNL     1      40.248 -12.757   4.047  1.00  0.00     0.256 C 
HETATM    7  O   UNL     1      39.503 -13.002   4.995  1.00  0.00    -0.270 OA
ENDROOT
BRANCH   4   8
HETATM    8  C   UNL     1      40.724 -11.469   0.758  1.00  0.00     0.167 C 
BRANCH   8   9
HETATM    9  C   UNL     1      39.571 -11.733  -0.170  1.00  0.00    -0.037 A 
HETATM   10  C   UNL     1      39.722 -12.613  -1.254  1.00  0.00     0.048 A 
HETATM   11  C   UNL     1      38.724 -12.720  -2.232  1.00  0.00     0.102 A 
HETATM   12  C   UNL     1      37.555 -11.950  -2.109  1.00  0.00     0.101 A 
HETATM   13  C   UNL     1      37.373 -11.125  -0.996  1.00  0.00     0.040 A 
HETATM   14  C   UNL     1      38.380 -11.010  -0.038  1.00  0.00     0.012 A 
BRANCH  11  15
HETATM   15  O   UNL     1      38.811 -13.514  -3.347  1.00  0.00    -0.353 OA
HETATM   16  C   UNL     1      38.590 -14.907  -3.173  1.00  0.00     0.210 C 
ENDBRANCH  11  15
BRANCH  12  17
HETATM   17  O   UNL     1      36.610 -12.066  -3.100  1.00  0.00    -0.353 OA
HETATM   18  C   UNL     1      35.686 -10.983  -3.159  1.00  0.00     0.210 C 
ENDBRANCH  12  17
ENDBRANCH   8   9
ENDBRANCH   4   8
BRANCH   5  19
HETATM   19  C   UNL     1      39.500 -14.386   2.352  1.00  0.00     0.138 C 
BRANCH  19  20
HETATM   20  C   UNL     1      40.779 -15.204   2.222  1.00  0.00     0.224 C 
HETATM   21  N   UNL     1      41.069 -16.012   3.304  1.00  0.00    -0.327 N 
HETATM   22  H   UNL     1      40.398 -16.060   4.069  1.00  0.00     0.169 HD
HETATM   23  O   UNL     1      41.477 -15.072   1.220  1.00  0.00    -0.273 OA
BRANCH  21  24
HETATM   24  C   UNL     1      42.205 -16.835   3.479  1.00  0.00     0.034 A 
HETATM   25  C   UNL     1      42.655 -17.760   2.537  1.00  0.00     0.029 A 
HETATM   26  C   UNL     1      43.800 -18.524   2.787  1.00  0.00     0.002 A 
HETATM   27  C   UNL     1      44.494 -18.382   3.987  1.00  0.00     0.000 A 
HETATM   28  C   UNL     1      44.053 -17.463   4.933  1.00  0.00     0.002 A 
HETATM   29  C   UNL     1      42.921 -16.684   4.675  1.00  0.00     0.029 A 
ENDBRANCH  21  24
ENDBRANCH  19  20
ENDBRANCH   5  19
BRANCH   1  30
HETATM   30  C   UNL     1      42.368 -12.140   5.217  1.00  0.00     0.047 A 
HETATM   31  C   UNL     1      43.330 -13.069   5.651  1.00  0.00     0.033 A 
HETATM   32  C   UNL     1      44.165 -12.823   6.754  1.00  0.00     0.039 A 
HETATM   33  C   UNL     1      44.054 -11.636   7.466  1.00  0.00     0.068 A 
HETATM   34  C   UNL     1      43.073 -10.725   7.090  1.00  0.00     0.039 A 
HETATM   35  C   UNL     1      42.244 -10.972   5.984  1.00  0.00     0.033 A 
BRANCH  33  36
HETATM   36  O   UNL     1      44.819 -11.268   8.534  1.00  0.00    -0.356 OA
HETATM   37  C   UNL     1      44.231 -10.344   9.444  1.00  0.00     0.210 C 
ENDBRANCH  33  36
ENDBRANCH   1  30
TORSDOF 9
ENDMDL
MODEL 9
REMARK VINA RESULT:      -8.2      2.050      7.005
REMARK  9 active torsions:
REMARK  status: ('A' for Active; 'I' for Inactive)
REMARK    1  A    between atoms: O_2  and  C_3 
REMARK    2  A    between atoms: C_6  and  N_7 
REMARK    3  A    between atoms: N_10  and  C_11 
REMARK    4  A    between atoms: C_11  and  C_12 
REMARK    5  A    between atoms: C_14  and  O_15 
REMARK    6  A    between atoms: C_17  and  O_18 
REMARK    7  A    between atoms: C_22  and  C_23 
REMARK    8  A    between atoms: C_23  and  C_24 
REMARK       I    between atoms: C_24  and  N_25 
REMARK    9  A    between atoms: N_25  and  C_26 
ROOT
HETATM    1  N   UNL     1      41.509 -14.501   3.615  1.00  0.00    -0.232 N 
HETATM    2  C   UNL     1      40.223 -14.242   3.192  1.00  0.00     0.333 C 
HETATM    3  O   UNL     1      39.447 -14.983   2.604  1.00  0.00    -0.246 OA
HETATM    4  N   UNL     1      39.922 -12.891   3.417  1.00  0.00    -0.315 N 
HETATM    5  C   UNL     1      41.050 -12.197   4.009  1.00  0.00     0.191 C 
HETATM    6  C   UNL     1      42.090 -13.316   3.996  1.00  0.00     0.256 C 
HETATM    7  O   UNL     1      43.252 -13.085   4.326  1.00  0.00    -0.270 OA
ENDROOT
BRANCH   4   8
HETATM    8  C   UNL     1      39.072 -12.267   2.416  1.00  0.00     0.167 C 
BRANCH   8   9
HETATM    9  C   UNL     1      39.756 -11.477   1.336  1.00  0.00    -0.037 A 
HETATM   10  C   UNL     1      40.186 -12.111   0.159  1.00  0.00     0.048 A 
HETATM   11  C   UNL     1      40.990 -11.432  -0.766  1.00  0.00     0.102 A 
HETATM   12  C   UNL     1      41.350 -10.097  -0.516  1.00  0.00     0.101 A 
HETATM   13  C   UNL     1      40.869  -9.443   0.622  1.00  0.00     0.040 A 
HETATM   14  C   UNL     1      40.084 -10.132   1.546  1.00  0.00     0.012 A 
BRANCH  11  15
HETATM   15  O   UNL     1      41.494 -11.990  -1.914  1.00  0.00    -0.353 OA
HETATM   16  C   UNL     1      40.563 -12.542  -2.833  1.00  0.00     0.210 C 
ENDBRANCH  11  15
BRANCH  12  17
HETATM   17  O   UNL     1      42.159  -9.474  -1.435  1.00  0.00    -0.353 OA
HETATM   18  C   UNL     1      42.574  -8.163  -1.058  1.00  0.00     0.210 C 
ENDBRANCH  12  17
ENDBRANCH   8   9
ENDBRANCH   4   8
BRANCH   5  19
HETATM   19  C   UNL     1      40.814 -11.797   5.464  1.00  0.00     0.138 C 
BRANCH  19  20
HETATM   20  C   UNL     1      41.832 -10.797   5.999  1.00  0.00     0.224 C 
HETATM   21  N   UNL     1      42.690 -11.293   6.961  1.00  0.00    -0.327 N 
HETATM   22  H   UNL     1      42.634 -12.283   7.198  1.00  0.00     0.169 HD
HETATM   23  O   UNL     1      41.806  -9.638   5.592  1.00  0.00    -0.273 OA
BRANCH  21  24
HETATM   24  C   UNL     1      43.692 -10.586   7.662  1.00  0.00     0.034 A 
HETATM   25  C   UNL     1      43.444  -9.745   8.747  1.00  0.00     0.029 A 
HETATM   26  C   UNL     1      44.499  -9.093   9.394  1.00  0.00     0.002 A 
HETATM   27  C   UNL     1      45.810  -9.265   8.951  1.00  0.00     0.000 A 
HETATM   28  C   UNL     1      46.068 -10.101   7.869  1.00  0.00     0.002 A 
HETATM   29  C   UNL     1      45.015 -10.768   7.237  1.00  0.00     0.029 A 
ENDBRANCH  21  24
ENDBRANCH  19  20
ENDBRANCH   5  19
BRANCH   1  30
HETATM   30  C   UNL     1      42.182 -15.761   3.490  1.00  0.00     0.047 A 
HETATM   31  C   UNL     1      42.487 -16.315   2.235  1.00  0.00     0.033 A 
HETATM   32  C   UNL     1      43.204 -17.516   2.100  1.00  0.00     0.039 A 
HETATM   33  C   UNL     1      43.629 -18.208   3.225  1.00  0.00     0.068 A 
HETATM   34  C   UNL     1      43.292 -17.709   4.479  1.00  0.00     0.039 A 
HETATM   35  C   UNL     1      42.581 -16.506   4.610  1.00  0.00     0.033 A 
BRANCH  33  36
HETATM   36  O   UNL     1      44.352 -19.366   3.229  1.00  0.00    -0.356 OA
HETATM   37  C   UNL     1      43.721 -20.506   2.654  1.00  0.00     0.210 C 
ENDBRANCH  33  36
ENDBRANCH   1  30
TORSDOF 9
ENDMDL
MODEL 10
REMARK VINA RESULT:      -8.2      2.505      7.641
REMARK  9 active torsions:
REMARK  status: ('A' for Active; 'I' for Inactive)
REMARK    1  A    between atoms: O_2  and  C_3 
REMARK    2  A    between atoms: C_6  and  N_7 
REMARK    3  A    between atoms: N_10  and  C_11 
REMARK    4  A    between atoms: C_11  and  C_12 
REMARK    5  A    between atoms: C_14  and  O_15 
REMARK    6  A    between atoms: C_17  and  O_18 
REMARK    7  A    between atoms: C_22  and  C_23 
REMARK    8  A    between atoms: C_23  and  C_24 
REMARK       I    between atoms: C_24  and  N_25 
REMARK    9  A    between atoms: N_25  and  C_26 
ROOT
HETATM    1  N   UNL     1      42.731 -14.744   4.396  1.00  0.00    -0.232 N 
HETATM    2  C   UNL     1      41.955 -14.406   5.483  1.00  0.00     0.333 C 
HETATM    3  O   UNL     1      41.305 -15.138   6.216  1.00  0.00    -0.246 OA
HETATM    4  N   UNL     1      41.886 -13.010   5.590  1.00  0.00    -0.315 N 
HETATM    5  C   UNL     1      42.638 -12.368   4.529  1.00  0.00     0.191 C 
HETATM    6  C   UNL     1      43.066 -13.593   3.724  1.00  0.00     0.256 C 
HETATM    7  O   UNL     1      43.647 -13.457   2.649  1.00  0.00    -0.270 OA
ENDROOT
BRANCH   4   8
HETATM    8  C   UNL     1      40.616 -12.482   6.063  1.00  0.00     0.167 C 
BRANCH   8   9
HETATM    9  C   UNL     1      39.753 -11.777   5.054  1.00  0.00    -0.037 A 
HETATM   10  C   UNL     1      39.498 -12.366   3.805  1.00  0.00     0.048 A 
HETATM   11  C   UNL     1      38.859 -11.642   2.790  1.00  0.00     0.102 A 
HETATM   12  C   UNL     1      38.454 -10.319   3.039  1.00  0.00     0.101 A 
HETATM   13  C   UNL     1      38.645  -9.754   4.303  1.00  0.00     0.040 A 
HETATM   14  C   UNL     1      39.300 -10.476   5.301  1.00  0.00     0.012 A 
BRANCH  11  15
HETATM   15  O   UNL     1      38.617 -12.121   1.528  1.00  0.00    -0.353 OA
HETATM   16  C   UNL     1      39.640 -12.893   0.917  1.00  0.00     0.210 C 
ENDBRANCH  11  15
BRANCH  12  17
HETATM   17  O   UNL     1      37.851  -9.635   2.011  1.00  0.00    -0.353 OA
HETATM   18  C   UNL     1      38.368  -8.324   1.797  1.00  0.00     0.210 C 
ENDBRANCH  12  17
ENDBRANCH   8   9
ENDBRANCH   4   8
BRANCH   5  19
HETATM   19  C   UNL     1      43.904 -11.671   5.025  1.00  0.00     0.138 C 
BRANCH  19  20
HETATM   20  C   UNL     1      44.007 -11.593   6.543  1.00  0.00     0.224 C 
HETATM   21  N   UNL     1      43.742 -10.350   7.085  1.00  0.00    -0.327 N 
HETATM   22  H   UNL     1      43.440  -9.603   6.461  1.00  0.00     0.169 HD
HETATM   23  O   UNL     1      44.350 -12.590   7.174  1.00  0.00    -0.273 OA
BRANCH  21  24
HETATM   24  C   UNL     1      43.810  -9.976   8.445  1.00  0.00     0.034 A 
HETATM   25  C   UNL     1      42.703  -9.612   9.214  1.00  0.00     0.029 A 
HETATM   26  C   UNL     1      42.860  -9.269  10.561  1.00  0.00     0.002 A 
HETATM   27  C   UNL     1      44.125  -9.272  11.147  1.00  0.00     0.000 A 
HETATM   28  C   UNL     1      45.234  -9.632  10.389  1.00  0.00     0.002 A 
HETATM   29  C   UNL     1      45.075  -9.995   9.048  1.00  0.00     0.029 A 
ENDBRANCH  21  24
ENDBRANCH  19  20
ENDBRANCH   5  19
BRANCH   1  30
HETATM   30  C   UNL     1      42.978 -16.081   3.940  1.00  0.00     0.047 A 
HETATM   31  C   UNL     1      42.380 -16.586   2.773  1.00  0.00     0.033 A 
HETATM   32  C   UNL     1      42.665 -17.871   2.281  1.00  0.00     0.039 A 
HETATM   33  C   UNL     1      43.553 -18.698   2.954  1.00  0.00     0.068 A 
HETATM   34  C   UNL     1      44.115 -18.243   4.143  1.00  0.00     0.039 A 
HETATM   35  C   UNL     1      43.832 -16.956   4.627  1.00  0.00     0.033 A 
BRANCH  33  36
HETATM   36  O   UNL     1      43.931 -19.952   2.569  1.00  0.00    -0.356 OA
HETATM   37  C   UNL     1      43.860 -20.967   3.564  1.00  0.00     0.210 C 
ENDBRANCH  33  36
ENDBRANCH   1  30
TORSDOF 9
ENDMDL
