MODEL 1
REMARK VINA RESULT:      -8.8      0.000      0.000
REMARK  2 active torsions:
REMARK  status: ('A' for Active; 'I' for Inactive)
REMARK    1  A    between atoms: C_15  and  C_16 
REMARK    2  A    between atoms: C_19  and  O_20 
ROOT
HETATM    1  C   UNL     1      44.104 -20.866   4.612  1.00  0.00     0.048 C 
HETATM    2  C   UNL     1      43.806 -19.470   4.148  1.00  0.00    -0.061 A 
HETATM    3  C   UNL     1      43.821 -18.393   5.052  1.00  0.00     0.021 A 
HETATM    4  C   UNL     1      43.523 -17.091   4.599  1.00  0.00    -0.000 A 
HETATM    5  C   UNL     1      43.226 -16.911   3.241  1.00  0.00     0.043 A 
HETATM    6  N   UNL     1      42.988 -15.568   3.042  1.00  0.00    -0.353 N 
HETATM    7  H   UNL     1      42.773 -15.133   2.155  1.00  0.00     0.166 HD
HETATM    8  C   UNL     1      43.057 -14.917   4.235  1.00  0.00     0.066 A 
HETATM    9  C   UNL     1      43.441 -15.810   5.216  1.00  0.00    -0.017 A 
HETATM   10  C   UNL     1      43.692 -15.361   6.630  1.00  0.00     0.043 C 
HETATM   11  C   UNL     1      43.755 -13.797   6.744  1.00  0.00     0.018 C 
HETATM   12  C   UNL     1      42.601 -13.158   5.946  1.00  0.00     0.065 C 
HETATM   13  C   UNL     1      42.872 -13.535   4.512  1.00  0.00     0.082 C 
HETATM   14  N   UNL     1      43.084 -12.580   3.668  1.00  0.00    -0.203 NA
HETATM   15  C   UNL     1      42.425 -11.649   5.731  1.00  0.00     0.121 C 
HETATM   16  N   UNL     1      43.018 -11.426   4.391  1.00  0.00    -0.207 NA
HETATM   17  C   UNL     1      43.206 -17.966   2.324  1.00  0.00     0.031 A 
HETATM   18  C   UNL     1      43.496 -19.246   2.802  1.00  0.00     0.009 A 
HETATM   19  H   UNL     1      43.961 -11.040   4.491  1.00  0.00     0.149 HD
ENDROOT
BRANCH  15  20
HETATM   20  C   UNL     1      42.793 -10.621   6.779  1.00  0.00    -0.038 A 
HETATM   21  C   UNL     1      44.094 -10.504   7.281  1.00  0.00     0.011 A 
HETATM   22  C   UNL     1      44.378  -9.644   8.351  1.00  0.00     0.037 A 
HETATM   23  C   UNL     1      43.365  -8.913   8.972  1.00  0.00     0.068 A 
HETATM   24  C   UNL     1      42.065  -9.020   8.490  1.00  0.00     0.037 A 
HETATM   25  C   UNL     1      41.785  -9.870   7.415  1.00  0.00     0.011 A 
BRANCH  23  26
HETATM   26  O   UNL     1      43.764  -8.149  10.033  1.00  0.00    -0.356 OA
HETATM   27  C   UNL     1      43.726  -8.774  11.312  1.00  0.00     0.210 C 
ENDBRANCH  23  26
ENDBRANCH  15  20
TORSDOF 2
ENDMDL
MODEL 2
REMARK VINA RESULT:      -8.8      2.034      2.772
REMARK  2 active torsions:
REMARK  status: ('A' for Active; 'I' for Inactive)
REMARK    1  A    between atoms: C_15  and  C_16 
REMARK    2  A    between atoms: C_19  and  O_20 
ROOT
HETATM    1  C   UNL     1      43.537 -20.667   1.319  1.00  0.00     0.048 C 
HETATM    2  C   UNL     1      43.648 -19.933   2.623  1.00  0.00    -0.061 A 
HETATM    3  C   UNL     1      43.423 -18.545   2.689  1.00  0.00     0.021 A 
HETATM    4  C   UNL     1      43.547 -17.871   3.921  1.00  0.00    -0.000 A 
HETATM    5  C   UNL     1      43.886 -18.618   5.057  1.00  0.00     0.043 A 
HETATM    6  N   UNL     1      43.930 -17.751   6.127  1.00  0.00    -0.353 N 
HETATM    7  H   UNL     1      44.126 -18.007   7.086  1.00  0.00     0.166 HD
HETATM    8  C   UNL     1      43.701 -16.483   5.689  1.00  0.00     0.066 A 
HETATM    9  C   UNL     1      43.403 -16.518   4.342  1.00  0.00    -0.017 A 
HETATM   10  C   UNL     1      43.012 -15.272   3.592  1.00  0.00     0.043 C 
HETATM   11  C   UNL     1      42.710 -14.078   4.564  1.00  0.00     0.018 C 
HETATM   12  C   UNL     1      43.797 -13.989   5.654  1.00  0.00     0.065 C 
HETATM   13  C   UNL     1      43.662 -15.273   6.433  1.00  0.00     0.082 C 
HETATM   14  N   UNL     1      43.355 -15.187   7.686  1.00  0.00    -0.203 NA
HETATM   15  C   UNL     1      43.757 -13.022   6.844  1.00  0.00     0.121 C 
HETATM   16  N   UNL     1      43.209 -13.856   7.940  1.00  0.00    -0.207 NA
HETATM   17  C   UNL     1      44.113 -19.997   5.017  1.00  0.00     0.031 A 
HETATM   18  C   UNL     1      43.992 -20.638   3.781  1.00  0.00     0.009 A 
HETATM   19  H   UNL     1      42.215 -13.648   8.070  1.00  0.00     0.149 HD
ENDROOT
BRANCH  15  20
HETATM   20  C   UNL     1      43.183 -11.625   6.749  1.00  0.00    -0.038 A 
HETATM   21  C   UNL     1      43.741 -10.542   7.438  1.00  0.00     0.011 A 
HETATM   22  C   UNL     1      43.109  -9.292   7.449  1.00  0.00     0.037 A 
HETATM   23  C   UNL     1      41.885  -9.101   6.807  1.00  0.00     0.068 A 
HETATM   24  C   UNL     1      41.312 -10.166   6.121  1.00  0.00     0.037 A 
HETATM   25  C   UNL     1      41.949 -11.411   6.101  1.00  0.00     0.011 A 
BRANCH  23  26
HETATM   26  O   UNL     1      41.349  -7.850   6.932  1.00  0.00    -0.356 OA
HETATM   27  C   UNL     1      42.046  -6.947   7.784  1.00  0.00     0.210 C 
ENDBRANCH  23  26
ENDBRANCH  15  20
TORSDOF 2
ENDMDL
MODEL 3
REMARK VINA RESULT:      -8.3      3.563      8.937
REMARK  2 active torsions:
REMARK  status: ('A' for Active; 'I' for Inactive)
REMARK    1  A    between atoms: C_15  and  C_16 
REMARK    2  A    between atoms: C_19  and  O_20 
ROOT
HETATM    1  C   UNL     1      41.965  -6.201   7.548  1.00  0.00     0.048 C 
HETATM    2  C   UNL     1      41.301  -7.544   7.455  1.00  0.00    -0.061 A 
HETATM    3  C   UNL     1      41.915  -8.603   6.763  1.00  0.00     0.021 A 
HETATM    4  C   UNL     1      41.268  -9.853   6.675  1.00  0.00    -0.000 A 
HETATM    5  C   UNL     1      40.021 -10.002   7.296  1.00  0.00     0.043 A 
HETATM    6  N   UNL     1      39.604 -11.299   7.087  1.00  0.00    -0.353 N 
HETATM    7  H   UNL     1      38.749 -11.707   7.440  1.00  0.00     0.166 HD
HETATM    8  C   UNL     1      40.510 -11.942   6.301  1.00  0.00     0.066 A 
HETATM    9  C   UNL     1      41.583 -11.104   6.070  1.00  0.00    -0.017 A 
HETATM   10  C   UNL     1      42.792 -11.570   5.304  1.00  0.00     0.043 C 
HETATM   11  C   UNL     1      42.787 -13.125   5.098  1.00  0.00     0.018 C 
HETATM   12  C   UNL     1      41.389 -13.601   4.656  1.00  0.00     0.065 C 
HETATM   13  C   UNL     1      40.490 -13.280   5.823  1.00  0.00     0.082 C 
HETATM   14  N   UNL     1      39.895 -14.264   6.412  1.00  0.00    -0.203 NA
HETATM   15  C   UNL     1      40.985 -15.070   4.484  1.00  0.00     0.121 C 
HETATM   16  N   UNL     1      40.312 -15.389   5.765  1.00  0.00    -0.207 NA
HETATM   17  C   UNL     1      39.392  -8.964   7.990  1.00  0.00     0.031 A 
HETATM   18  C   UNL     1      40.051  -7.734   8.054  1.00  0.00     0.009 A 
HETATM   19  H   UNL     1      40.953 -15.906   6.374  1.00  0.00     0.149 HD
ENDROOT
BRANCH  15  20
HETATM   20  C   UNL     1      41.937 -16.130   3.975  1.00  0.00    -0.038 A 
HETATM   21  C   UNL     1      41.861 -16.637   2.672  1.00  0.00     0.011 A 
HETATM   22  C   UNL     1      42.658 -17.717   2.271  1.00  0.00     0.037 A 
HETATM   23  C   UNL     1      43.520 -18.345   3.170  1.00  0.00     0.068 A 
HETATM   24  C   UNL     1      43.607 -17.860   4.470  1.00  0.00     0.037 A 
HETATM   25  C   UNL     1      42.818 -16.774   4.867  1.00  0.00     0.011 A 
BRANCH  23  26
HETATM   26  O   UNL     1      44.207 -19.416   2.669  1.00  0.00    -0.356 OA
HETATM   27  C   UNL     1      43.449 -20.355   1.913  1.00  0.00     0.210 C 
ENDBRANCH  23  26
ENDBRANCH  15  20
TORSDOF 2
ENDMDL
MODEL 4
REMARK VINA RESULT:      -8.2      3.213      8.772
REMARK  2 active torsions:
REMARK  status: ('A' for Active; 'I' for Inactive)
REMARK    1  A    between atoms: C_15  and  C_16 
REMARK    2  A    between atoms: C_19  and  O_20 
ROOT
HETATM    1  C   UNL     1      43.573  -6.757   9.180  1.00  0.00     0.048 C 
HETATM    2  C   UNL     1      42.688  -7.796   8.556  1.00  0.00    -0.061 A 
HETATM    3  C   UNL     1      43.239  -8.935   7.941  1.00  0.00     0.021 A 
HETATM    4  C   UNL     1      42.391  -9.892   7.346  1.00  0.00    -0.000 A 
HETATM    5  C   UNL     1      41.007  -9.677   7.396  1.00  0.00     0.043 A 
HETATM    6  N   UNL     1      40.398 -10.744   6.771  1.00  0.00    -0.353 N 
HETATM    7  H   UNL     1      39.401 -10.878   6.674  1.00  0.00     0.166 HD
HETATM    8  C   UNL     1      41.351 -11.577   6.272  1.00  0.00     0.066 A 
HETATM    9  C   UNL     1      42.596 -11.120   6.654  1.00  0.00    -0.017 A 
HETATM   10  C   UNL     1      43.848 -11.889   6.327  1.00  0.00     0.043 C 
HETATM   11  C   UNL     1      43.526 -13.333   5.806  1.00  0.00     0.018 C 
HETATM   12  C   UNL     1      42.383 -13.285   4.773  1.00  0.00     0.065 C 
HETATM   13  C   UNL     1      41.188 -12.789   5.548  1.00  0.00     0.082 C 
HETATM   14  N   UNL     1      40.164 -13.571   5.639  1.00  0.00    -0.203 NA
HETATM   15  C   UNL     1      41.724 -14.522   4.149  1.00  0.00     0.121 C 
HETATM   16  N   UNL     1      40.508 -14.711   4.976  1.00  0.00    -0.207 NA
HETATM   17  C   UNL     1      40.436  -8.554   8.002  1.00  0.00     0.031 A 
HETATM   18  C   UNL     1      41.301  -7.618   8.575  1.00  0.00     0.009 A 
HETATM   19  H   UNL     1      40.667 -15.459   5.657  1.00  0.00     0.149 HD
ENDROOT
BRANCH  15  20
HETATM   20  C   UNL     1      42.489 -15.787   3.828  1.00  0.00    -0.038 A 
HETATM   21  C   UNL     1      42.592 -16.284   2.523  1.00  0.00     0.011 A 
HETATM   22  C   UNL     1      43.181 -17.530   2.271  1.00  0.00     0.037 A 
HETATM   23  C   UNL     1      43.644 -18.329   3.317  1.00  0.00     0.068 A 
HETATM   24  C   UNL     1      43.545 -17.855   4.621  1.00  0.00     0.037 A 
HETATM   25  C   UNL     1      42.967 -16.606   4.870  1.00  0.00     0.011 A 
BRANCH  23  26
HETATM   26  O   UNL     1      44.153 -19.542   2.944  1.00  0.00    -0.356 OA
HETATM   27  C   UNL     1      43.430 -20.249   1.942  1.00  0.00     0.210 C 
ENDBRANCH  23  26
ENDBRANCH  15  20
TORSDOF 2
ENDMDL
MODEL 5
REMARK VINA RESULT:      -8.2      4.826      6.334
REMARK  2 active torsions:
REMARK  status: ('A' for Active; 'I' for Inactive)
REMARK    1  A    between atoms: C_15  and  C_16 
REMARK    2  A    between atoms: C_19  and  O_20 
ROOT
HETATM    1  C   UNL     1      36.310 -11.998  -3.038  1.00  0.00     0.048 C 
HETATM    2  C   UNL     1      37.461 -12.714  -2.394  1.00  0.00    -0.061 A 
HETATM    3  C   UNL     1      38.016 -12.247  -1.188  1.00  0.00     0.021 A 
HETATM    4  C   UNL     1      39.107 -12.926  -0.607  1.00  0.00    -0.000 A 
HETATM    5  C   UNL     1      39.604 -14.064  -1.255  1.00  0.00     0.043 A 
HETATM    6  N   UNL     1      40.644 -14.554  -0.496  1.00  0.00    -0.353 N 
HETATM    7  H   UNL     1      41.183 -15.385  -0.701  1.00  0.00     0.166 HD
HETATM    8  C   UNL     1      40.859 -13.725   0.562  1.00  0.00     0.066 A 
HETATM    9  C   UNL     1      39.895 -12.737   0.564  1.00  0.00    -0.017 A 
HETATM   10  C   UNL     1      39.818 -11.719   1.671  1.00  0.00     0.043 C 
HETATM   11  C   UNL     1      40.727 -12.111   2.888  1.00  0.00     0.018 C 
HETATM   12  C   UNL     1      42.110 -12.578   2.392  1.00  0.00     0.065 C 
HETATM   13  C   UNL     1      41.829 -13.827   1.596  1.00  0.00     0.082 C 
HETATM   14  N   UNL     1      42.354 -14.934   2.007  1.00  0.00    -0.203 NA
HETATM   15  C   UNL     1      43.208 -13.154   3.295  1.00  0.00     0.121 C 
HETATM   16  N   UNL     1      43.039 -14.619   3.142  1.00  0.00    -0.207 NA
HETATM   17  C   UNL     1      39.069 -14.548  -2.453  1.00  0.00     0.031 A 
HETATM   18  C   UNL     1      37.994 -13.851  -3.011  1.00  0.00     0.009 A 
HETATM   19  H   UNL     1      42.536 -14.995   3.951  1.00  0.00     0.149 HD
ENDROOT
BRANCH  15  20
HETATM   20  C   UNL     1      43.441 -12.676   4.712  1.00  0.00    -0.038 A 
HETATM   21  C   UNL     1      43.992 -11.421   4.994  1.00  0.00     0.011 A 
HETATM   22  C   UNL     1      44.331 -11.060   6.305  1.00  0.00     0.037 A 
HETATM   23  C   UNL     1      44.167 -11.958   7.360  1.00  0.00     0.068 A 
HETATM   24  C   UNL     1      43.626 -13.212   7.100  1.00  0.00     0.037 A 
HETATM   25  C   UNL     1      43.278 -13.567   5.793  1.00  0.00     0.011 A 
BRANCH  23  26
HETATM   26  O   UNL     1      44.580 -11.503   8.582  1.00  0.00    -0.356 OA
HETATM   27  C   UNL     1      45.452 -10.377   8.575  1.00  0.00     0.210 C 
ENDBRANCH  23  26
ENDBRANCH  15  20
TORSDOF 2
ENDMDL
MODEL 6
REMARK VINA RESULT:      -8.2     16.838     18.910
REMARK  2 active torsions:
REMARK  status: ('A' for Active; 'I' for Inactive)
REMARK    1  A    between atoms: C_15  and  C_16 
REMARK    2  A    between atoms: C_19  and  O_20 
ROOT
HETATM    1  C   UNL     1      52.488 -34.592   5.191  1.00  0.00     0.048 C 
HETATM    2  C   UNL     1      51.794 -33.282   4.956  1.00  0.00    -0.061 A 
HETATM    3  C   UNL     1      50.973 -33.095   3.829  1.00  0.00     0.021 A 
HETATM    4  C   UNL     1      50.343 -31.852   3.618  1.00  0.00    -0.000 A 
HETATM    5  C   UNL     1      50.551 -30.832   4.556  1.00  0.00     0.043 A 
HETATM    6  N   UNL     1      49.827 -29.734   4.145  1.00  0.00    -0.353 N 
HETATM    7  H   UNL     1      49.763 -28.853   4.636  1.00  0.00     0.166 HD
HETATM    8  C   UNL     1      49.233 -30.008   2.951  1.00  0.00     0.066 A 
HETATM    9  C   UNL     1      49.478 -31.324   2.616  1.00  0.00    -0.017 A 
HETATM   10  C   UNL     1      48.870 -31.947   1.388  1.00  0.00     0.043 C 
HETATM   11  C   UNL     1      47.751 -31.040   0.767  1.00  0.00     0.018 C 
HETATM   12  C   UNL     1      48.223 -29.574   0.711  1.00  0.00     0.065 C 
HETATM   13  C   UNL     1      48.403 -29.174   2.153  1.00  0.00     0.082 C 
HETATM   14  N   UNL     1      47.670 -28.212   2.607  1.00  0.00    -0.203 NA
HETATM   15  C   UNL     1      47.342 -28.394   0.280  1.00  0.00     0.121 C 
HETATM   16  N   UNL     1      46.872 -27.834   1.569  1.00  0.00    -0.207 NA
HETATM   17  C   UNL     1      51.361 -30.995   5.684  1.00  0.00     0.031 A 
HETATM   18  C   UNL     1      51.981 -32.234   5.863  1.00  0.00     0.009 A 
HETATM   19  H   UNL     1      45.914 -28.146   1.753  1.00  0.00     0.149 HD
ENDROOT
BRANCH  15  20
HETATM   20  C   UNL     1      46.286 -28.507  -0.798  1.00  0.00    -0.038 A 
HETATM   21  C   UNL     1      44.998 -28.983  -0.530  1.00  0.00     0.011 A 
HETATM   22  C   UNL     1      44.084 -29.213  -1.568  1.00  0.00     0.037 A 
HETATM   23  C   UNL     1      44.448 -29.014  -2.900  1.00  0.00     0.068 A 
HETATM   24  C   UNL     1      45.725 -28.546  -3.187  1.00  0.00     0.037 A 
HETATM   25  C   UNL     1      46.633 -28.305  -2.149  1.00  0.00     0.011 A 
BRANCH  23  26
HETATM   26  O   UNL     1      43.484 -29.320  -3.820  1.00  0.00    -0.356 OA
HETATM   27  C   UNL     1      43.912 -30.054  -4.963  1.00  0.00     0.210 C 
ENDBRANCH  23  26
ENDBRANCH  15  20
TORSDOF 2
ENDMDL
MODEL 7
REMARK VINA RESULT:      -8.2      5.843      9.022
REMARK  2 active torsions:
REMARK  status: ('A' for Active; 'I' for Inactive)
REMARK    1  A    between atoms: C_15  and  C_16 
REMARK    2  A    between atoms: C_19  and  O_20 
ROOT
HETATM    1  C   UNL     1      37.805  -9.769  -3.740  1.00  0.00     0.048 C 
HETATM    2  C   UNL     1      37.834 -10.269  -2.326  1.00  0.00    -0.061 A 
HETATM    3  C   UNL     1      38.726 -11.287  -1.941  1.00  0.00     0.021 A 
HETATM    4  C   UNL     1      38.728 -11.753  -0.610  1.00  0.00    -0.000 A 
HETATM    5  C   UNL     1      37.834 -11.172   0.300  1.00  0.00     0.043 A 
HETATM    6  N   UNL     1      38.035 -11.776   1.522  1.00  0.00    -0.353 N 
HETATM    7  H   UNL     1      37.549 -11.546   2.379  1.00  0.00     0.166 HD
HETATM    8  C   UNL     1      38.968 -12.758   1.392  1.00  0.00     0.066 A 
HETATM    9  C   UNL     1      39.465 -12.741   0.104  1.00  0.00    -0.017 A 
HETATM   10  C   UNL     1      40.583 -13.656  -0.317  1.00  0.00     0.043 C 
HETATM   11  C   UNL     1      41.260 -14.354   0.914  1.00  0.00     0.018 C 
HETATM   12  C   UNL     1      40.186 -14.879   1.887  1.00  0.00     0.065 C 
HETATM   13  C   UNL     1      39.480 -13.642   2.381  1.00  0.00     0.082 C 
HETATM   14  N   UNL     1      39.532 -13.384   3.645  1.00  0.00    -0.203 NA
HETATM   15  C   UNL     1      40.484 -15.504   3.256  1.00  0.00     0.121 C 
HETATM   16  N   UNL     1      40.291 -14.373   4.194  1.00  0.00    -0.207 NA
HETATM   17  C   UNL     1      36.940 -10.159  -0.059  1.00  0.00     0.031 A 
HETATM   18  C   UNL     1      36.953  -9.723  -1.386  1.00  0.00     0.009 A 
HETATM   19  H   UNL     1      41.201 -13.986   4.461  1.00  0.00     0.149 HD
ENDROOT
BRANCH  15  20
HETATM   20  C   UNL     1      41.703 -16.360   3.520  1.00  0.00    -0.038 A 
HETATM   21  C   UNL     1      42.199 -17.264   2.573  1.00  0.00     0.011 A 
HETATM   22  C   UNL     1      43.239 -18.146   2.894  1.00  0.00     0.037 A 
HETATM   23  C   UNL     1      43.782 -18.179   4.179  1.00  0.00     0.068 A 
HETATM   24  C   UNL     1      43.299 -17.292   5.135  1.00  0.00     0.037 A 
HETATM   25  C   UNL     1      42.269 -16.404   4.811  1.00  0.00     0.011 A 
BRANCH  23  26
HETATM   26  O   UNL     1      44.756 -19.116   4.377  1.00  0.00    -0.356 OA
HETATM   27  C   UNL     1      44.324 -20.384   4.860  1.00  0.00     0.210 C 
ENDBRANCH  23  26
ENDBRANCH  15  20
TORSDOF 2
ENDMDL
MODEL 8
REMARK VINA RESULT:      -8.1      4.563      6.942
REMARK  2 active torsions:
REMARK  status: ('A' for Active; 'I' for Inactive)
REMARK    1  A    between atoms: C_15  and  C_16 
REMARK    2  A    between atoms: C_19  and  O_20 
ROOT
HETATM    1  C   UNL     1      41.690 -10.415   2.339  1.00  0.00     0.048 C 
HETATM    2  C   UNL     1      42.411 -10.688   3.626  1.00  0.00    -0.061 A 
HETATM    3  C   UNL     1      42.008 -10.067   4.822  1.00  0.00     0.021 A 
HETATM    4  C   UNL     1      42.709 -10.325   6.018  1.00  0.00    -0.000 A 
HETATM    5  C   UNL     1      43.794 -11.211   5.976  1.00  0.00     0.043 A 
HETATM    6  N   UNL     1      44.298 -11.312   7.255  1.00  0.00    -0.353 N 
HETATM    7  H   UNL     1      45.071 -11.900   7.538  1.00  0.00     0.166 HD
HETATM    8  C   UNL     1      43.615 -10.469   8.076  1.00  0.00     0.066 A 
HETATM    9  C   UNL     1      42.587  -9.882   7.367  1.00  0.00    -0.017 A 
HETATM   10  C   UNL     1      41.596  -8.966   8.034  1.00  0.00     0.043 C 
HETATM   11  C   UNL     1      41.710  -9.025   9.598  1.00  0.00     0.018 C 
HETATM   12  C   UNL     1      43.189  -8.973  10.028  1.00  0.00     0.065 C 
HETATM   13  C   UNL     1      43.795 -10.234   9.466  1.00  0.00     0.082 C 
HETATM   14  N   UNL     1      44.285 -11.090  10.301  1.00  0.00    -0.203 NA
HETATM   15  C   UNL     1      43.680  -9.135  11.472  1.00  0.00     0.121 C 
HETATM   16  N   UNL     1      44.066 -10.565  11.540  1.00  0.00    -0.207 NA
HETATM   17  C   UNL     1      44.212 -11.841   4.800  1.00  0.00     0.031 A 
HETATM   18  C   UNL     1      43.505 -11.560   3.628  1.00  0.00     0.009 A 
HETATM   19  H   UNL     1      43.328 -11.101  12.005  1.00  0.00     0.149 HD
ENDROOT
BRANCH  15  20
HETATM   20  C   UNL     1      42.907  -8.619  12.666  1.00  0.00    -0.038 A 
HETATM   21  C   UNL     1      43.318  -7.493  13.388  1.00  0.00     0.011 A 
HETATM   22  C   UNL     1      42.669  -7.120  14.573  1.00  0.00     0.037 A 
HETATM   23  C   UNL     1      41.622  -7.885  15.088  1.00  0.00     0.068 A 
HETATM   24  C   UNL     1      41.203  -9.010  14.387  1.00  0.00     0.037 A 
HETATM   25  C   UNL     1      41.844  -9.375  13.199  1.00  0.00     0.011 A 
BRANCH  23  26
HETATM   26  O   UNL     1      41.104  -7.442  16.273  1.00  0.00    -0.356 OA
HETATM   27  C   UNL     1      41.979  -6.681  17.100  1.00  0.00     0.210 C 
ENDBRANCH  23  26
ENDBRANCH  15  20
TORSDOF 2
ENDMDL
MODEL 9
REMARK VINA RESULT:      -8.1      4.431      5.870
REMARK  2 active torsions:
REMARK  status: ('A' for Active; 'I' for Inactive)
REMARK    1  A    between atoms: C_15  and  C_16 
REMARK    2  A    between atoms: C_19  and  O_20 
ROOT
HETATM    1  C   UNL     1      43.841 -20.599   2.121  1.00  0.00     0.048 C 
HETATM    2  C   UNL     1      43.688 -19.270   2.803  1.00  0.00    -0.061 A 
HETATM    3  C   UNL     1      42.948 -18.235   2.203  1.00  0.00     0.021 A 
HETATM    4  C   UNL     1      42.829 -16.989   2.853  1.00  0.00    -0.000 A 
HETATM    5  C   UNL     1      43.455 -16.824   4.096  1.00  0.00     0.043 A 
HETATM    6  N   UNL     1      43.184 -15.545   4.531  1.00  0.00    -0.353 N 
HETATM    7  H   UNL     1      43.484 -15.147   5.411  1.00  0.00     0.166 HD
HETATM    8  C   UNL     1      42.475 -14.885   3.576  1.00  0.00     0.066 A 
HETATM    9  C   UNL     1      42.184 -15.757   2.546  1.00  0.00    -0.017 A 
HETATM   10  C   UNL     1      41.327 -15.338   1.382  1.00  0.00     0.043 C 
HETATM   11  C   UNL     1      40.609 -13.968   1.649  1.00  0.00     0.018 C 
HETATM   12  C   UNL     1      41.601 -12.956   2.256  1.00  0.00     0.065 C 
HETATM   13  C   UNL     1      41.988 -13.549   3.586  1.00  0.00     0.082 C 
HETATM   14  N   UNL     1      41.699 -12.878   4.652  1.00  0.00    -0.203 NA
HETATM   15  C   UNL     1      41.217 -11.559   2.759  1.00  0.00     0.121 C 
HETATM   16  N   UNL     1      41.057 -11.756   4.219  1.00  0.00    -0.207 NA
HETATM   17  C   UNL     1      44.194 -17.838   4.712  1.00  0.00     0.031 A 
HETATM   18  C   UNL     1      44.303 -19.060   4.042  1.00  0.00     0.009 A 
HETATM   19  H   UNL     1      40.063 -11.830   4.451  1.00  0.00     0.149 HD
ENDROOT
BRANCH  15  20
HETATM   20  C   UNL     1      40.147 -10.713   2.102  1.00  0.00    -0.038 A 
HETATM   21  C   UNL     1      38.933 -10.426   2.735  1.00  0.00     0.011 A 
HETATM   22  C   UNL     1      37.903  -9.764   2.053  1.00  0.00     0.037 A 
HETATM   23  C   UNL     1      38.044  -9.411   0.710  1.00  0.00     0.068 A 
HETATM   24  C   UNL     1      39.242  -9.692   0.063  1.00  0.00     0.037 A 
HETATM   25  C   UNL     1      40.273 -10.343   0.748  1.00  0.00     0.011 A 
BRANCH  23  26
HETATM   26  O   UNL     1      36.951  -8.814   0.146  1.00  0.00    -0.356 OA
HETATM   27  C   UNL     1      35.784  -9.621   0.023  1.00  0.00     0.210 C 
ENDBRANCH  23  26
ENDBRANCH  15  20
TORSDOF 2
ENDMDL
MODEL 10
REMARK VINA RESULT:      -8.0      2.754      3.062
REMARK  2 active torsions:
REMARK  status: ('A' for Active; 'I' for Inactive)
REMARK    1  A    between atoms: C_15  and  C_16 
REMARK    2  A    between atoms: C_19  and  O_20 
ROOT
HETATM    1  C   UNL     1      44.817 -20.593   4.955  1.00  0.00     0.048 C 
HETATM    2  C   UNL     1      44.062 -19.516   4.231  1.00  0.00    -0.061 A 
HETATM    3  C   UNL     1      43.614 -18.370   4.912  1.00  0.00     0.021 A 
HETATM    4  C   UNL     1      42.893 -17.377   4.216  1.00  0.00    -0.000 A 
HETATM    5  C   UNL     1      42.652 -17.565   2.848  1.00  0.00     0.043 A 
HETATM    6  N   UNL     1      41.954 -16.466   2.395  1.00  0.00    -0.353 N 
HETATM    7  H   UNL     1      41.660 -16.309   1.440  1.00  0.00     0.166 HD
HETATM    8  C   UNL     1      41.691 -15.637   3.440  1.00  0.00     0.066 A 
HETATM    9  C   UNL     1      42.302 -16.132   4.575  1.00  0.00    -0.017 A 
HETATM   10  C   UNL     1      42.265 -15.379   5.878  1.00  0.00     0.043 C 
HETATM   11  C   UNL     1      41.741 -13.912   5.689  1.00  0.00     0.018 C 
HETATM   12  C   UNL     1      40.496 -13.903   4.781  1.00  0.00     0.065 C 
HETATM   13  C   UNL     1      40.992 -14.399   3.446  1.00  0.00     0.082 C 
HETATM   14  N   UNL     1      40.900 -13.599   2.435  1.00  0.00    -0.203 NA
HETATM   15  C   UNL     1      39.795 -12.634   4.280  1.00  0.00     0.121 C 
HETATM   16  N   UNL     1      40.362 -12.446   2.924  1.00  0.00    -0.207 NA
HETATM   17  C   UNL     1      43.089 -18.695   2.151  1.00  0.00     0.031 A 
HETATM   18  C   UNL     1      43.792 -19.667   2.866  1.00  0.00     0.009 A 
HETATM   19  H   UNL     1      41.087 -11.724   2.949  1.00  0.00     0.149 HD
ENDROOT
BRANCH  15  20
HETATM   20  C   UNL     1      39.682 -11.375   5.111  1.00  0.00    -0.038 A 
HETATM   21  C   UNL     1      39.381 -11.409   6.478  1.00  0.00     0.011 A 
HETATM   22  C   UNL     1      39.140 -10.228   7.193  1.00  0.00     0.037 A 
HETATM   23  C   UNL     1      39.152  -8.988   6.554  1.00  0.00     0.068 A 
HETATM   24  C   UNL     1      39.444  -8.933   5.195  1.00  0.00     0.037 A 
HETATM   25  C   UNL     1      39.695 -10.112   4.485  1.00  0.00     0.011 A 
BRANCH  23  26
HETATM   26  O   UNL     1      38.855  -7.918   7.351  1.00  0.00    -0.356 OA
HETATM   27  C   UNL     1      39.629  -7.781   8.538  1.00  0.00     0.210 C 
ENDBRANCH  23  26
ENDBRANCH  15  20
TORSDOF 2
ENDMDL
