MODEL 1
REMARK VINA RESULT:      -8.9      0.000      0.000
REMARK  2 active torsions:
REMARK  status: ('A' for Active; 'I' for Inactive)
REMARK    1  A    between atoms: C_6  and  N_7 
REMARK    2  A    between atoms: N_7  and  C_8 
ROOT
HETATM    1  C   UNL     1      42.010 -12.296   5.758  1.00  0.00     0.093 C 
HETATM    2  C   UNL     1      42.214 -13.641   5.133  1.00  0.00     0.125 A 
HETATM    3  N   UNL     1      43.065 -14.473   5.731  1.00  0.00    -0.226 NA
HETATM    4  C   UNL     1      43.202 -15.640   5.085  1.00  0.00     0.114 A 
HETATM    5  C   UNL     1      42.573 -16.027   3.907  1.00  0.00     0.053 A 
HETATM    6  C   UNL     1      41.663 -15.081   3.364  1.00  0.00     0.143 A 
HETATM    7  N   UNL     1      41.527 -13.895   4.008  1.00  0.00    -0.215 NA
HETATM    8  S   UNL     1      44.234 -16.833   5.724  1.00  0.00    -0.073 SA
HETATM    9  C   UNL     1      43.882 -17.901   4.456  1.00  0.00    -0.008 A 
HETATM   10  C   UNL     1      43.016 -17.359   3.520  1.00  0.00    -0.028 A 
HETATM   11  C   UNL     1      42.607 -18.148   2.306  1.00  0.00     0.041 C 
HETATM   12  C   UNL     1      43.477 -19.395   2.084  1.00  0.00     0.005 C 
HETATM   13  C   UNL     1      43.744 -20.147   3.392  1.00  0.00     0.005 C 
HETATM   14  C   UNL     1      44.501 -19.263   4.391  1.00  0.00     0.047 C 
ENDROOT
BRANCH   6  15
HETATM   15  N   UNL     1      40.927 -15.332   2.195  1.00  0.00    -0.340 N 
HETATM   16  H   UNL     1      40.398 -16.186   2.224  1.00  0.00     0.167 HD
BRANCH  15  17
HETATM   17  C   UNL     1      40.664 -14.556   1.049  1.00  0.00     0.036 A 
HETATM   18  C   UNL     1      39.850 -15.114   0.045  1.00  0.00     0.069 A 
HETATM   19  C   UNL     1      39.600 -14.382  -1.097  1.00  0.00     0.107 A 
HETATM   20  C   UNL     1      40.128 -13.130  -1.285  1.00  0.00     0.105 A 
HETATM   21  O   UNL     1      38.830 -14.784  -2.145  1.00  0.00    -0.323 OA
HETATM   22  O   UNL     1      39.759 -12.581  -2.472  1.00  0.00    -0.323 OA
HETATM   23  C   UNL     1      40.940 -12.548  -0.342  1.00  0.00     0.042 A 
HETATM   24  C   UNL     1      38.937 -13.635  -3.013  1.00  0.00     0.352 A 
HETATM   25  C   UNL     1      41.210 -13.274   0.827  1.00  0.00     0.032 A 
ENDBRANCH  15  17
ENDBRANCH   6  15
TORSDOF 2
ENDMDL
MODEL 2
REMARK VINA RESULT:      -8.7      1.438      2.117
REMARK  2 active torsions:
REMARK  status: ('A' for Active; 'I' for Inactive)
REMARK    1  A    between atoms: C_6  and  N_7 
REMARK    2  A    between atoms: N_7  and  C_8 
ROOT
HETATM    1  C   UNL     1      39.449 -11.513   5.099  1.00  0.00     0.093 C 
HETATM    2  C   UNL     1      40.126 -12.762   4.626  1.00  0.00     0.125 A 
HETATM    3  N   UNL     1      41.093 -13.265   5.392  1.00  0.00    -0.226 NA
HETATM    4  C   UNL     1      41.656 -14.366   4.874  1.00  0.00     0.114 A 
HETATM    5  C   UNL     1      41.337 -14.985   3.670  1.00  0.00     0.053 A 
HETATM    6  C   UNL     1      40.274 -14.389   2.942  1.00  0.00     0.143 A 
HETATM    7  N   UNL     1      39.707 -13.270   3.456  1.00  0.00    -0.215 NA
HETATM    8  S   UNL     1      42.895 -15.155   5.733  1.00  0.00    -0.073 SA
HETATM    9  C   UNL     1      43.052 -16.342   4.534  1.00  0.00    -0.008 A 
HETATM   10  C   UNL     1      42.203 -16.137   3.459  1.00  0.00    -0.028 A 
HETATM   11  C   UNL     1      42.217 -17.073   2.282  1.00  0.00     0.041 C 
HETATM   12  C   UNL     1      43.438 -18.007   2.276  1.00  0.00     0.005 C 
HETATM   13  C   UNL     1      43.731 -18.574   3.668  1.00  0.00     0.005 C 
HETATM   14  C   UNL     1      44.048 -17.453   4.665  1.00  0.00     0.047 C 
ENDROOT
BRANCH   6  15
HETATM   15  N   UNL     1      39.814 -14.911   1.722  1.00  0.00    -0.340 N 
HETATM   16  H   UNL     1      39.183 -15.687   1.825  1.00  0.00     0.167 HD
BRANCH  15  17
HETATM   17  C   UNL     1      39.939 -14.472   0.389  1.00  0.00     0.036 A 
HETATM   18  C   UNL     1      40.606 -13.255   0.154  1.00  0.00     0.069 A 
HETATM   19  C   UNL     1      40.718 -12.794  -1.142  1.00  0.00     0.107 A 
HETATM   20  C   UNL     1      40.192 -13.484  -2.204  1.00  0.00     0.105 A 
HETATM   21  O   UNL     1      41.338 -11.645  -1.525  1.00  0.00    -0.323 OA
HETATM   22  O   UNL     1      40.413 -12.862  -3.392  1.00  0.00    -0.323 OA
HETATM   23  C   UNL     1      39.520 -14.669  -2.025  1.00  0.00     0.042 A 
HETATM   24  C   UNL     1      41.139 -11.695  -2.954  1.00  0.00     0.352 A 
HETATM   25  C   UNL     1      39.391 -15.156  -0.716  1.00  0.00     0.032 A 
ENDBRANCH  15  17
ENDBRANCH   6  15
TORSDOF 2
ENDMDL
MODEL 3
REMARK VINA RESULT:      -8.4      1.862      2.434
REMARK  2 active torsions:
REMARK  status: ('A' for Active; 'I' for Inactive)
REMARK    1  A    between atoms: C_6  and  N_7 
REMARK    2  A    between atoms: N_7  and  C_8 
ROOT
HETATM    1  C   UNL     1      38.946 -11.375   5.818  1.00  0.00     0.093 C 
HETATM    2  C   UNL     1      39.705 -12.404   5.038  1.00  0.00     0.125 A 
HETATM    3  N   UNL     1      40.173 -13.458   5.704  1.00  0.00    -0.226 NA
HETATM    4  C   UNL     1      40.859 -14.309   4.927  1.00  0.00     0.114 A 
HETATM    5  C   UNL     1      41.114 -14.184   3.566  1.00  0.00     0.053 A 
HETATM    6  C   UNL     1      40.547 -13.041   2.942  1.00  0.00     0.143 A 
HETATM    7  N   UNL     1      39.860 -12.172   3.725  1.00  0.00    -0.215 NA
HETATM    8  S   UNL     1      41.510 -15.725   5.610  1.00  0.00    -0.073 SA
HETATM    9  C   UNL     1      42.154 -16.218   4.122  1.00  0.00    -0.008 A 
HETATM   10  C   UNL     1      41.920 -15.306   3.105  1.00  0.00    -0.028 A 
HETATM   11  C   UNL     1      42.440 -15.557   1.716  1.00  0.00     0.041 C 
HETATM   12  C   UNL     1      43.474 -16.693   1.662  1.00  0.00     0.005 C 
HETATM   13  C   UNL     1      43.051 -17.893   2.514  1.00  0.00     0.005 C 
HETATM   14  C   UNL     1      42.917 -17.500   3.991  1.00  0.00     0.047 C 
ENDROOT
BRANCH   6  15
HETATM   15  N   UNL     1      40.689 -12.786   1.569  1.00  0.00    -0.340 N 
HETATM   16  H   UNL     1      41.638 -12.616   1.284  1.00  0.00     0.167 HD
BRANCH  15  17
HETATM   17  C   UNL     1      39.792 -12.867   0.486  1.00  0.00     0.036 A 
HETATM   18  C   UNL     1      39.975 -13.904  -0.448  1.00  0.00     0.069 A 
HETATM   19  C   UNL     1      39.123 -13.987  -1.531  1.00  0.00     0.107 A 
HETATM   20  C   UNL     1      38.110 -13.083  -1.726  1.00  0.00     0.105 A 
HETATM   21  O   UNL     1      39.171 -14.933  -2.508  1.00  0.00    -0.323 OA
HETATM   22  O   UNL     1      37.388 -13.343  -2.847  1.00  0.00    -0.323 OA
HETATM   23  C   UNL     1      37.899 -12.045  -0.850  1.00  0.00     0.042 A 
HETATM   24  C   UNL     1      38.066 -14.517  -3.339  1.00  0.00     0.352 A 
HETATM   25  C   UNL     1      38.754 -11.939   0.256  1.00  0.00     0.032 A 
ENDBRANCH  15  17
ENDBRANCH   6  15
TORSDOF 2
ENDMDL
MODEL 4
REMARK VINA RESULT:      -8.3      3.776      6.795
REMARK  2 active torsions:
REMARK  status: ('A' for Active; 'I' for Inactive)
REMARK    1  A    between atoms: C_6  and  N_7 
REMARK    2  A    between atoms: N_7  and  C_8 
ROOT
HETATM    1  C   UNL     1      39.347 -10.887   5.321  1.00  0.00     0.093 C 
HETATM    2  C   UNL     1      39.469 -11.557   3.987  1.00  0.00     0.125 A 
HETATM    3  N   UNL     1      39.432 -10.781   2.905  1.00  0.00    -0.226 NA
HETATM    4  C   UNL     1      39.522 -11.472   1.759  1.00  0.00     0.114 A 
HETATM    5  C   UNL     1      39.635 -12.850   1.616  1.00  0.00     0.053 A 
HETATM    6  C   UNL     1      39.695 -13.586   2.829  1.00  0.00     0.143 A 
HETATM    7  N   UNL     1      39.595 -12.893   3.991  1.00  0.00    -0.215 NA
HETATM    8  S   UNL     1      39.515 -10.636   0.276  1.00  0.00    -0.073 SA
HETATM    9  C   UNL     1      39.658 -12.077  -0.604  1.00  0.00    -0.008 A 
HETATM   10  C   UNL     1      39.674 -13.203   0.204  1.00  0.00    -0.028 A 
HETATM   11  C   UNL     1      39.769 -14.578  -0.399  1.00  0.00     0.041 C 
HETATM   12  C   UNL     1      39.516 -14.584  -1.915  1.00  0.00     0.005 C 
HETATM   13  C   UNL     1      40.227 -13.423  -2.619  1.00  0.00     0.005 C 
HETATM   14  C   UNL     1      39.721 -12.072  -2.101  1.00  0.00     0.047 C 
ENDROOT
BRANCH   6  15
HETATM   15  N   UNL     1      39.837 -14.982   2.856  1.00  0.00    -0.340 N 
HETATM   16  H   UNL     1      39.022 -15.479   2.540  1.00  0.00     0.167 HD
BRANCH  15  17
HETATM   17  C   UNL     1      40.941 -15.824   3.094  1.00  0.00     0.036 A 
HETATM   18  C   UNL     1      41.243 -16.157   4.428  1.00  0.00     0.069 A 
HETATM   19  C   UNL     1      42.336 -16.960   4.685  1.00  0.00     0.107 A 
HETATM   20  C   UNL     1      43.139 -17.435   3.680  1.00  0.00     0.105 A 
HETATM   21  O   UNL     1      42.746 -17.372   5.916  1.00  0.00    -0.323 OA
HETATM   22  O   UNL     1      44.155 -18.207   4.145  1.00  0.00    -0.323 OA
HETATM   23  C   UNL     1      42.895 -17.125   2.363  1.00  0.00     0.042 A 
HETATM   24  C   UNL     1      43.902 -18.162   5.564  1.00  0.00     0.352 A 
HETATM   25  C   UNL     1      41.791 -16.309   2.077  1.00  0.00     0.032 A 
ENDBRANCH  15  17
ENDBRANCH   6  15
TORSDOF 2
ENDMDL
MODEL 5
REMARK VINA RESULT:      -7.9      3.347      6.574
REMARK  2 active torsions:
REMARK  status: ('A' for Active; 'I' for Inactive)
REMARK    1  A    between atoms: C_6  and  N_7 
REMARK    2  A    between atoms: N_7  and  C_8 
ROOT
HETATM    1  C   UNL     1      42.756 -12.086   6.113  1.00  0.00     0.093 C 
HETATM    2  C   UNL     1      42.215 -12.482   4.774  1.00  0.00     0.125 A 
HETATM    3  N   UNL     1      41.271 -11.709   4.240  1.00  0.00    -0.226 NA
HETATM    4  C   UNL     1      40.832 -12.157   3.055  1.00  0.00     0.114 A 
HETATM    5  C   UNL     1      41.250 -13.299   2.382  1.00  0.00     0.053 A 
HETATM    6  C   UNL     1      42.280 -14.040   3.020  1.00  0.00     0.143 A 
HETATM    7  N   UNL     1      42.722 -13.596   4.224  1.00  0.00    -0.215 NA
HETATM    8  S   UNL     1      39.640 -11.276   2.218  1.00  0.00    -0.073 SA
HETATM    9  C   UNL     1      39.636 -12.385   0.937  1.00  0.00    -0.008 A 
HETATM   10  C   UNL     1      40.502 -13.448   1.141  1.00  0.00    -0.028 A 
HETATM   11  C   UNL     1      40.618 -14.549   0.123  1.00  0.00     0.041 C 
HETATM   12  C   UNL     1      39.489 -14.519  -0.919  1.00  0.00     0.005 C 
HETATM   13  C   UNL     1      39.199 -13.096  -1.408  1.00  0.00     0.005 C 
HETATM   14  C   UNL     1      38.743 -12.199  -0.251  1.00  0.00     0.047 C 
ENDROOT
BRANCH   6  15
HETATM   15  N   UNL     1      42.830 -15.202   2.457  1.00  0.00    -0.340 N 
HETATM   16  H   UNL     1      43.086 -15.101   1.490  1.00  0.00     0.167 HD
BRANCH  15  17
HETATM   17  C   UNL     1      43.234 -16.432   3.011  1.00  0.00     0.036 A 
HETATM   18  C   UNL     1      43.056 -17.595   2.238  1.00  0.00     0.069 A 
HETATM   19  C   UNL     1      43.421 -18.815   2.771  1.00  0.00     0.107 A 
HETATM   20  C   UNL     1      43.943 -18.925   4.035  1.00  0.00     0.105 A 
HETATM   21  O   UNL     1      43.317 -20.018   2.145  1.00  0.00    -0.323 OA
HETATM   22  O   UNL     1      44.238 -20.209   4.367  1.00  0.00    -0.323 OA
HETATM   23  C   UNL     1      44.122 -17.821   4.834  1.00  0.00     0.042 A 
HETATM   24  C   UNL     1      43.837 -20.898   3.165  1.00  0.00     0.352 A 
HETATM   25  C   UNL     1      43.756 -16.572   4.314  1.00  0.00     0.032 A 
ENDBRANCH  15  17
ENDBRANCH   6  15
TORSDOF 2
ENDMDL
MODEL 6
REMARK VINA RESULT:      -7.9      3.574      5.960
REMARK  2 active torsions:
REMARK  status: ('A' for Active; 'I' for Inactive)
REMARK    1  A    between atoms: C_6  and  N_7 
REMARK    2  A    between atoms: N_7  and  C_8 
ROOT
HETATM    1  C   UNL     1      39.934 -14.320  -0.345  1.00  0.00     0.093 C 
HETATM    2  C   UNL     1      40.514 -14.696   0.984  1.00  0.00     0.125 A 
HETATM    3  N   UNL     1      41.511 -15.579   0.992  1.00  0.00    -0.226 NA
HETATM    4  C   UNL     1      41.945 -15.871   2.226  1.00  0.00     0.114 A 
HETATM    5  C   UNL     1      41.463 -15.365   3.428  1.00  0.00     0.053 A 
HETATM    6  C   UNL     1      40.419 -14.409   3.311  1.00  0.00     0.143 A 
HETATM    7  N   UNL     1      39.969 -14.116   2.065  1.00  0.00    -0.215 NA
HETATM    8  S   UNL     1      43.234 -16.965   2.422  1.00  0.00    -0.073 SA
HETATM    9  C   UNL     1      43.191 -16.806   4.109  1.00  0.00    -0.008 A 
HETATM   10  C   UNL     1      42.184 -15.959   4.544  1.00  0.00    -0.028 A 
HETATM   11  C   UNL     1      41.972 -15.713   6.013  1.00  0.00     0.041 C 
HETATM   12  C   UNL     1      42.731 -16.711   6.902  1.00  0.00     0.005 C 
HETATM   13  C   UNL     1      44.157 -16.957   6.398  1.00  0.00     0.005 C 
HETATM   14  C   UNL     1      44.146 -17.555   4.986  1.00  0.00     0.047 C 
ENDROOT
BRANCH   6  15
HETATM   15  N   UNL     1      39.843 -13.783   4.428  1.00  0.00    -0.340 N 
HETATM   16  H   UNL     1      39.088 -14.304   4.839  1.00  0.00     0.167 HD
BRANCH  15  17
HETATM   17  C   UNL     1      40.208 -12.648   5.179  1.00  0.00     0.036 A 
HETATM   18  C   UNL     1      39.228 -12.056   5.999  1.00  0.00     0.069 A 
HETATM   19  C   UNL     1      39.556 -10.929   6.724  1.00  0.00     0.107 A 
HETATM   20  C   UNL     1      40.805 -10.365   6.661  1.00  0.00     0.105 A 
HETATM   21  O   UNL     1      38.723 -10.253   7.561  1.00  0.00    -0.323 OA
HETATM   22  O   UNL     1      40.921  -9.266   7.451  1.00  0.00    -0.323 OA
HETATM   23  C   UNL     1      41.790 -10.897   5.864  1.00  0.00     0.042 A 
HETATM   24  C   UNL     1      39.597  -9.199   8.018  1.00  0.00     0.352 A 
HETATM   25  C   UNL     1      41.480 -12.042   5.117  1.00  0.00     0.032 A 
ENDBRANCH  15  17
ENDBRANCH   6  15
TORSDOF 2
ENDMDL
MODEL 7
REMARK VINA RESULT:      -7.9     14.509     16.556
REMARK  2 active torsions:
REMARK  status: ('A' for Active; 'I' for Inactive)
REMARK    1  A    between atoms: C_6  and  N_7 
REMARK    2  A    between atoms: N_7  and  C_8 
ROOT
HETATM    1  C   UNL     1      52.458 -31.433  -1.864  1.00  0.00     0.093 C 
HETATM    2  C   UNL     1      51.429 -31.123  -0.821  1.00  0.00     0.125 A 
HETATM    3  N   UNL     1      51.458 -31.838   0.302  1.00  0.00    -0.226 NA
HETATM    4  C   UNL     1      50.485 -31.506   1.163  1.00  0.00     0.114 A 
HETATM    5  C   UNL     1      49.501 -30.541   0.985  1.00  0.00     0.053 A 
HETATM    6  C   UNL     1      49.573 -29.813  -0.232  1.00  0.00     0.143 A 
HETATM    7  N   UNL     1      50.550 -30.151  -1.111  1.00  0.00    -0.215 NA
HETATM    8  S   UNL     1      50.387 -32.305   2.662  1.00  0.00    -0.073 SA
HETATM    9  C   UNL     1      49.032 -31.397   3.124  1.00  0.00    -0.008 A 
HETATM   10  C   UNL     1      48.617 -30.512   2.142  1.00  0.00    -0.028 A 
HETATM   11  C   UNL     1      47.412 -29.638   2.359  1.00  0.00     0.041 C 
HETATM   12  C   UNL     1      46.571 -30.070   3.570  1.00  0.00     0.005 C 
HETATM   13  C   UNL     1      47.446 -30.425   4.777  1.00  0.00     0.005 C 
HETATM   14  C   UNL     1      48.376 -31.600   4.455  1.00  0.00     0.047 C 
ENDROOT
BRANCH   6  15
HETATM   15  N   UNL     1      48.670 -28.786  -0.550  1.00  0.00    -0.340 N 
HETATM   16  H   UNL     1      49.026 -27.864  -0.370  1.00  0.00     0.167 HD
BRANCH  15  17
HETATM   17  C   UNL     1      47.424 -28.781  -1.207  1.00  0.00     0.036 A 
HETATM   18  C   UNL     1      47.292 -29.546  -2.381  1.00  0.00     0.069 A 
HETATM   19  C   UNL     1      46.089 -29.535  -3.055  1.00  0.00     0.107 A 
HETATM   20  C   UNL     1      45.021 -28.793  -2.618  1.00  0.00     0.105 A 
HETATM   21  O   UNL     1      45.809 -30.226  -4.193  1.00  0.00    -0.323 OA
HETATM   22  O   UNL     1      43.932 -28.923  -3.421  1.00  0.00    -0.323 OA
HETATM   23  C   UNL     1      45.104 -28.018  -1.486  1.00  0.00     0.042 A 
HETATM   24  C   UNL     1      44.439 -29.832  -4.419  1.00  0.00     0.352 A 
HETATM   25  C   UNL     1      46.319 -28.012  -0.785  1.00  0.00     0.032 A 
ENDBRANCH  15  17
ENDBRANCH   6  15
TORSDOF 2
ENDMDL
MODEL 8
REMARK VINA RESULT:      -7.7     14.173     15.373
REMARK  2 active torsions:
REMARK  status: ('A' for Active; 'I' for Inactive)
REMARK    1  A    between atoms: C_6  and  N_7 
REMARK    2  A    between atoms: N_7  and  C_8 
ROOT
HETATM    1  C   UNL     1      40.684 -31.840   2.612  1.00  0.00     0.093 C 
HETATM    2  C   UNL     1      42.074 -31.284   2.589  1.00  0.00     0.125 A 
HETATM    3  N   UNL     1      42.939 -31.755   3.486  1.00  0.00    -0.226 NA
HETATM    4  C   UNL     1      44.147 -31.179   3.405  1.00  0.00     0.114 A 
HETATM    5  C   UNL     1      44.544 -30.182   2.520  1.00  0.00     0.053 A 
HETATM    6  C   UNL     1      43.558 -29.768   1.586  1.00  0.00     0.143 A 
HETATM    7  N   UNL     1      42.332 -30.341   1.669  1.00  0.00    -0.215 NA
HETATM    8  S   UNL     1      45.384 -31.678   4.461  1.00  0.00    -0.073 SA
HETATM    9  C   UNL     1      46.487 -30.586   3.782  1.00  0.00    -0.008 A 
HETATM   10  C   UNL     1      45.927 -29.808   2.781  1.00  0.00    -0.028 A 
HETATM   11  C   UNL     1      46.745 -28.760   2.076  1.00  0.00     0.041 C 
HETATM   12  C   UNL     1      48.071 -28.456   2.793  1.00  0.00     0.005 C 
HETATM   13  C   UNL     1      48.769 -29.733   3.271  1.00  0.00     0.005 C 
HETATM   14  C   UNL     1      47.897 -30.493   4.278  1.00  0.00     0.047 C 
ENDROOT
BRANCH   6  15
HETATM   15  N   UNL     1      43.811 -28.792   0.609  1.00  0.00    -0.340 N 
HETATM   16  H   UNL     1      43.785 -27.850   0.961  1.00  0.00     0.167 HD
BRANCH  15  17
HETATM   17  C   UNL     1      44.240 -28.871  -0.730  1.00  0.00     0.036 A 
HETATM   18  C   UNL     1      43.920 -30.031  -1.459  1.00  0.00     0.069 A 
HETATM   19  C   UNL     1      44.352 -30.141  -2.765  1.00  0.00     0.107 A 
HETATM   20  C   UNL     1      45.091 -29.156  -3.369  1.00  0.00     0.105 A 
HETATM   21  O   UNL     1      44.114 -31.194  -3.595  1.00  0.00    -0.323 OA
HETATM   22  O   UNL     1      45.412 -29.458  -4.654  1.00  0.00    -0.323 OA
HETATM   23  C   UNL     1      45.442 -28.011  -2.694  1.00  0.00     0.042 A 
HETATM   24  C   UNL     1      44.791 -30.752  -4.791  1.00  0.00     0.352 A 
HETATM   25  C   UNL     1      45.016 -27.878  -1.365  1.00  0.00     0.032 A 
ENDBRANCH  15  17
ENDBRANCH   6  15
TORSDOF 2
ENDMDL
MODEL 9
REMARK VINA RESULT:      -7.5     14.589     15.963
REMARK  2 active torsions:
REMARK  status: ('A' for Active; 'I' for Inactive)
REMARK    1  A    between atoms: C_6  and  N_7 
REMARK    2  A    between atoms: N_7  and  C_8 
ROOT
HETATM    1  C   UNL     1      47.601 -30.697   4.947  1.00  0.00     0.093 C 
HETATM    2  C   UNL     1      47.090 -30.276   3.604  1.00  0.00     0.125 A 
HETATM    3  N   UNL     1      47.970 -30.201   2.608  1.00  0.00    -0.226 NA
HETATM    4  C   UNL     1      47.424 -29.792   1.453  1.00  0.00     0.114 A 
HETATM    5  C   UNL     1      46.095 -29.451   1.227  1.00  0.00     0.053 A 
HETATM    6  C   UNL     1      45.232 -29.592   2.345  1.00  0.00     0.143 A 
HETATM    7  N   UNL     1      45.779 -29.997   3.518  1.00  0.00    -0.215 NA
HETATM    8  S   UNL     1      48.402 -29.662   0.066  1.00  0.00    -0.073 SA
HETATM    9  C   UNL     1      47.094 -29.145  -0.879  1.00  0.00    -0.008 A 
HETATM   10  C   UNL     1      45.918 -29.028  -0.155  1.00  0.00    -0.028 A 
HETATM   11  C   UNL     1      44.653 -28.556  -0.818  1.00  0.00     0.041 C 
HETATM   12  C   UNL     1      44.900 -27.941  -2.205  1.00  0.00     0.005 C 
HETATM   13  C   UNL     1      45.896 -28.765  -3.028  1.00  0.00     0.005 C 
HETATM   14  C   UNL     1      47.262 -28.830  -2.334  1.00  0.00     0.047 C 
ENDROOT
BRANCH   6  15
HETATM   15  N   UNL     1      43.857 -29.314   2.273  1.00  0.00    -0.340 N 
HETATM   16  H   UNL     1      43.647 -28.383   1.957  1.00  0.00     0.167 HD
BRANCH  15  17
HETATM   17  C   UNL     1      42.712 -30.124   2.410  1.00  0.00     0.036 A 
HETATM   18  C   UNL     1      42.181 -30.304   3.701  1.00  0.00     0.069 A 
HETATM   19  C   UNL     1      41.075 -31.113   3.862  1.00  0.00     0.107 A 
HETATM   20  C   UNL     1      40.485 -31.752   2.801  1.00  0.00     0.105 A 
HETATM   21  O   UNL     1      40.447 -31.375   5.041  1.00  0.00    -0.323 OA
HETATM   22  O   UNL     1      39.410 -32.496   3.173  1.00  0.00    -0.323 OA
HETATM   23  C   UNL     1      40.975 -31.620   1.524  1.00  0.00     0.042 A 
HETATM   24  C   UNL     1      39.392 -32.254   4.595  1.00  0.00     0.352 A 
HETATM   25  C   UNL     1      42.100 -30.804   1.337  1.00  0.00     0.032 A 
ENDBRANCH  15  17
ENDBRANCH   6  15
TORSDOF 2
ENDMDL
MODEL 10
REMARK VINA RESULT:      -7.4      4.509      7.667
REMARK  2 active torsions:
REMARK  status: ('A' for Active; 'I' for Inactive)
REMARK    1  A    between atoms: C_6  and  N_7 
REMARK    2  A    between atoms: N_7  and  C_8 
ROOT
HETATM    1  C   UNL     1      43.906 -16.823   7.256  1.00  0.00     0.093 C 
HETATM    2  C   UNL     1      43.350 -15.998   6.137  1.00  0.00     0.125 A 
HETATM    3  N   UNL     1      42.665 -16.632   5.187  1.00  0.00    -0.226 NA
HETATM    4  C   UNL     1      42.231 -15.815   4.216  1.00  0.00     0.114 A 
HETATM    5  C   UNL     1      42.433 -14.443   4.121  1.00  0.00     0.053 A 
HETATM    6  C   UNL     1      43.150 -13.857   5.198  1.00  0.00     0.143 A 
HETATM    7  N   UNL     1      43.599 -14.680   6.178  1.00  0.00    -0.215 NA
HETATM    8  S   UNL     1      41.316 -16.455   2.932  1.00  0.00    -0.073 SA
HETATM    9  C   UNL     1      41.161 -14.932   2.206  1.00  0.00    -0.008 A 
HETATM   10  C   UNL     1      41.826 -13.934   2.899  1.00  0.00    -0.028 A 
HETATM   11  C   UNL     1      41.825 -12.517   2.394  1.00  0.00     0.041 C 
HETATM   12  C   UNL     1      41.324 -12.401   0.945  1.00  0.00     0.005 C 
HETATM   13  C   UNL     1      40.086 -13.269   0.696  1.00  0.00     0.005 C 
HETATM   14  C   UNL     1      40.399 -14.753   0.928  1.00  0.00     0.047 C 
ENDROOT
BRANCH   6  15
HETATM   15  N   UNL     1      43.412 -12.479   5.265  1.00  0.00    -0.340 N 
HETATM   16  H   UNL     1      42.978 -11.948   4.530  1.00  0.00     0.167 HD
BRANCH  15  17
HETATM   17  C   UNL     1      44.036 -11.673   6.237  1.00  0.00     0.036 A 
HETATM   18  C   UNL     1      43.217 -10.878   7.062  1.00  0.00     0.069 A 
HETATM   19  C   UNL     1      43.808 -10.061   8.004  1.00  0.00     0.107 A 
HETATM   20  C   UNL     1      45.170  -9.996   8.153  1.00  0.00     0.105 A 
HETATM   21  O   UNL     1      43.151  -9.247   8.873  1.00  0.00    -0.323 OA
HETATM   22  O   UNL     1      45.547  -9.136   9.135  1.00  0.00    -0.323 OA
HETATM   23  C   UNL     1      46.013 -10.741   7.363  1.00  0.00     0.042 A 
HETATM   24  C   UNL     1      44.262  -8.663   9.587  1.00  0.00     0.352 A 
HETATM   25  C   UNL     1      45.434 -11.577   6.396  1.00  0.00     0.032 A 
ENDBRANCH  15  17
ENDBRANCH   6  15
TORSDOF 2
ENDMDL
