MODEL 1
REMARK VINA RESULT:      -8.8      0.000      0.000
REMARK  3 active torsions:
REMARK  status: ('A' for Active; 'I' for Inactive)
REMARK    1  A    between atoms: C_5  and  C_6 
REMARK       I    between atoms: C_6  and  N_7 
REMARK    2  A    between atoms: N_7  and  C_8 
REMARK    3  A    between atoms: C_15  and  C_16 
REMARK       I    between atoms: C_16  and  N_17 
ROOT
HETATM    1  C   UNL     1      42.692 -15.574   2.142  1.00  0.00     0.035 A 
HETATM    2  C   UNL     1      42.863 -15.116   3.459  1.00  0.00     0.046 A 
HETATM    3  C   UNL     1      43.293 -16.009   4.462  1.00  0.00     0.030 A 
HETATM    4  C   UNL     1      43.539 -17.330   4.119  1.00  0.00     0.063 A 
HETATM    5  N   UNL     1      43.929 -17.940   5.279  1.00  0.00    -0.277 N 
HETATM    6  H   UNL     1      44.185 -18.913   5.403  1.00  0.00     0.189 HD
HETATM    7  N   UNL     1      43.966 -17.128   6.348  1.00  0.00    -0.168 NA
HETATM    8  C   UNL     1      43.576 -15.929   5.857  1.00  0.00     0.156 A 
HETATM    9  C   UNL     1      43.384 -17.819   2.821  1.00  0.00     0.034 A 
HETATM   10  C   UNL     1      42.958 -16.912   1.840  1.00  0.00     0.032 A 
ENDROOT
BRANCH   1  11
HETATM   11  N   UNL     1      42.252 -14.626   1.194  1.00  0.00    -0.326 N 
HETATM   12  C   UNL     1      40.949 -14.377   0.771  1.00  0.00     0.240 C 
HETATM   13  O   UNL     1      39.954 -14.983   1.160  1.00  0.00    -0.272 OA
HETATM   14  H   UNL     1      42.958 -13.985   0.844  1.00  0.00     0.169 HD
BRANCH  12  15
HETATM   15  C   UNL     1      40.880 -13.254  -0.295  1.00  0.00     0.172 C 
HETATM   16  C   UNL     1      39.696 -13.393  -1.241  1.00  0.00    -0.029 A 
HETATM   17  C   UNL     1      38.486 -12.683  -1.091  1.00  0.00    -0.050 A 
HETATM   18  C   UNL     1      39.809 -14.322  -2.297  1.00  0.00     0.009 A 
HETATM   19  C   UNL     1      37.440 -12.906  -2.006  1.00  0.00     0.007 A 
HETATM   20  C   UNL     1      38.268 -11.624  -0.033  1.00  0.00     0.049 C 
HETATM   21  C   UNL     1      37.574 -13.827  -3.044  1.00  0.00     0.001 A 
HETATM   22  C   UNL     1      38.759 -14.536  -3.190  1.00  0.00     0.001 A 
HETATM   23  C   UNL     1      39.239 -11.631   1.140  1.00  0.00     0.080 C 
HETATM   24  S   UNL     1      40.949 -11.622   0.540  1.00  0.00    -0.149 SA
ENDBRANCH  12  15
ENDBRANCH   1  11
BRANCH   8  25
HETATM   25  C   UNL     1      43.484 -14.741   6.717  1.00  0.00     0.270 C 
HETATM   26  N   UNL     1      42.824 -14.955   7.896  1.00  0.00    -0.365 N 
HETATM   27  H   UNL     1      42.463 -15.882   8.089  1.00  0.00     0.159 HD
HETATM   28  H   UNL     1      42.714 -14.200   8.554  1.00  0.00     0.159 HD
HETATM   29  O   UNL     1      43.948 -13.642   6.433  1.00  0.00    -0.266 OA
ENDBRANCH   8  25
TORSDOF 3
ENDMDL
MODEL 2
REMARK VINA RESULT:      -8.5      3.042      8.104
REMARK  3 active torsions:
REMARK  status: ('A' for Active; 'I' for Inactive)
REMARK    1  A    between atoms: C_5  and  C_6 
REMARK       I    between atoms: C_6  and  N_7 
REMARK    2  A    between atoms: N_7  and  C_8 
REMARK    3  A    between atoms: C_15  and  C_16 
REMARK       I    between atoms: C_16  and  N_17 
ROOT
HETATM    1  C   UNL     1      41.291 -12.780   1.665  1.00  0.00     0.035 A 
HETATM    2  C   UNL     1      40.919 -12.924   0.318  1.00  0.00     0.046 A 
HETATM    3  C   UNL     1      40.928 -11.802  -0.537  1.00  0.00     0.030 A 
HETATM    4  C   UNL     1      41.308 -10.572  -0.019  1.00  0.00     0.063 A 
HETATM    5  N   UNL     1      41.214  -9.695  -1.064  1.00  0.00    -0.277 N 
HETATM    6  H   UNL     1      41.414  -8.701  -1.048  1.00  0.00     0.189 HD
HETATM    7  N   UNL     1      40.813 -10.248  -2.221  1.00  0.00    -0.168 NA
HETATM    8  C   UNL     1      40.633 -11.552  -1.909  1.00  0.00     0.156 A 
HETATM    9  C   UNL     1      41.687 -10.393   1.311  1.00  0.00     0.034 A 
HETATM   10  C   UNL     1      41.674 -11.523   2.141  1.00  0.00     0.032 A 
ENDROOT
BRANCH   1  11
HETATM   11  N   UNL     1      41.250 -13.943   2.461  1.00  0.00    -0.326 N 
HETATM   12  C   UNL     1      42.289 -14.824   2.746  1.00  0.00     0.240 C 
HETATM   13  O   UNL     1      43.435 -14.726   2.315  1.00  0.00    -0.272 OA
HETATM   14  H   UNL     1      40.381 -14.112   2.959  1.00  0.00     0.169 HD
BRANCH  12  15
HETATM   15  C   UNL     1      41.837 -15.994   3.658  1.00  0.00     0.172 C 
HETATM   16  C   UNL     1      42.708 -17.235   3.523  1.00  0.00    -0.029 A 
HETATM   17  C   UNL     1      43.751 -17.560   4.415  1.00  0.00    -0.050 A 
HETATM   18  C   UNL     1      42.479 -18.075   2.414  1.00  0.00     0.009 A 
HETATM   19  C   UNL     1      44.517 -18.718   4.184  1.00  0.00     0.007 A 
HETATM   20  C   UNL     1      44.055 -16.766   5.667  1.00  0.00     0.049 C 
HETATM   21  C   UNL     1      44.273 -19.536   3.083  1.00  0.00     0.001 A 
HETATM   22  C   UNL     1      43.254 -19.215   2.196  1.00  0.00     0.001 A 
HETATM   23  C   UNL     1      43.477 -15.359   5.731  1.00  0.00     0.080 C 
HETATM   24  S   UNL     1      41.698 -15.394   5.387  1.00  0.00    -0.149 SA
ENDBRANCH  12  15
ENDBRANCH   1  11
BRANCH   8  25
HETATM   25  C   UNL     1      40.190 -12.527  -2.915  1.00  0.00     0.270 C 
HETATM   26  N   UNL     1      38.882 -12.388  -3.290  1.00  0.00    -0.365 N 
HETATM   27  H   UNL     1      38.332 -11.649  -2.867  1.00  0.00     0.159 HD
HETATM   28  H   UNL     1      38.488 -13.008  -3.979  1.00  0.00     0.159 HD
HETATM   29  O   UNL     1      40.905 -13.399  -3.398  1.00  0.00    -0.266 OA
ENDBRANCH   8  25
TORSDOF 3
ENDMDL
MODEL 3
REMARK VINA RESULT:      -8.4      1.919      3.153
REMARK  3 active torsions:
REMARK  status: ('A' for Active; 'I' for Inactive)
REMARK    1  A    between atoms: C_5  and  C_6 
REMARK       I    between atoms: C_6  and  N_7 
REMARK    2  A    between atoms: N_7  and  C_8 
REMARK    3  A    between atoms: C_15  and  C_16 
REMARK       I    between atoms: C_16  and  N_17 
ROOT
HETATM    1  C   UNL     1      42.822 -15.510   2.731  1.00  0.00     0.035 A 
HETATM    2  C   UNL     1      42.964 -16.850   2.333  1.00  0.00     0.046 A 
HETATM    3  C   UNL     1      43.359 -17.823   3.274  1.00  0.00     0.030 A 
HETATM    4  C   UNL     1      43.600 -17.428   4.581  1.00  0.00     0.063 A 
HETATM    5  N   UNL     1      43.963 -18.568   5.243  1.00  0.00    -0.277 N 
HETATM    6  H   UNL     1      44.216 -18.654   6.222  1.00  0.00     0.189 HD
HETATM    7  N   UNL     1      43.972 -19.675   4.481  1.00  0.00    -0.168 NA
HETATM    8  C   UNL     1      43.600 -19.229   3.260  1.00  0.00     0.156 A 
HETATM    9  C   UNL     1      43.465 -16.109   5.013  1.00  0.00     0.034 A 
HETATM   10  C   UNL     1      43.068 -15.159   4.061  1.00  0.00     0.032 A 
ENDROOT
BRANCH   1  11
HETATM   11  N   UNL     1      42.432 -14.592   1.734  1.00  0.00    -0.326 N 
HETATM   12  C   UNL     1      41.151 -14.349   1.245  1.00  0.00     0.240 C 
HETATM   13  O   UNL     1      40.135 -14.936   1.609  1.00  0.00    -0.272 OA
HETATM   14  H   UNL     1      43.157 -13.968   1.394  1.00  0.00     0.169 HD
BRANCH  12  15
HETATM   15  C   UNL     1      41.138 -13.262   0.140  1.00  0.00     0.172 C 
HETATM   16  C   UNL     1      39.976 -13.405  -0.833  1.00  0.00    -0.029 A 
HETATM   17  C   UNL     1      38.781 -12.661  -0.740  1.00  0.00    -0.050 A 
HETATM   18  C   UNL     1      40.093 -14.372  -1.853  1.00  0.00     0.009 A 
HETATM   19  C   UNL     1      37.754 -12.890  -1.674  1.00  0.00     0.007 A 
HETATM   20  C   UNL     1      38.561 -11.561   0.276  1.00  0.00     0.049 C 
HETATM   21  C   UNL     1      37.891 -13.849  -2.676  1.00  0.00     0.001 A 
HETATM   22  C   UNL     1      39.061 -14.592  -2.766  1.00  0.00     0.001 A 
HETATM   23  C   UNL     1      39.500 -11.552   1.474  1.00  0.00     0.080 C 
HETATM   24  S   UNL     1      41.225 -11.604   0.921  1.00  0.00    -0.149 SA
ENDBRANCH  12  15
ENDBRANCH   1  11
BRANCH   8  25
HETATM   25  C   UNL     1      43.478 -20.140   2.114  1.00  0.00     0.270 C 
HETATM   26  N   UNL     1      42.203 -20.268   1.636  1.00  0.00    -0.365 N 
HETATM   27  H   UNL     1      41.461 -19.744   2.085  1.00  0.00     0.159 HD
HETATM   28  H   UNL     1      42.020 -20.868   0.847  1.00  0.00     0.159 HD
HETATM   29  O   UNL     1      44.416 -20.746   1.607  1.00  0.00    -0.266 OA
ENDBRANCH   8  25
TORSDOF 3
ENDMDL
MODEL 4
REMARK VINA RESULT:      -8.3      3.216      7.703
REMARK  3 active torsions:
REMARK  status: ('A' for Active; 'I' for Inactive)
REMARK    1  A    between atoms: C_5  and  C_6 
REMARK       I    between atoms: C_6  and  N_7 
REMARK    2  A    between atoms: N_7  and  C_8 
REMARK    3  A    between atoms: C_15  and  C_16 
REMARK       I    between atoms: C_16  and  N_17 
ROOT
HETATM    1  C   UNL     1      40.376 -14.035  -0.275  1.00  0.00     0.035 A 
HETATM    2  C   UNL     1      40.876 -12.728  -0.151  1.00  0.00     0.046 A 
HETATM    3  C   UNL     1      40.836 -11.853  -1.256  1.00  0.00     0.030 A 
HETATM    4  C   UNL     1      40.300 -12.311  -2.450  1.00  0.00     0.063 A 
HETATM    5  N   UNL     1      40.402 -11.261  -3.320  1.00  0.00    -0.277 N 
HETATM    6  H   UNL     1      40.111 -11.240  -4.291  1.00  0.00     0.189 HD
HETATM    7  N   UNL     1      40.952 -10.154  -2.793  1.00  0.00    -0.168 NA
HETATM    8  C   UNL     1      41.225 -10.506  -1.516  1.00  0.00     0.156 A 
HETATM    9  C   UNL     1      39.791 -13.601  -2.609  1.00  0.00     0.034 A 
HETATM   10  C   UNL     1      39.838 -14.451  -1.495  1.00  0.00     0.032 A 
ENDROOT
BRANCH   1  11
HETATM   11  N   UNL     1      40.456 -14.855   0.870  1.00  0.00    -0.326 N 
HETATM   12  C   UNL     1      41.598 -15.283   1.540  1.00  0.00     0.240 C 
HETATM   13  O   UNL     1      42.751 -15.017   1.210  1.00  0.00    -0.272 OA
HETATM   14  H   UNL     1      39.573 -15.088   1.314  1.00  0.00     0.169 HD
BRANCH  12  15
HETATM   15  C   UNL     1      41.265 -16.183   2.758  1.00  0.00     0.172 C 
HETATM   16  C   UNL     1      42.404 -17.114   3.149  1.00  0.00    -0.029 A 
HETATM   17  C   UNL     1      43.314 -16.842   4.192  1.00  0.00    -0.050 A 
HETATM   18  C   UNL     1      42.577 -18.289   2.389  1.00  0.00     0.009 A 
HETATM   19  C   UNL     1      44.351 -17.756   4.455  1.00  0.00     0.007 A 
HETATM   20  C   UNL     1      43.197 -15.644   5.109  1.00  0.00     0.049 C 
HETATM   21  C   UNL     1      44.503 -18.913   3.693  1.00  0.00     0.001 A 
HETATM   22  C   UNL     1      43.616 -19.180   2.658  1.00  0.00     0.001 A 
HETATM   23  C   UNL     1      42.313 -14.504   4.620  1.00  0.00     0.080 C 
HETATM   24  S   UNL     1      40.682 -15.133   4.145  1.00  0.00    -0.149 SA
ENDBRANCH  12  15
ENDBRANCH   1  11
BRANCH   8  25
HETATM   25  C   UNL     1      41.842  -9.562  -0.575  1.00  0.00     0.270 C 
HETATM   26  N   UNL     1      41.181  -9.448   0.617  1.00  0.00    -0.365 N 
HETATM   27  H   UNL     1      40.346 -10.004   0.763  1.00  0.00     0.159 HD
HETATM   28  H   UNL     1      41.531  -8.828   1.330  1.00  0.00     0.159 HD
HETATM   29  O   UNL     1      42.861  -8.919  -0.805  1.00  0.00    -0.266 OA
ENDBRANCH   8  25
TORSDOF 3
ENDMDL
MODEL 5
REMARK VINA RESULT:      -8.2      4.639      6.983
REMARK  3 active torsions:
REMARK  status: ('A' for Active; 'I' for Inactive)
REMARK    1  A    between atoms: C_5  and  C_6 
REMARK       I    between atoms: C_6  and  N_7 
REMARK    2  A    between atoms: N_7  and  C_8 
REMARK    3  A    between atoms: C_15  and  C_16 
REMARK       I    between atoms: C_16  and  N_17 
ROOT
HETATM    1  C   UNL     1      43.915 -11.350   6.800  1.00  0.00     0.035 A 
HETATM    2  C   UNL     1      43.321 -11.004   8.025  1.00  0.00     0.046 A 
HETATM    3  C   UNL     1      44.102 -10.416   9.042  1.00  0.00     0.030 A 
HETATM    4  C   UNL     1      45.450 -10.193   8.804  1.00  0.00     0.063 A 
HETATM    5  N   UNL     1      45.933  -9.629   9.951  1.00  0.00    -0.277 N 
HETATM    6  H   UNL     1      46.886  -9.337  10.136  1.00  0.00     0.189 HD
HETATM    7  N   UNL     1      45.013  -9.457  10.916  1.00  0.00    -0.168 NA
HETATM    8  C   UNL     1      43.875  -9.939  10.367  1.00  0.00     0.156 A 
HETATM    9  C   UNL     1      46.072 -10.521   7.599  1.00  0.00     0.034 A 
HETATM   10  C   UNL     1      45.276 -11.101   6.601  1.00  0.00     0.032 A 
ENDROOT
BRANCH   1  11
HETATM   11  N   UNL     1      43.074 -11.941   5.834  1.00  0.00    -0.326 N 
HETATM   12  C   UNL     1      42.998 -13.282   5.468  1.00  0.00     0.240 C 
HETATM   13  O   UNL     1      43.691 -14.181   5.936  1.00  0.00    -0.272 OA
HETATM   14  H   UNL     1      42.377 -11.332   5.418  1.00  0.00     0.169 HD
BRANCH  12  15
HETATM   15  C   UNL     1      41.947 -13.531   4.356  1.00  0.00     0.172 C 
HETATM   16  C   UNL     1      42.267 -14.735   3.482  1.00  0.00    -0.029 A 
HETATM   17  C   UNL     1      41.691 -16.010   3.663  1.00  0.00    -0.050 A 
HETATM   18  C   UNL     1      43.231 -14.566   2.466  1.00  0.00     0.009 A 
HETATM   19  C   UNL     1      42.078 -17.065   2.817  1.00  0.00     0.007 A 
HETATM   20  C   UNL     1      40.609 -16.298   4.681  1.00  0.00     0.049 C 
HETATM   21  C   UNL     1      43.031 -16.876   1.817  1.00  0.00     0.001 A 
HETATM   22  C   UNL     1      43.609 -15.626   1.642  1.00  0.00     0.001 A 
HETATM   23  C   UNL     1      40.446 -15.278   5.799  1.00  0.00     0.080 C 
HETATM   24  S   UNL     1      40.275 -13.611   5.110  1.00  0.00    -0.149 SA
ENDBRANCH  12  15
ENDBRANCH   1  11
BRANCH   8  25
HETATM   25  C   UNL     1      42.605  -9.934  11.104  1.00  0.00     0.270 C 
HETATM   26  N   UNL     1      42.596 -10.743  12.208  1.00  0.00    -0.365 N 
HETATM   27  H   UNL     1      43.435 -11.265  12.432  1.00  0.00     0.159 HD
HETATM   28  H   UNL     1      41.771 -10.802  12.781  1.00  0.00     0.159 HD
HETATM   29  O   UNL     1      41.621  -9.273  10.787  1.00  0.00    -0.266 OA
ENDBRANCH   8  25
TORSDOF 3
ENDMDL
MODEL 6
REMARK VINA RESULT:      -8.1      4.526      7.674
REMARK  3 active torsions:
REMARK  status: ('A' for Active; 'I' for Inactive)
REMARK    1  A    between atoms: C_5  and  C_6 
REMARK       I    between atoms: C_6  and  N_7 
REMARK    2  A    between atoms: N_7  and  C_8 
REMARK    3  A    between atoms: C_15  and  C_16 
REMARK       I    between atoms: C_16  and  N_17 
ROOT
HETATM    1  C   UNL     1      44.090 -12.066   7.125  1.00  0.00     0.035 A 
HETATM    2  C   UNL     1      43.384 -11.000   7.710  1.00  0.00     0.046 A 
HETATM    3  C   UNL     1      44.058  -9.803   8.027  1.00  0.00     0.030 A 
HETATM    4  C   UNL     1      45.414  -9.707   7.751  1.00  0.00     0.063 A 
HETATM    5  N   UNL     1      45.781  -8.457   8.166  1.00  0.00    -0.277 N 
HETATM    6  H   UNL     1      46.706  -8.044   8.121  1.00  0.00     0.189 HD
HETATM    7  N   UNL     1      44.779  -7.726   8.681  1.00  0.00    -0.168 NA
HETATM    8  C   UNL     1      43.707  -8.546   8.601  1.00  0.00     0.156 A 
HETATM    9  C   UNL     1      46.146 -10.742   7.168  1.00  0.00     0.034 A 
HETATM   10  C   UNL     1      45.454 -11.922   6.858  1.00  0.00     0.032 A 
ENDROOT
BRANCH   1  11
HETATM   11  N   UNL     1      43.351 -13.234   6.843  1.00  0.00    -0.326 N 
HETATM   12  C   UNL     1      42.996 -13.744   5.598  1.00  0.00     0.240 C 
HETATM   13  O   UNL     1      43.265 -13.222   4.519  1.00  0.00    -0.272 OA
HETATM   14  H   UNL     1      43.129 -13.824   7.640  1.00  0.00     0.169 HD
BRANCH  12  15
HETATM   15  C   UNL     1      42.173 -15.053   5.710  1.00  0.00     0.172 C 
HETATM   16  C   UNL     1      42.364 -15.989   4.525  1.00  0.00    -0.029 A 
HETATM   17  C   UNL     1      43.243 -17.092   4.532  1.00  0.00    -0.050 A 
HETATM   18  C   UNL     1      41.651 -15.699   3.343  1.00  0.00     0.009 A 
HETATM   19  C   UNL     1      43.368 -17.879   3.372  1.00  0.00     0.007 A 
HETATM   20  C   UNL     1      44.017 -17.532   5.755  1.00  0.00     0.049 C 
HETATM   21  C   UNL     1      42.652 -17.577   2.215  1.00  0.00     0.001 A 
HETATM   22  C   UNL     1      41.793 -16.486   2.200  1.00  0.00     0.001 A 
HETATM   23  C   UNL     1      44.152 -16.508   6.874  1.00  0.00     0.080 C 
HETATM   24  S   UNL     1      42.524 -15.852   7.324  1.00  0.00    -0.149 SA
ENDBRANCH  12  15
ENDBRANCH   1  11
BRANCH   8  25
HETATM   25  C   UNL     1      42.379  -8.121   9.065  1.00  0.00     0.270 C 
HETATM   26  N   UNL     1      42.045  -8.590  10.306  1.00  0.00    -0.365 N 
HETATM   27  H   UNL     1      42.711  -9.173  10.800  1.00  0.00     0.159 HD
HETATM   28  H   UNL     1      41.155  -8.348  10.712  1.00  0.00     0.159 HD
HETATM   29  O   UNL     1      41.615  -7.407   8.423  1.00  0.00    -0.266 OA
ENDBRANCH   8  25
TORSDOF 3
ENDMDL
MODEL 7
REMARK VINA RESULT:      -7.9      4.680      7.359
REMARK  3 active torsions:
REMARK  status: ('A' for Active; 'I' for Inactive)
REMARK    1  A    between atoms: C_5  and  C_6 
REMARK       I    between atoms: C_6  and  N_7 
REMARK    2  A    between atoms: N_7  and  C_8 
REMARK    3  A    between atoms: C_15  and  C_16 
REMARK       I    between atoms: C_16  and  N_17 
ROOT
HETATM    1  C   UNL     1      41.356 -11.682   6.238  1.00  0.00     0.035 A 
HETATM    2  C   UNL     1      42.605 -11.426   6.829  1.00  0.00     0.046 A 
HETATM    3  C   UNL     1      42.949 -10.110   7.198  1.00  0.00     0.030 A 
HETATM    4  C   UNL     1      42.037  -9.091   6.966  1.00  0.00     0.063 A 
HETATM    5  N   UNL     1      42.644  -7.951   7.416  1.00  0.00    -0.277 N 
HETATM    6  H   UNL     1      42.267  -7.010   7.400  1.00  0.00     0.189 HD
HETATM    7  N   UNL     1      43.871  -8.140   7.929  1.00  0.00    -0.168 NA
HETATM    8  C   UNL     1      44.073  -9.471   7.801  1.00  0.00     0.156 A 
HETATM    9  C   UNL     1      40.787  -9.308   6.386  1.00  0.00     0.034 A 
HETATM   10  C   UNL     1      40.465 -10.626   6.030  1.00  0.00     0.032 A 
ENDROOT
BRANCH   1  11
HETATM   11  N   UNL     1      41.084 -13.021   5.888  1.00  0.00    -0.326 N 
HETATM   12  C   UNL     1      41.660 -13.775   4.869  1.00  0.00     0.240 C 
HETATM   13  O   UNL     1      42.508 -13.365   4.081  1.00  0.00    -0.272 OA
HETATM   14  H   UNL     1      40.460 -13.526   6.509  1.00  0.00     0.169 HD
BRANCH  12  15
HETATM   15  C   UNL     1      41.084 -15.213   4.803  1.00  0.00     0.172 C 
HETATM   16  C   UNL     1      42.037 -16.215   4.166  1.00  0.00    -0.029 A 
HETATM   17  C   UNL     1      42.868 -17.084   4.905  1.00  0.00    -0.050 A 
HETATM   18  C   UNL     1      42.119 -16.235   2.759  1.00  0.00     0.009 A 
HETATM   19  C   UNL     1      43.735 -17.954   4.219  1.00  0.00     0.007 A 
HETATM   20  C   UNL     1      42.829 -17.191   6.414  1.00  0.00     0.049 C 
HETATM   21  C   UNL     1      43.799 -17.959   2.826  1.00  0.00     0.001 A 
HETATM   22  C   UNL     1      42.991 -17.098   2.095  1.00  0.00     0.001 A 
HETATM   23  C   UNL     1      42.166 -16.038   7.156  1.00  0.00     0.080 C 
HETATM   24  S   UNL     1      40.518 -15.717   6.474  1.00  0.00    -0.149 SA
ENDBRANCH  12  15
ENDBRANCH   1  11
BRANCH   8  25
HETATM   25  C   UNL     1      45.318 -10.105   8.254  1.00  0.00     0.270 C 
HETATM   26  N   UNL     1      46.453  -9.521   7.762  1.00  0.00    -0.365 N 
HETATM   27  H   UNL     1      46.360  -8.721   7.147  1.00  0.00     0.159 HD
HETATM   28  H   UNL     1      47.357  -9.883   8.020  1.00  0.00     0.159 HD
HETATM   29  O   UNL     1      45.370 -11.072   9.007  1.00  0.00    -0.266 OA
ENDBRANCH   8  25
TORSDOF 3
ENDMDL
MODEL 8
REMARK VINA RESULT:      -7.8      1.702      2.615
REMARK  3 active torsions:
REMARK  status: ('A' for Active; 'I' for Inactive)
REMARK    1  A    between atoms: C_5  and  C_6 
REMARK       I    between atoms: C_6  and  N_7 
REMARK    2  A    between atoms: N_7  and  C_8 
REMARK    3  A    between atoms: C_15  and  C_16 
REMARK       I    between atoms: C_16  and  N_17 
ROOT
HETATM    1  C   UNL     1      42.004 -14.593   3.857  1.00  0.00     0.035 A 
HETATM    2  C   UNL     1      42.656 -15.836   3.799  1.00  0.00     0.046 A 
HETATM    3  C   UNL     1      42.865 -16.574   4.982  1.00  0.00     0.030 A 
HETATM    4  C   UNL     1      42.417 -16.048   6.185  1.00  0.00     0.063 A 
HETATM    5  N   UNL     1      42.761 -16.970   7.135  1.00  0.00    -0.277 N 
HETATM    6  H   UNL     1      42.592 -16.913   8.133  1.00  0.00     0.189 HD
HETATM    7  N   UNL     1      43.388 -18.056   6.654  1.00  0.00    -0.168 NA
HETATM    8  C   UNL     1      43.458 -17.825   5.323  1.00  0.00     0.156 A 
HETATM    9  C   UNL     1      41.763 -14.819   6.280  1.00  0.00     0.034 A 
HETATM   10  C   UNL     1      41.563 -14.105   5.090  1.00  0.00     0.032 A 
ENDROOT
BRANCH   1  11
HETATM   11  N   UNL     1      41.837 -13.909   2.635  1.00  0.00    -0.326 N 
HETATM   12  C   UNL     1      40.764 -13.980   1.751  1.00  0.00     0.240 C 
HETATM   13  O   UNL     1      39.775 -14.692   1.900  1.00  0.00    -0.272 OA
HETATM   14  H   UNL     1      42.542 -13.211   2.415  1.00  0.00     0.169 HD
BRANCH  12  15
HETATM   15  C   UNL     1      40.963 -13.075   0.508  1.00  0.00     0.172 C 
HETATM   16  C   UNL     1      39.864 -13.231  -0.533  1.00  0.00    -0.029 A 
HETATM   17  C   UNL     1      38.766 -12.354  -0.650  1.00  0.00    -0.050 A 
HETATM   18  C   UNL     1      39.934 -14.346  -1.394  1.00  0.00     0.009 A 
HETATM   19  C   UNL     1      37.787 -12.604  -1.630  1.00  0.00     0.007 A 
HETATM   20  C   UNL     1      38.612 -11.097   0.179  1.00  0.00     0.049 C 
HETATM   21  C   UNL     1      37.876 -13.711  -2.472  1.00  0.00     0.001 A 
HETATM   22  C   UNL     1      38.950 -14.583  -2.355  1.00  0.00     0.001 A 
HETATM   23  C   UNL     1      39.458 -11.013   1.442  1.00  0.00     0.080 C 
HETATM   24  S   UNL     1      41.198 -11.339   1.055  1.00  0.00    -0.149 SA
ENDBRANCH  12  15
ENDBRANCH   1  11
BRANCH   8  25
HETATM   25  C   UNL     1      44.081 -18.792   4.408  1.00  0.00     0.270 C 
HETATM   26  N   UNL     1      44.397 -19.989   4.991  1.00  0.00    -0.365 N 
HETATM   27  H   UNL     1      44.185 -20.121   5.973  1.00  0.00     0.159 HD
HETATM   28  H   UNL     1      44.823 -20.718   4.442  1.00  0.00     0.159 HD
HETATM   29  O   UNL     1      44.308 -18.578   3.222  1.00  0.00    -0.266 OA
ENDBRANCH   8  25
TORSDOF 3
ENDMDL
MODEL 9
REMARK VINA RESULT:      -7.6      4.396      6.873
REMARK  3 active torsions:
REMARK  status: ('A' for Active; 'I' for Inactive)
REMARK    1  A    between atoms: C_5  and  C_6 
REMARK       I    between atoms: C_6  and  N_7 
REMARK    2  A    between atoms: N_7  and  C_8 
REMARK    3  A    between atoms: C_15  and  C_16 
REMARK       I    between atoms: C_16  and  N_17 
ROOT
HETATM    1  C   UNL     1      43.155 -15.984   6.042  1.00  0.00     0.035 A 
HETATM    2  C   UNL     1      43.243 -16.701   4.838  1.00  0.00     0.046 A 
HETATM    3  C   UNL     1      43.487 -18.090   4.864  1.00  0.00     0.030 A 
HETATM    4  C   UNL     1      43.636 -18.718   6.092  1.00  0.00     0.063 A 
HETATM    5  N   UNL     1      43.862 -20.034   5.801  1.00  0.00    -0.277 N 
HETATM    6  H   UNL     1      44.020 -20.789   6.460  1.00  0.00     0.189 HD
HETATM    7  N   UNL     1      43.866 -20.321   4.489  1.00  0.00    -0.168 NA
HETATM    8  C   UNL     1      43.634 -19.127   3.897  1.00  0.00     0.156 A 
HETATM    9  C   UNL     1      43.551 -18.039   7.308  1.00  0.00     0.034 A 
HETATM   10  C   UNL     1      43.304 -16.659   7.257  1.00  0.00     0.032 A 
ENDROOT
BRANCH   1  11
HETATM   11  N   UNL     1      42.917 -14.597   5.937  1.00  0.00    -0.326 N 
HETATM   12  C   UNL     1      41.707 -13.922   6.070  1.00  0.00     0.240 C 
HETATM   13  O   UNL     1      40.622 -14.456   6.286  1.00  0.00    -0.272 OA
HETATM   14  H   UNL     1      43.740 -14.010   5.843  1.00  0.00     0.169 HD
BRANCH  12  15
HETATM   15  C   UNL     1      41.862 -12.392   5.876  1.00  0.00     0.172 C 
HETATM   16  C   UNL     1      43.269 -11.888   6.160  1.00  0.00    -0.029 A 
HETATM   17  C   UNL     1      44.230 -11.640   5.158  1.00  0.00    -0.050 A 
HETATM   18  C   UNL     1      43.637 -11.705   7.510  1.00  0.00     0.009 A 
HETATM   19  C   UNL     1      45.515 -11.203   5.530  1.00  0.00     0.007 A 
HETATM   20  C   UNL     1      43.936 -11.748   3.677  1.00  0.00     0.049 C 
HETATM   21  C   UNL     1      45.857 -11.026   6.869  1.00  0.00     0.001 A 
HETATM   22  C   UNL     1      44.918 -11.278   7.861  1.00  0.00     0.001 A 
HETATM   23  C   UNL     1      42.693 -12.538   3.292  1.00  0.00     0.080 C 
HETATM   24  S   UNL     1      41.253 -11.928   4.208  1.00  0.00    -0.149 SA
ENDBRANCH  12  15
ENDBRANCH   1  11
BRANCH   8  25
HETATM   25  C   UNL     1      43.555 -18.997   2.436  1.00  0.00     0.270 C 
HETATM   26  N   UNL     1      43.656 -20.184   1.763  1.00  0.00    -0.365 N 
HETATM   27  H   UNL     1      43.770 -21.037   2.299  1.00  0.00     0.159 HD
HETATM   28  H   UNL     1      43.608 -20.198   0.757  1.00  0.00     0.159 HD
HETATM   29  O   UNL     1      43.410 -17.934   1.840  1.00  0.00    -0.266 OA
ENDBRANCH   8  25
TORSDOF 3
ENDMDL
MODEL 10
REMARK VINA RESULT:      -7.6      7.765     11.948
REMARK  3 active torsions:
REMARK  status: ('A' for Active; 'I' for Inactive)
REMARK    1  A    between atoms: C_5  and  C_6 
REMARK       I    between atoms: C_6  and  N_7 
REMARK    2  A    between atoms: N_7  and  C_8 
REMARK    3  A    between atoms: C_15  and  C_16 
REMARK       I    between atoms: C_16  and  N_17 
ROOT
HETATM    1  C   UNL     1      43.849 -10.411   9.865  1.00  0.00     0.035 A 
HETATM    2  C   UNL     1      43.546 -10.884   8.578  1.00  0.00     0.046 A 
HETATM    3  C   UNL     1      44.556 -10.939   7.594  1.00  0.00     0.030 A 
HETATM    4  C   UNL     1      45.835 -10.518   7.928  1.00  0.00     0.063 A 
HETATM    5  N   UNL     1      46.577 -10.681   6.791  1.00  0.00    -0.277 N 
HETATM    6  H   UNL     1      47.562 -10.470   6.667  1.00  0.00     0.189 HD
HETATM    7  N   UNL     1      45.894 -11.179   5.747  1.00  0.00    -0.168 NA
HETATM    8  C   UNL     1      44.642 -11.344   6.230  1.00  0.00     0.156 A 
HETATM    9  C   UNL     1      46.173 -10.047   9.196  1.00  0.00     0.034 A 
HETATM   10  C   UNL     1      45.154 -10.005  10.159  1.00  0.00     0.032 A 
ENDROOT
BRANCH   1  11
HETATM   11  N   UNL     1      42.788 -10.378  10.793  1.00  0.00    -0.326 N 
HETATM   12  C   UNL     1      42.301  -9.282  11.501  1.00  0.00     0.240 C 
HETATM   13  O   UNL     1      42.753  -8.142  11.434  1.00  0.00    -0.272 OA
HETATM   14  H   UNL     1      42.255 -11.236  10.892  1.00  0.00     0.169 HD
BRANCH  12  15
HETATM   15  C   UNL     1      41.122  -9.659  12.434  1.00  0.00     0.172 C 
HETATM   16  C   UNL     1      40.892  -8.653  13.552  1.00  0.00    -0.029 A 
HETATM   17  C   UNL     1      39.915  -7.636  13.503  1.00  0.00    -0.050 A 
HETATM   18  C   UNL     1      41.740  -8.722  14.677  1.00  0.00     0.009 A 
HETATM   19  C   UNL     1      39.803  -6.737  14.579  1.00  0.00     0.007 A 
HETATM   20  C   UNL     1      38.914  -7.497  12.376  1.00  0.00     0.049 C 
HETATM   21  C   UNL     1      40.651  -6.824  15.683  1.00  0.00     0.001 A 
HETATM   22  C   UNL     1      41.621  -7.817  15.732  1.00  0.00     0.001 A 
HETATM   23  C   UNL     1      39.248  -8.227  11.082  1.00  0.00     0.080 C 
HETATM   24  S   UNL     1      39.623  -9.967  11.421  1.00  0.00    -0.149 SA
ENDBRANCH  12  15
ENDBRANCH   1  11
BRANCH   8  25
HETATM   25  C   UNL     1      43.560 -11.881   5.393  1.00  0.00     0.270 C 
HETATM   26  N   UNL     1      43.451 -11.281   4.169  1.00  0.00    -0.365 N 
HETATM   27  H   UNL     1      44.099 -10.539   3.932  1.00  0.00     0.159 HD
HETATM   28  H   UNL     1      42.741 -11.585   3.521  1.00  0.00     0.159 HD
HETATM   29  O   UNL     1      42.807 -12.789   5.731  1.00  0.00    -0.266 OA
ENDBRANCH   8  25
TORSDOF 3
ENDMDL
