MODEL 1
REMARK VINA RESULT:      -8.8      0.000      0.000
REMARK  6 active torsions:
REMARK  status: ('A' for Active; 'I' for Inactive)
REMARK    1  A    between atoms: O_2  and  C_3 
REMARK    2  A    between atoms: C_6  and  C_7 
REMARK    3  A    between atoms: C_7  and  N_8 
REMARK       I    between atoms: N_8  and  C_9 
REMARK    4  A    between atoms: C_9  and  C_10 
REMARK    5  A    between atoms: C_10  and  O_11 
REMARK    6  A    between atoms: N_12  and  C_13 
ROOT
HETATM    1  C   UNL     1      40.058 -13.583   2.789  1.00  0.00     0.256 C 
HETATM    2  N   UNL     1      40.128 -13.110   4.184  1.00  0.00    -0.254 N 
HETATM    3  C   UNL     1      39.501 -11.929   4.560  1.00  0.00     0.330 C 
HETATM    4  O   UNL     1      39.298 -11.559   5.717  1.00  0.00    -0.246 OA
HETATM    5  N   UNL     1      39.047 -11.103   3.582  1.00  0.00    -0.308 N 
HETATM    6  C   UNL     1      39.124 -11.329   2.221  1.00  0.00     0.048 A 
HETATM    7  C   UNL     1      39.612 -12.545   1.773  1.00  0.00     0.035 A 
HETATM    8  C   UNL     1      38.692 -10.341   1.332  1.00  0.00     0.031 A 
HETATM    9  C   UNL     1      38.753 -10.566  -0.041  1.00  0.00     0.021 A 
HETATM   10  C   UNL     1      39.227 -11.787  -0.510  1.00  0.00     0.011 A 
HETATM   11 BR   UNL     1      39.313 -12.110  -2.371  1.00  0.00    -0.051 Br
HETATM   12  C   UNL     1      39.641 -12.777   0.383  1.00  0.00     0.034 A 
HETATM   13  H   UNL     1      38.643 -10.243   3.929  1.00  0.00     0.170 HD
ENDROOT
BRANCH   1  14
HETATM   14  C   UNL     1      41.481 -14.121   2.305  1.00  0.00     0.279 C 
HETATM   15  N   UNL     1      41.498 -15.491   2.081  1.00  0.00    -0.352 N 
HETATM   16  H   UNL     1      40.681 -16.020   2.376  1.00  0.00     0.162 HD
HETATM   17  O   UNL     1      42.449 -13.396   2.082  1.00  0.00    -0.268 OA
BRANCH  15  18
HETATM   18  C   UNL     1      42.648 -16.185   1.563  1.00  0.00     0.161 C 
BRANCH  18  19
HETATM   19  C   UNL     1      43.151 -17.242   2.508  1.00  0.00    -0.040 A 
HETATM   20  C   UNL     1      43.248 -18.580   2.108  1.00  0.00     0.011 A 
HETATM   21  C   UNL     1      43.775 -19.539   2.978  1.00  0.00     0.037 A 
HETATM   22  C   UNL     1      44.216 -19.178   4.252  1.00  0.00     0.068 A 
HETATM   23  C   UNL     1      44.079 -17.857   4.674  1.00  0.00     0.037 A 
HETATM   24  C   UNL     1      43.551 -16.896   3.806  1.00  0.00     0.011 A 
BRANCH  22  25
HETATM   25  O   UNL     1      44.745 -20.199   4.994  1.00  0.00    -0.356 OA
HETATM   26  C   UNL     1      43.862 -21.276   5.290  1.00  0.00     0.210 C 
ENDBRANCH  22  25
ENDBRANCH  18  19
ENDBRANCH  15  18
ENDBRANCH   1  14
BRANCH   1  27
HETATM   27  O   UNL     1      39.048 -14.596   2.743  1.00  0.00    -0.359 OA
HETATM   28  H   UNL     1      38.234 -14.111   2.970  1.00  0.00     0.213 HD
ENDBRANCH   1  27
BRANCH   2  29
HETATM   29  C   UNL     1      40.814 -13.911   5.186  1.00  0.00     0.042 A 
HETATM   30  C   UNL     1      40.278 -15.107   5.694  1.00  0.00     0.030 A 
HETATM   31  C   UNL     1      40.967 -15.873   6.646  1.00  0.00     0.002 A 
HETATM   32  C   UNL     1      42.209 -15.462   7.109  1.00  0.00     0.000 A 
HETATM   33  C   UNL     1      42.767 -14.290   6.620  1.00  0.00     0.002 A 
HETATM   34  C   UNL     1      42.078 -13.529   5.668  1.00  0.00     0.030 A 
ENDBRANCH   2  29
TORSDOF 6
ENDMDL
MODEL 2
REMARK VINA RESULT:      -8.6      2.899      7.401
REMARK  6 active torsions:
REMARK  status: ('A' for Active; 'I' for Inactive)
REMARK    1  A    between atoms: O_2  and  C_3 
REMARK    2  A    between atoms: C_6  and  C_7 
REMARK    3  A    between atoms: C_7  and  N_8 
REMARK       I    between atoms: N_8  and  C_9 
REMARK    4  A    between atoms: C_9  and  C_10 
REMARK    5  A    between atoms: C_10  and  O_11 
REMARK    6  A    between atoms: N_12  and  C_13 
ROOT
HETATM    1  C   UNL     1      42.533 -14.948   2.745  1.00  0.00     0.256 C 
HETATM    2  N   UNL     1      42.387 -13.886   3.759  1.00  0.00    -0.254 N 
HETATM    3  C   UNL     1      42.997 -14.010   5.000  1.00  0.00     0.330 C 
HETATM    4  O   UNL     1      43.137 -13.107   5.827  1.00  0.00    -0.246 OA
HETATM    5  N   UNL     1      43.509 -15.220   5.348  1.00  0.00    -0.308 N 
HETATM    6  C   UNL     1      43.506 -16.361   4.570  1.00  0.00     0.048 A 
HETATM    7  C   UNL     1      43.038 -16.281   3.269  1.00  0.00     0.035 A 
HETATM    8  C   UNL     1      43.990 -17.559   5.102  1.00  0.00     0.031 A 
HETATM    9  C   UNL     1      44.004 -18.712   4.319  1.00  0.00     0.021 A 
HETATM   10  C   UNL     1      43.553 -18.648   3.005  1.00  0.00     0.011 A 
HETATM   11 BR   UNL     1      43.567 -20.202   1.929  1.00  0.00    -0.051 Br
HETATM   12  C   UNL     1      43.086 -17.444   2.474  1.00  0.00     0.034 A 
HETATM   13  H   UNL     1      43.895 -15.246   6.282  1.00  0.00     0.170 HD
ENDROOT
BRANCH   1  14
HETATM   14  C   UNL     1      41.137 -15.234   2.026  1.00  0.00     0.279 C 
HETATM   15  N   UNL     1      41.117 -14.833   0.696  1.00  0.00    -0.352 N 
HETATM   16  H   UNL     1      41.906 -14.285   0.365  1.00  0.00     0.162 HD
HETATM   17  O   UNL     1      40.194 -15.812   2.563  1.00  0.00    -0.268 OA
BRANCH  15  18
HETATM   18  C   UNL     1      39.993 -15.064  -0.173  1.00  0.00     0.161 C 
BRANCH  18  19
HETATM   19  C   UNL     1      39.417 -13.783  -0.716  1.00  0.00    -0.040 A 
HETATM   20  C   UNL     1      38.645 -13.777  -1.884  1.00  0.00     0.011 A 
HETATM   21  C   UNL     1      38.068 -12.589  -2.340  1.00  0.00     0.037 A 
HETATM   22  C   UNL     1      38.246 -11.395  -1.638  1.00  0.00     0.068 A 
HETATM   23  C   UNL     1      39.051 -11.386  -0.501  1.00  0.00     0.037 A 
HETATM   24  C   UNL     1      39.632 -12.573  -0.043  1.00  0.00     0.011 A 
BRANCH  22  25
HETATM   25  O   UNL     1      37.599 -10.311  -2.164  1.00  0.00    -0.356 OA
HETATM   26  C   UNL     1      36.415 -10.591  -2.903  1.00  0.00     0.210 C 
ENDBRANCH  22  25
ENDBRANCH  18  19
ENDBRANCH  15  18
ENDBRANCH   1  14
BRANCH   1  27
HETATM   27  O   UNL     1      43.540 -14.511   1.826  1.00  0.00    -0.359 OA
HETATM   28  H   UNL     1      44.047 -15.323   1.648  1.00  0.00     0.213 HD
ENDBRANCH   1  27
BRANCH   2  29
HETATM   29  C   UNL     1      41.644 -12.677   3.440  1.00  0.00     0.042 A 
HETATM   30  C   UNL     1      40.320 -12.470   3.863  1.00  0.00     0.030 A 
HETATM   31  C   UNL     1      39.630 -11.288   3.561  1.00  0.00     0.002 A 
HETATM   32  C   UNL     1      40.249 -10.283   2.830  1.00  0.00     0.000 A 
HETATM   33  C   UNL     1      41.558 -10.455   2.405  1.00  0.00     0.002 A 
HETATM   34  C   UNL     1      42.245 -11.636   2.711  1.00  0.00     0.030 A 
ENDBRANCH   2  29
TORSDOF 6
ENDMDL
MODEL 3
REMARK VINA RESULT:      -8.4      2.677      4.427
REMARK  6 active torsions:
REMARK  status: ('A' for Active; 'I' for Inactive)
REMARK    1  A    between atoms: O_2  and  C_3 
REMARK    2  A    between atoms: C_6  and  C_7 
REMARK    3  A    between atoms: C_7  and  N_8 
REMARK       I    between atoms: N_8  and  C_9 
REMARK    4  A    between atoms: C_9  and  C_10 
REMARK    5  A    between atoms: C_10  and  O_11 
REMARK    6  A    between atoms: N_12  and  C_13 
ROOT
HETATM    1  C   UNL     1      41.511 -12.771   4.382  1.00  0.00     0.256 C 
HETATM    2  N   UNL     1      41.044 -13.426   3.145  1.00  0.00    -0.254 N 
HETATM    3  C   UNL     1      40.031 -12.856   2.385  1.00  0.00     0.330 C 
HETATM    4  O   UNL     1      39.722 -13.181   1.237  1.00  0.00    -0.246 OA
HETATM    5  N   UNL     1      39.317 -11.835   2.928  1.00  0.00    -0.308 N 
HETATM    6  C   UNL     1      39.510 -11.277   4.177  1.00  0.00     0.048 A 
HETATM    7  C   UNL     1      40.587 -11.701   4.938  1.00  0.00     0.035 A 
HETATM    8  C   UNL     1      38.634 -10.289   4.634  1.00  0.00     0.031 A 
HETATM    9  C   UNL     1      38.830  -9.712   5.886  1.00  0.00     0.021 A 
HETATM   10  C   UNL     1      39.915 -10.113   6.659  1.00  0.00     0.011 A 
HETATM   11 BR   UNL     1      40.197  -9.336   8.359  1.00  0.00    -0.051 Br
HETATM   12  C   UNL     1      40.797 -11.088   6.190  1.00  0.00     0.034 A 
HETATM   13  H   UNL     1      38.568 -11.502   2.335  1.00  0.00     0.170 HD
ENDROOT
BRANCH   1  14
HETATM   14  C   UNL     1      41.721 -13.847   5.543  1.00  0.00     0.279 C 
HETATM   15  N   UNL     1      43.056 -14.163   5.756  1.00  0.00    -0.352 N 
HETATM   16  H   UNL     1      43.731 -13.809   5.084  1.00  0.00     0.162 HD
HETATM   17  O   UNL     1      40.809 -14.302   6.231  1.00  0.00    -0.268 OA
BRANCH  15  18
HETATM   18  C   UNL     1      43.492 -15.048   6.805  1.00  0.00     0.161 C 
BRANCH  18  19
HETATM   19  C   UNL     1      43.700 -16.456   6.316  1.00  0.00    -0.040 A 
HETATM   20  C   UNL     1      43.098 -17.541   6.964  1.00  0.00     0.011 A 
HETATM   21  C   UNL     1      43.253 -18.836   6.461  1.00  0.00     0.037 A 
HETATM   22  C   UNL     1      44.002 -19.066   5.305  1.00  0.00     0.068 A 
HETATM   23  C   UNL     1      44.642 -17.996   4.682  1.00  0.00     0.037 A 
HETATM   24  C   UNL     1      44.491 -16.700   5.184  1.00  0.00     0.011 A 
BRANCH  22  25
HETATM   25  O   UNL     1      44.046 -20.370   4.892  1.00  0.00    -0.356 OA
HETATM   26  C   UNL     1      43.768 -20.595   3.514  1.00  0.00     0.210 C 
ENDBRANCH  22  25
ENDBRANCH  18  19
ENDBRANCH  15  18
ENDBRANCH   1  14
BRANCH   1  27
HETATM   27  O   UNL     1      42.719 -12.078   4.056  1.00  0.00    -0.359 OA
HETATM   28  H   UNL     1      42.638 -11.926   3.097  1.00  0.00     0.213 HD
ENDBRANCH   1  27
BRANCH   2  29
HETATM   29  C   UNL     1      41.683 -14.650   2.689  1.00  0.00     0.042 A 
HETATM   30  C   UNL     1      42.867 -14.648   1.932  1.00  0.00     0.030 A 
HETATM   31  C   UNL     1      43.477 -15.842   1.520  1.00  0.00     0.002 A 
HETATM   32  C   UNL     1      42.917 -17.067   1.858  1.00  0.00     0.000 A 
HETATM   33  C   UNL     1      41.753 -17.101   2.611  1.00  0.00     0.002 A 
HETATM   34  C   UNL     1      41.149 -15.907   3.023  1.00  0.00     0.030 A 
ENDBRANCH   2  29
TORSDOF 6
ENDMDL
MODEL 4
REMARK VINA RESULT:      -8.2      2.130      4.158
REMARK  6 active torsions:
REMARK  status: ('A' for Active; 'I' for Inactive)
REMARK    1  A    between atoms: O_2  and  C_3 
REMARK    2  A    between atoms: C_6  and  C_7 
REMARK    3  A    between atoms: C_7  and  N_8 
REMARK       I    between atoms: N_8  and  C_9 
REMARK    4  A    between atoms: C_9  and  C_10 
REMARK    5  A    between atoms: C_10  and  O_11 
REMARK    6  A    between atoms: N_12  and  C_13 
ROOT
HETATM    1  C   UNL     1      40.471 -12.439   1.948  1.00  0.00     0.256 C 
HETATM    2  N   UNL     1      40.491 -13.728   1.232  1.00  0.00    -0.254 N 
HETATM    3  C   UNL     1      39.724 -13.911   0.089  1.00  0.00     0.330 C 
HETATM    4  O   UNL     1      39.832 -14.844  -0.709  1.00  0.00    -0.246 OA
HETATM    5  N   UNL     1      38.777 -12.983  -0.205  1.00  0.00    -0.308 N 
HETATM    6  C   UNL     1      38.504 -11.838   0.517  1.00  0.00     0.048 A 
HETATM    7  C   UNL     1      39.317 -11.517   1.592  1.00  0.00     0.035 A 
HETATM    8  C   UNL     1      37.434 -11.022   0.139  1.00  0.00     0.031 A 
HETATM    9  C   UNL     1      37.161  -9.857   0.854  1.00  0.00     0.021 A 
HETATM   10  C   UNL     1      37.976  -9.510   1.927  1.00  0.00     0.011 A 
HETATM   11 BR   UNL     1      37.621  -7.932   2.904  1.00  0.00    -0.051 Br
HETATM   12  C   UNL     1      39.054 -10.320   2.289  1.00  0.00     0.034 A 
HETATM   13  H   UNL     1      38.227 -13.207  -1.025  1.00  0.00     0.170 HD
ENDROOT
BRANCH   1  14
HETATM   14  C   UNL     1      40.404 -12.673   3.526  1.00  0.00     0.279 C 
HETATM   15  N   UNL     1      41.634 -12.520   4.151  1.00  0.00    -0.352 N 
HETATM   16  H   UNL     1      42.450 -12.426   3.553  1.00  0.00     0.162 HD
HETATM   17  O   UNL     1      39.364 -12.896   4.143  1.00  0.00    -0.268 OA
BRANCH  15  18
HETATM   18  C   UNL     1      41.801 -12.604   5.579  1.00  0.00     0.161 C 
BRANCH  18  19
HETATM   19  C   UNL     1      42.224 -13.978   6.025  1.00  0.00    -0.040 A 
HETATM   20  C   UNL     1      41.276 -14.946   6.376  1.00  0.00     0.011 A 
HETATM   21  C   UNL     1      41.684 -16.236   6.730  1.00  0.00     0.037 A 
HETATM   22  C   UNL     1      43.038 -16.578   6.733  1.00  0.00     0.068 A 
HETATM   23  C   UNL     1      43.989 -15.605   6.431  1.00  0.00     0.037 A 
HETATM   24  C   UNL     1      43.584 -14.314   6.078  1.00  0.00     0.011 A 
BRANCH  22  25
HETATM   25  O   UNL     1      43.307 -17.879   7.060  1.00  0.00    -0.356 OA
HETATM   26  C   UNL     1      43.580 -18.751   5.967  1.00  0.00     0.210 C 
ENDBRANCH  22  25
ENDBRANCH  18  19
ENDBRANCH  15  18
ENDBRANCH   1  14
BRANCH   1  27
HETATM   27  O   UNL     1      41.645 -11.724   1.552  1.00  0.00    -0.359 OA
HETATM   28  H   UNL     1      42.346 -12.398   1.604  1.00  0.00     0.213 HD
ENDBRANCH   1  27
BRANCH   2  29
HETATM   29  C   UNL     1      41.360 -14.799   1.694  1.00  0.00     0.042 A 
HETATM   30  C   UNL     1      42.729 -14.851   1.379  1.00  0.00     0.030 A 
HETATM   31  C   UNL     1      43.552 -15.882   1.853  1.00  0.00     0.002 A 
HETATM   32  C   UNL     1      43.026 -16.886   2.655  1.00  0.00     0.000 A 
HETATM   33  C   UNL     1      41.680 -16.857   2.990  1.00  0.00     0.002 A 
HETATM   34  C   UNL     1      40.862 -15.824   2.517  1.00  0.00     0.030 A 
ENDBRANCH   2  29
TORSDOF 6
ENDMDL
MODEL 5
REMARK VINA RESULT:      -8.2      3.942      7.283
REMARK  6 active torsions:
REMARK  status: ('A' for Active; 'I' for Inactive)
REMARK    1  A    between atoms: O_2  and  C_3 
REMARK    2  A    between atoms: C_6  and  C_7 
REMARK    3  A    between atoms: C_7  and  N_8 
REMARK       I    between atoms: N_8  and  C_9 
REMARK    4  A    between atoms: C_9  and  C_10 
REMARK    5  A    between atoms: C_10  and  O_11 
REMARK    6  A    between atoms: N_12  and  C_13 
ROOT
HETATM    1  C   UNL     1      41.540 -13.735   4.923  1.00  0.00     0.256 C 
HETATM    2  N   UNL     1      40.572 -12.773   4.362  1.00  0.00    -0.254 N 
HETATM    3  C   UNL     1      39.685 -13.166   3.368  1.00  0.00     0.330 C 
HETATM    4  O   UNL     1      38.698 -12.531   2.993  1.00  0.00    -0.246 OA
HETATM    5  N   UNL     1      39.895 -14.359   2.755  1.00  0.00    -0.308 N 
HETATM    6  C   UNL     1      40.907 -15.256   3.036  1.00  0.00     0.048 A 
HETATM    7  C   UNL     1      41.749 -14.998   4.105  1.00  0.00     0.035 A 
HETATM    8  C   UNL     1      41.047 -16.406   2.255  1.00  0.00     0.031 A 
HETATM    9  C   UNL     1      42.057 -17.322   2.541  1.00  0.00     0.021 A 
HETATM   10  C   UNL     1      42.903 -17.088   3.620  1.00  0.00     0.011 A 
HETATM   11 BR   UNL     1      44.276 -18.323   4.023  1.00  0.00    -0.051 Br
HETATM   12  C   UNL     1      42.747 -15.946   4.407  1.00  0.00     0.034 A 
HETATM   13  H   UNL     1      39.237 -14.557   2.011  1.00  0.00     0.170 HD
ENDROOT
BRANCH   1  14
HETATM   14  C   UNL     1      42.974 -13.054   5.094  1.00  0.00     0.279 C 
HETATM   15  N   UNL     1      43.403 -13.013   6.414  1.00  0.00    -0.352 N 
HETATM   16  H   UNL     1      42.729 -13.273   7.129  1.00  0.00     0.162 HD
HETATM   17  O   UNL     1      43.667 -12.666   4.155  1.00  0.00    -0.268 OA
BRANCH  15  18
HETATM   18  C   UNL     1      44.699 -12.518   6.800  1.00  0.00     0.161 C 
BRANCH  18  19
HETATM   19  C   UNL     1      44.633 -11.126   7.369  1.00  0.00    -0.040 A 
HETATM   20  C   UNL     1      45.788 -10.476   7.819  1.00  0.00     0.011 A 
HETATM   21  C   UNL     1      45.719  -9.161   8.288  1.00  0.00     0.037 A 
HETATM   22  C   UNL     1      44.502  -8.477   8.311  1.00  0.00     0.068 A 
HETATM   23  C   UNL     1      43.341  -9.135   7.909  1.00  0.00     0.037 A 
HETATM   24  C   UNL     1      43.407 -10.450   7.440  1.00  0.00     0.011 A 
BRANCH  22  25
HETATM   25  O   UNL     1      44.571  -7.184   8.755  1.00  0.00    -0.356 OA
HETATM   26  C   UNL     1      43.393  -6.676   9.373  1.00  0.00     0.210 C 
ENDBRANCH  22  25
ENDBRANCH  18  19
ENDBRANCH  15  18
ENDBRANCH   1  14
BRANCH   1  27
HETATM   27  O   UNL     1      41.001 -14.191   6.167  1.00  0.00    -0.359 OA
HETATM   28  H   UNL     1      41.120 -15.156   6.123  1.00  0.00     0.213 HD
ENDBRANCH   1  27
BRANCH   2  29
HETATM   29  C   UNL     1      40.509 -11.419   4.889  1.00  0.00     0.042 A 
HETATM   30  C   UNL     1      41.067 -10.319   4.215  1.00  0.00     0.030 A 
HETATM   31  C   UNL     1      40.976  -9.019   4.732  1.00  0.00     0.002 A 
HETATM   32  C   UNL     1      40.322  -8.788   5.935  1.00  0.00     0.000 A 
HETATM   33  C   UNL     1      39.754  -9.853   6.618  1.00  0.00     0.002 A 
HETATM   34  C   UNL     1      39.844 -11.149   6.098  1.00  0.00     0.030 A 
ENDBRANCH   2  29
TORSDOF 6
ENDMDL
MODEL 6
REMARK VINA RESULT:      -8.0      3.361      5.091
REMARK  6 active torsions:
REMARK  status: ('A' for Active; 'I' for Inactive)
REMARK    1  A    between atoms: O_2  and  C_3 
REMARK    2  A    between atoms: C_6  and  C_7 
REMARK    3  A    between atoms: C_7  and  N_8 
REMARK       I    between atoms: N_8  and  C_9 
REMARK    4  A    between atoms: C_9  and  C_10 
REMARK    5  A    between atoms: C_10  and  O_11 
REMARK    6  A    between atoms: N_12  and  C_13 
ROOT
HETATM    1  C   UNL     1      42.388 -11.834   4.677  1.00  0.00     0.256 C 
HETATM    2  N   UNL     1      41.293 -11.688   3.699  1.00  0.00    -0.254 N 
HETATM    3  C   UNL     1      40.611 -10.484   3.581  1.00  0.00     0.330 C 
HETATM    4  O   UNL     1      39.850 -10.175   2.662  1.00  0.00    -0.246 OA
HETATM    5  N   UNL     1      40.797  -9.542   4.542  1.00  0.00    -0.308 N 
HETATM    6  C   UNL     1      41.630  -9.648   5.638  1.00  0.00     0.048 A 
HETATM    7  C   UNL     1      42.446 -10.762   5.752  1.00  0.00     0.035 A 
HETATM    8  C   UNL     1      41.648  -8.627   6.592  1.00  0.00     0.031 A 
HETATM    9  C   UNL     1      42.496  -8.720   7.694  1.00  0.00     0.021 A 
HETATM   10  C   UNL     1      43.333  -9.824   7.818  1.00  0.00     0.011 A 
HETATM   11 BR   UNL     1      44.492  -9.963   9.305  1.00  0.00    -0.051 Br
HETATM   12  C   UNL     1      43.323 -10.832   6.852  1.00  0.00     0.034 A 
HETATM   13  H   UNL     1      40.234  -8.711   4.413  1.00  0.00     0.170 HD
ENDROOT
BRANCH   1  14
HETATM   14  C   UNL     1      42.285 -13.237   5.430  1.00  0.00     0.279 C 
HETATM   15  N   UNL     1      43.352 -14.083   5.154  1.00  0.00    -0.352 N 
HETATM   16  H   UNL     1      43.990 -13.799   4.416  1.00  0.00     0.162 HD
HETATM   17  O   UNL     1      41.396 -13.525   6.230  1.00  0.00    -0.268 OA
BRANCH  15  18
HETATM   18  C   UNL     1      43.514 -15.368   5.782  1.00  0.00     0.161 C 
BRANCH  18  19
HETATM   19  C   UNL     1      43.576 -16.491   4.781  1.00  0.00    -0.040 A 
HETATM   20  C   UNL     1      44.264 -17.675   5.068  1.00  0.00     0.011 A 
HETATM   21  C   UNL     1      44.261 -18.731   4.151  1.00  0.00     0.037 A 
HETATM   22  C   UNL     1      43.569 -18.623   2.943  1.00  0.00     0.068 A 
HETATM   23  C   UNL     1      42.920 -17.429   2.632  1.00  0.00     0.037 A 
HETATM   24  C   UNL     1      42.923 -16.371   3.546  1.00  0.00     0.011 A 
BRANCH  22  25
HETATM   25  O   UNL     1      43.610 -19.737   2.150  1.00  0.00    -0.356 OA
HETATM   26  C   UNL     1      43.949 -20.955   2.805  1.00  0.00     0.210 C 
ENDBRANCH  22  25
ENDBRANCH  18  19
ENDBRANCH  15  18
ENDBRANCH   1  14
BRANCH   1  27
HETATM   27  O   UNL     1      43.614 -11.692   3.953  1.00  0.00    -0.359 OA
HETATM   28  H   UNL     1      43.429 -12.139   3.108  1.00  0.00     0.213 HD
ENDBRANCH   1  27
BRANCH   2  29
HETATM   29  C   UNL     1      40.959 -12.794   2.816  1.00  0.00     0.042 A 
HETATM   30  C   UNL     1      41.699 -13.086   1.657  1.00  0.00     0.030 A 
HETATM   31  C   UNL     1      41.370 -14.171   0.831  1.00  0.00     0.002 A 
HETATM   32  C   UNL     1      40.294 -14.990   1.146  1.00  0.00     0.000 A 
HETATM   33  C   UNL     1      39.550 -14.731   2.288  1.00  0.00     0.002 A 
HETATM   34  C   UNL     1      39.883 -13.649   3.112  1.00  0.00     0.030 A 
ENDBRANCH   2  29
TORSDOF 6
ENDMDL
MODEL 7
REMARK VINA RESULT:      -7.9      3.304      7.203
REMARK  6 active torsions:
REMARK  status: ('A' for Active; 'I' for Inactive)
REMARK    1  A    between atoms: O_2  and  C_3 
REMARK    2  A    between atoms: C_6  and  C_7 
REMARK    3  A    between atoms: C_7  and  N_8 
REMARK       I    between atoms: N_8  and  C_9 
REMARK    4  A    between atoms: C_9  and  C_10 
REMARK    5  A    between atoms: C_10  and  O_11 
REMARK    6  A    between atoms: N_12  and  C_13 
ROOT
HETATM    1  C   UNL     1      41.102 -13.917   3.187  1.00  0.00     0.256 C 
HETATM    2  N   UNL     1      40.455 -13.967   1.862  1.00  0.00    -0.254 N 
HETATM    3  C   UNL     1      40.356 -15.169   1.173  1.00  0.00     0.330 C 
HETATM    4  O   UNL     1      39.649 -15.375   0.184  1.00  0.00    -0.246 OA
HETATM    5  N   UNL     1      41.079 -16.228   1.620  1.00  0.00    -0.308 N 
HETATM    6  C   UNL     1      41.905 -16.245   2.727  1.00  0.00     0.048 A 
HETATM    7  C   UNL     1      41.950 -15.126   3.543  1.00  0.00     0.035 A 
HETATM    8  C   UNL     1      42.656 -17.388   3.010  1.00  0.00     0.031 A 
HETATM    9  C   UNL     1      43.481 -17.418   4.132  1.00  0.00     0.021 A 
HETATM   10  C   UNL     1      43.528 -16.310   4.972  1.00  0.00     0.011 A 
HETATM   11 BR   UNL     1      44.639 -16.336   6.501  1.00  0.00    -0.051 Br
HETATM   12  C   UNL     1      42.762 -15.177   4.694  1.00  0.00     0.034 A 
HETATM   13  H   UNL     1      40.992 -17.054   1.041  1.00  0.00     0.170 HD
ENDROOT
BRANCH   1  14
HETATM   14  C   UNL     1      42.051 -12.639   3.302  1.00  0.00     0.279 C 
HETATM   15  N   UNL     1      41.596 -11.703   4.221  1.00  0.00    -0.352 N 
HETATM   16  H   UNL     1      40.666 -11.846   4.607  1.00  0.00     0.162 HD
HETATM   17  O   UNL     1      43.114 -12.516   2.696  1.00  0.00    -0.268 OA
BRANCH  15  18
HETATM   18  C   UNL     1      42.330 -10.509   4.551  1.00  0.00     0.161 C 
BRANCH  18  19
HETATM   19  C   UNL     1      42.998 -10.603   5.897  1.00  0.00    -0.040 A 
HETATM   20  C   UNL     1      42.546  -9.841   6.981  1.00  0.00     0.011 A 
HETATM   21  C   UNL     1      43.139  -9.985   8.239  1.00  0.00     0.037 A 
HETATM   22  C   UNL     1      44.183 -10.891   8.434  1.00  0.00     0.068 A 
HETATM   23  C   UNL     1      44.669 -11.618   7.349  1.00  0.00     0.037 A 
HETATM   24  C   UNL     1      44.078 -11.475   6.089  1.00  0.00     0.011 A 
BRANCH  22  25
HETATM   25  O   UNL     1      44.653 -10.968   9.717  1.00  0.00    -0.356 OA
HETATM   26  C   UNL     1      43.725 -10.622  10.740  1.00  0.00     0.210 C 
ENDBRANCH  22  25
ENDBRANCH  18  19
ENDBRANCH  15  18
ENDBRANCH   1  14
BRANCH   1  27
HETATM   27  O   UNL     1      40.054 -13.907   4.162  1.00  0.00    -0.359 OA
HETATM   28  H   UNL     1      39.246 -13.837   3.622  1.00  0.00     0.213 HD
ENDBRANCH   1  27
BRANCH   2  29
HETATM   29  C   UNL     1      39.871 -12.762   1.295  1.00  0.00     0.042 A 
HETATM   30  C   UNL     1      40.440 -12.089   0.201  1.00  0.00     0.030 A 
HETATM   31  C   UNL     1      39.848 -10.940  -0.342  1.00  0.00     0.002 A 
HETATM   32  C   UNL     1      38.670 -10.438   0.196  1.00  0.00     0.000 A 
HETATM   33  C   UNL     1      38.081 -11.086   1.272  1.00  0.00     0.002 A 
HETATM   34  C   UNL     1      38.673 -12.235   1.809  1.00  0.00     0.030 A 
ENDBRANCH   2  29
TORSDOF 6
ENDMDL
MODEL 8
REMARK VINA RESULT:      -7.8      3.276      6.465
REMARK  6 active torsions:
REMARK  status: ('A' for Active; 'I' for Inactive)
REMARK    1  A    between atoms: O_2  and  C_3 
REMARK    2  A    between atoms: C_6  and  C_7 
REMARK    3  A    between atoms: C_7  and  N_8 
REMARK       I    between atoms: N_8  and  C_9 
REMARK    4  A    between atoms: C_9  and  C_10 
REMARK    5  A    between atoms: C_10  and  O_11 
REMARK    6  A    between atoms: N_12  and  C_13 
ROOT
HETATM    1  C   UNL     1      41.561 -12.273   4.864  1.00  0.00     0.256 C 
HETATM    2  N   UNL     1      42.369 -13.499   5.001  1.00  0.00    -0.254 N 
HETATM    3  C   UNL     1      43.191 -13.681   6.106  1.00  0.00     0.330 C 
HETATM    4  O   UNL     1      43.724 -14.741   6.440  1.00  0.00    -0.246 OA
HETATM    5  N   UNL     1      43.426 -12.616   6.915  1.00  0.00    -0.308 N 
HETATM    6  C   UNL     1      42.905 -11.345   6.764  1.00  0.00     0.048 A 
HETATM    7  C   UNL     1      41.971 -11.121   5.766  1.00  0.00     0.035 A 
HETATM    8  C   UNL     1      43.312 -10.326   7.629  1.00  0.00     0.031 A 
HETATM    9  C   UNL     1      42.780  -9.045   7.492  1.00  0.00     0.021 A 
HETATM   10  C   UNL     1      41.830  -8.804   6.505  1.00  0.00     0.011 A 
HETATM   11 BR   UNL     1      41.097  -7.073   6.309  1.00  0.00    -0.051 Br
HETATM   12  C   UNL     1      41.414  -9.831   5.656  1.00  0.00     0.034 A 
HETATM   13  H   UNL     1      44.069 -12.812   7.672  1.00  0.00     0.170 HD
ENDROOT
BRANCH   1  14
HETATM   14  C   UNL     1      41.618 -11.727   3.365  1.00  0.00     0.279 C 
HETATM   15  N   UNL     1      40.398 -11.815   2.707  1.00  0.00    -0.352 N 
HETATM   16  H   UNL     1      39.657 -12.332   3.171  1.00  0.00     0.162 HD
HETATM   17  O   UNL     1      42.615 -11.214   2.858  1.00  0.00    -0.268 OA
BRANCH  15  18
HETATM   18  C   UNL     1      40.190 -11.310   1.375  1.00  0.00     0.161 C 
BRANCH  18  19
HETATM   19  C   UNL     1      39.797 -12.393   0.407  1.00  0.00    -0.040 A 
HETATM   20  C   UNL     1      38.966 -12.118  -0.685  1.00  0.00     0.011 A 
HETATM   21  C   UNL     1      38.660 -13.122  -1.608  1.00  0.00     0.037 A 
HETATM   22  C   UNL     1      39.180 -14.409  -1.459  1.00  0.00     0.068 A 
HETATM   23  C   UNL     1      39.970 -14.702  -0.348  1.00  0.00     0.037 A 
HETATM   24  C   UNL     1      40.276 -13.699   0.578  1.00  0.00     0.011 A 
BRANCH  22  25
HETATM   25  O   UNL     1      38.839 -15.291  -2.447  1.00  0.00    -0.356 OA
HETATM   26  C   UNL     1      38.175 -14.733  -3.577  1.00  0.00     0.210 C 
ENDBRANCH  22  25
ENDBRANCH  18  19
ENDBRANCH  15  18
ENDBRANCH   1  14
BRANCH   1  27
HETATM   27  O   UNL     1      40.231 -12.602   5.274  1.00  0.00    -0.359 OA
HETATM   28  H   UNL     1      39.747 -12.672   4.432  1.00  0.00     0.213 HD
ENDBRANCH   1  27
BRANCH   2  29
HETATM   29  C   UNL     1      42.266 -14.550   4.001  1.00  0.00     0.042 A 
HETATM   30  C   UNL     1      43.237 -14.739   3.002  1.00  0.00     0.030 A 
HETATM   31  C   UNL     1      43.127 -15.772   2.060  1.00  0.00     0.002 A 
HETATM   32  C   UNL     1      42.045 -16.641   2.095  1.00  0.00     0.000 A 
HETATM   33  C   UNL     1      41.075 -16.483   3.075  1.00  0.00     0.002 A 
HETATM   34  C   UNL     1      41.189 -15.453   4.016  1.00  0.00     0.030 A 
ENDBRANCH   2  29
TORSDOF 6
ENDMDL
MODEL 9
REMARK VINA RESULT:      -7.6      3.298      6.934
REMARK  6 active torsions:
REMARK  status: ('A' for Active; 'I' for Inactive)
REMARK    1  A    between atoms: O_2  and  C_3 
REMARK    2  A    between atoms: C_6  and  C_7 
REMARK    3  A    between atoms: C_7  and  N_8 
REMARK       I    between atoms: N_8  and  C_9 
REMARK    4  A    between atoms: C_9  and  C_10 
REMARK    5  A    between atoms: C_10  and  O_11 
REMARK    6  A    between atoms: N_12  and  C_13 
ROOT
HETATM    1  C   UNL     1      39.946 -13.322   2.345  1.00  0.00     0.256 C 
HETATM    2  N   UNL     1      39.719 -12.852   0.965  1.00  0.00    -0.254 N 
HETATM    3  C   UNL     1      40.279 -13.529  -0.111  1.00  0.00     0.330 C 
HETATM    4  O   UNL     1      39.978 -13.372  -1.296  1.00  0.00    -0.246 OA
HETATM    5  N   UNL     1      41.231 -14.464   0.143  1.00  0.00    -0.308 N 
HETATM    6  C   UNL     1      41.697 -14.838   1.389  1.00  0.00     0.048 A 
HETATM    7  C   UNL     1      41.091 -14.307   2.515  1.00  0.00     0.035 A 
HETATM    8  C   UNL     1      42.748 -15.755   1.486  1.00  0.00     0.031 A 
HETATM    9  C   UNL     1      43.214 -16.147   2.739  1.00  0.00     0.021 A 
HETATM   10  C   UNL     1      42.608 -15.636   3.882  1.00  0.00     0.011 A 
HETATM   11 BR   UNL     1      43.227 -16.161   5.588  1.00  0.00    -0.051 Br
HETATM   12  C   UNL     1      41.547 -14.734   3.778  1.00  0.00     0.034 A 
HETATM   13  H   UNL     1      41.625 -14.882  -0.690  1.00  0.00     0.170 HD
ENDROOT
BRANCH   1  14
HETATM   14  C   UNL     1      40.248 -12.092   3.316  1.00  0.00     0.279 C 
HETATM   15  N   UNL     1      41.407 -11.404   2.979  1.00  0.00    -0.352 N 
HETATM   16  H   UNL     1      42.004 -11.821   2.271  1.00  0.00     0.162 HD
HETATM   17  O   UNL     1      39.502 -11.737   4.227  1.00  0.00    -0.268 OA
BRANCH  15  18
HETATM   18  C   UNL     1      41.835 -10.212   3.664  1.00  0.00     0.161 C 
BRANCH  18  19
HETATM   19  C   UNL     1      42.630 -10.520   4.904  1.00  0.00    -0.040 A 
HETATM   20  C   UNL     1      42.313  -9.924   6.130  1.00  0.00     0.011 A 
HETATM   21  C   UNL     1      43.024 -10.266   7.284  1.00  0.00     0.037 A 
HETATM   22  C   UNL     1      44.052 -11.209   7.234  1.00  0.00     0.068 A 
HETATM   23  C   UNL     1      44.404 -11.771   6.008  1.00  0.00     0.037 A 
HETATM   24  C   UNL     1      43.696 -11.429   4.851  1.00  0.00     0.011 A 
BRANCH  22  25
HETATM   25  O   UNL     1      44.645 -11.487   8.435  1.00  0.00    -0.356 OA
HETATM   26  C   UNL     1      45.369 -10.416   9.034  1.00  0.00     0.210 C 
ENDBRANCH  22  25
ENDBRANCH  18  19
ENDBRANCH  15  18
ENDBRANCH   1  14
BRANCH   1  27
HETATM   27  O   UNL     1      38.778 -14.051   2.734  1.00  0.00    -0.359 OA
HETATM   28  H   UNL     1      38.977 -14.961   2.453  1.00  0.00     0.213 HD
ENDBRANCH   1  27
BRANCH   2  29
HETATM   29  C   UNL     1      38.861 -11.703   0.724  1.00  0.00     0.042 A 
HETATM   30  C   UNL     1      37.504 -11.683   1.089  1.00  0.00     0.030 A 
HETATM   31  C   UNL     1      36.701 -10.556   0.865  1.00  0.00     0.002 A 
HETATM   32  C   UNL     1      37.237  -9.421   0.272  1.00  0.00     0.000 A 
HETATM   33  C   UNL     1      38.575  -9.408  -0.092  1.00  0.00     0.002 A 
HETATM   34  C   UNL     1      39.375 -10.534   0.136  1.00  0.00     0.030 A 
ENDBRANCH   2  29
TORSDOF 6
ENDMDL
MODEL 10
REMARK VINA RESULT:      -7.4      2.470      3.495
REMARK  6 active torsions:
REMARK  status: ('A' for Active; 'I' for Inactive)
REMARK    1  A    between atoms: O_2  and  C_3 
REMARK    2  A    between atoms: C_6  and  C_7 
REMARK    3  A    between atoms: C_7  and  N_8 
REMARK       I    between atoms: N_8  and  C_9 
REMARK    4  A    between atoms: C_9  and  C_10 
REMARK    5  A    between atoms: C_10  and  O_11 
REMARK    6  A    between atoms: N_12  and  C_13 
ROOT
HETATM    1  C   UNL     1      40.189 -11.579   4.798  1.00  0.00     0.256 C 
HETATM    2  N   UNL     1      41.321 -12.097   5.589  1.00  0.00    -0.254 N 
HETATM    3  C   UNL     1      42.210 -11.222   6.201  1.00  0.00     0.330 C 
HETATM    4  O   UNL     1      43.041 -11.525   7.059  1.00  0.00    -0.246 OA
HETATM    5  N   UNL     1      42.165  -9.911   5.851  1.00  0.00    -0.308 N 
HETATM    6  C   UNL     1      41.294  -9.336   4.947  1.00  0.00     0.048 A 
HETATM    7  C   UNL     1      40.290 -10.117   4.398  1.00  0.00     0.035 A 
HETATM    8  C   UNL     1      41.429  -7.983   4.622  1.00  0.00     0.031 A 
HETATM    9  C   UNL     1      40.545  -7.393   3.722  1.00  0.00     0.021 A 
HETATM   10  C   UNL     1      39.521  -8.157   3.172  1.00  0.00     0.011 A 
HETATM   11 BR   UNL     1      38.312  -7.370   1.951  1.00  0.00    -0.051 Br
HETATM   12  C   UNL     1      39.381  -9.504   3.513  1.00  0.00     0.034 A 
HETATM   13  H   UNL     1      42.871  -9.344   6.303  1.00  0.00     0.170 HD
ENDROOT
BRANCH   1  14
HETATM   14  C   UNL     1      40.017 -12.415   3.449  1.00  0.00     0.279 C 
HETATM   15  N   UNL     1      41.192 -12.512   2.715  1.00  0.00    -0.352 N 
HETATM   16  H   UNL     1      41.976 -11.941   3.018  1.00  0.00     0.162 HD
HETATM   17  O   UNL     1      38.975 -12.979   3.118  1.00  0.00    -0.268 OA
BRANCH  15  18
HETATM   18  C   UNL     1      41.297 -13.285   1.505  1.00  0.00     0.161 C 
BRANCH  18  19
HETATM   19  C   UNL     1      41.782 -14.686   1.762  1.00  0.00    -0.040 A 
HETATM   20  C   UNL     1      40.892 -15.701   2.133  1.00  0.00     0.011 A 
HETATM   21  C   UNL     1      41.351 -17.010   2.309  1.00  0.00     0.037 A 
HETATM   22  C   UNL     1      42.696 -17.325   2.113  1.00  0.00     0.068 A 
HETATM   23  C   UNL     1      43.596 -16.311   1.789  1.00  0.00     0.037 A 
HETATM   24  C   UNL     1      43.140 -15.000   1.614  1.00  0.00     0.011 A 
BRANCH  22  25
HETATM   25  O   UNL     1      43.013 -18.646   2.278  1.00  0.00    -0.356 OA
HETATM   26  C   UNL     1      44.189 -18.914   3.034  1.00  0.00     0.210 C 
ENDBRANCH  22  25
ENDBRANCH  18  19
ENDBRANCH  15  18
ENDBRANCH   1  14
BRANCH   1  27
HETATM   27  O   UNL     1      39.030 -11.650   5.634  1.00  0.00    -0.359 OA
HETATM   28  H   UNL     1      39.383 -11.464   6.522  1.00  0.00     0.213 HD
ENDBRANCH   1  27
BRANCH   2  29
HETATM   29  C   UNL     1      41.480 -13.530   5.774  1.00  0.00     0.042 A 
HETATM   30  C   UNL     1      40.486 -14.331   6.362  1.00  0.00     0.030 A 
HETATM   31  C   UNL     1      40.652 -15.715   6.512  1.00  0.00     0.002 A 
HETATM   32  C   UNL     1      41.817 -16.332   6.075  1.00  0.00     0.000 A 
HETATM   33  C   UNL     1      42.813 -15.568   5.483  1.00  0.00     0.002 A 
HETATM   34  C   UNL     1      42.642 -14.187   5.332  1.00  0.00     0.030 A 
ENDBRANCH   2  29
TORSDOF 6
ENDMDL
