MODEL 1
REMARK VINA RESULT:      -7.5      0.000      0.000
REMARK  2 active torsions:
REMARK  status: ('A' for Active; 'I' for Inactive)
REMARK    1  A    between atoms: C_2  and  C_3 
REMARK    2  A    between atoms: C_4  and  N_5 
ROOT
HETATM    1  N   UNL     1      41.925 -15.143   5.118  1.00  0.00    -0.321 N 
HETATM    2  C   UNL     1      40.655 -15.105   5.784  1.00  0.00     0.141 C 
HETATM    3  N   UNL     1      39.997 -16.187   6.089  1.00  0.00    -0.380 N 
HETATM    4  H   UNL     1      40.407 -17.086   5.874  1.00  0.00     0.158 HD
HETATM    5  H   UNL     1      39.096 -16.117   6.541  1.00  0.00     0.158 HD
HETATM    6  S   UNL     1      40.071 -13.504   6.064  1.00  0.00    -0.086 SA
HETATM    7  C   UNL     1      41.204 -12.874   4.783  1.00  0.00     0.093 C 
HETATM    8  C   UNL     1      42.448 -13.776   4.929  1.00  0.00     0.121 C 
HETATM    9  C   UNL     1      41.734 -11.462   4.822  1.00  0.00     0.158 C 
HETATM   10  S   UNL     1      43.207 -11.599   3.787  1.00  0.00     0.147 S 
HETATM   11  O   UNL     1      42.879 -11.134   2.457  1.00  0.00    -0.228 OA
HETATM   12  O   UNL     1      44.336 -11.091   4.538  1.00  0.00    -0.228 OA
HETATM   13  C   UNL     1      43.313 -13.400   3.749  1.00  0.00     0.167 C 
ENDROOT
BRANCH   1  14
HETATM   14  C   UNL     1      42.332 -16.152   4.235  1.00  0.00     0.043 A 
HETATM   15  C   UNL     1      43.306 -17.122   4.547  1.00  0.00    -0.028 A 
HETATM   16  C   UNL     1      43.609 -18.092   3.558  1.00  0.00     0.010 A 
HETATM   17  C   UNL     1      42.977 -18.114   2.316  1.00  0.00     0.001 A 
HETATM   18  C   UNL     1      42.011 -17.168   2.024  1.00  0.00     0.002 A 
HETATM   19  C   UNL     1      41.692 -16.202   2.974  1.00  0.00     0.030 A 
BRANCH  15  20
HETATM   20  C   UNL     1      44.056 -17.297   5.869  1.00  0.00     0.013 C 
HETATM   21  C   UNL     1      43.247 -17.615   7.126  1.00  0.00     0.015 C 
HETATM   22  C   UNL     1      44.986 -16.106   6.137  1.00  0.00     0.015 C 
ENDBRANCH  15  20
ENDBRANCH   1  14
TORSDOF 2
ENDMDL
MODEL 2
REMARK VINA RESULT:      -7.4      0.870      2.584
REMARK  2 active torsions:
REMARK  status: ('A' for Active; 'I' for Inactive)
REMARK    1  A    between atoms: C_2  and  C_3 
REMARK    2  A    between atoms: C_4  and  N_5 
ROOT
HETATM    1  N   UNL     1      41.942 -15.131   5.205  1.00  0.00    -0.321 N 
HETATM    2  C   UNL     1      40.620 -15.091   5.759  1.00  0.00     0.141 C 
HETATM    3  N   UNL     1      39.930 -16.172   5.990  1.00  0.00    -0.380 N 
HETATM    4  H   UNL     1      40.351 -17.071   5.797  1.00  0.00     0.158 HD
HETATM    5  H   UNL     1      38.994 -16.101   6.363  1.00  0.00     0.158 HD
HETATM    6  S   UNL     1      40.026 -13.490   6.013  1.00  0.00    -0.086 SA
HETATM    7  C   UNL     1      41.270 -12.851   4.845  1.00  0.00     0.093 C 
HETATM    8  C   UNL     1      42.490 -13.765   5.083  1.00  0.00     0.121 C 
HETATM    9  C   UNL     1      41.805 -11.444   4.952  1.00  0.00     0.158 C 
HETATM   10  S   UNL     1      43.361 -11.578   4.046  1.00  0.00     0.147 S 
HETATM   11  O   UNL     1      43.153 -11.090   2.700  1.00  0.00    -0.228 OA
HETATM   12  O   UNL     1      44.424 -11.091   4.899  1.00  0.00    -0.228 OA
HETATM   13  C   UNL     1      43.457 -13.379   3.989  1.00  0.00     0.167 C 
ENDROOT
BRANCH   1  14
HETATM   14  C   UNL     1      42.417 -16.129   4.344  1.00  0.00     0.043 A 
HETATM   15  C   UNL     1      41.980 -16.292   3.014  1.00  0.00    -0.028 A 
HETATM   16  C   UNL     1      42.559 -17.340   2.254  1.00  0.00     0.010 A 
HETATM   17  C   UNL     1      43.534 -18.189   2.776  1.00  0.00     0.001 A 
HETATM   18  C   UNL     1      43.969 -18.012   4.077  1.00  0.00     0.002 A 
HETATM   19  C   UNL     1      43.418 -16.992   4.848  1.00  0.00     0.030 A 
BRANCH  15  20
HETATM   20  C   UNL     1      40.975 -15.426   2.252  1.00  0.00     0.013 C 
HETATM   21  C   UNL     1      39.760 -16.106   1.622  1.00  0.00     0.015 C 
HETATM   22  C   UNL     1      41.681 -14.552   1.206  1.00  0.00     0.015 C 
ENDBRANCH  15  20
ENDBRANCH   1  14
TORSDOF 2
ENDMDL
MODEL 3
REMARK VINA RESULT:      -7.3      1.715      2.116
REMARK  2 active torsions:
REMARK  status: ('A' for Active; 'I' for Inactive)
REMARK    1  A    between atoms: C_2  and  C_3 
REMARK    2  A    between atoms: C_4  and  N_5 
ROOT
HETATM    1  N   UNL     1      41.153 -14.732   3.831  1.00  0.00    -0.321 N 
HETATM    2  C   UNL     1      40.048 -14.556   2.934  1.00  0.00     0.141 C 
HETATM    3  N   UNL     1      39.363 -15.563   2.470  1.00  0.00    -0.380 N 
HETATM    4  H   UNL     1      39.601 -16.498   2.774  1.00  0.00     0.158 HD
HETATM    5  H   UNL     1      38.603 -15.399   1.825  1.00  0.00     0.158 HD
HETATM    6  S   UNL     1      39.776 -12.912   2.487  1.00  0.00    -0.086 SA
HETATM    7  C   UNL     1      41.475 -12.498   3.002  1.00  0.00     0.093 C 
HETATM    8  C   UNL     1      41.718 -13.422   4.214  1.00  0.00     0.121 C 
HETATM    9  C   UNL     1      41.841 -11.115   3.482  1.00  0.00     0.158 C 
HETATM   10  S   UNL     1      43.349 -11.444   4.419  1.00  0.00     0.147 S 
HETATM   11  O   UNL     1      44.488 -11.142   3.578  1.00  0.00    -0.228 OA
HETATM   12  O   UNL     1      43.187 -10.888   5.746  1.00  0.00    -0.228 OA
HETATM   13  C   UNL     1      43.184 -13.237   4.528  1.00  0.00     0.167 C 
ENDROOT
BRANCH   1  14
HETATM   14  C   UNL     1      41.981 -15.862   3.866  1.00  0.00     0.043 A 
HETATM   15  C   UNL     1      42.225 -16.621   5.029  1.00  0.00    -0.028 A 
HETATM   16  C   UNL     1      43.076 -17.749   4.913  1.00  0.00     0.010 A 
HETATM   17  C   UNL     1      43.658 -18.122   3.703  1.00  0.00     0.001 A 
HETATM   18  C   UNL     1      43.401 -17.382   2.563  1.00  0.00     0.002 A 
HETATM   19  C   UNL     1      42.570 -16.268   2.646  1.00  0.00     0.030 A 
BRANCH  15  20
HETATM   20  C   UNL     1      41.629 -16.407   6.422  1.00  0.00     0.013 C 
HETATM   21  C   UNL     1      40.182 -15.928   6.528  1.00  0.00     0.015 C 
HETATM   22  C   UNL     1      42.536 -15.512   7.278  1.00  0.00     0.015 C 
ENDBRANCH  15  20
ENDBRANCH   1  14
TORSDOF 2
ENDMDL
MODEL 4
REMARK VINA RESULT:      -7.2      2.051      2.626
REMARK  2 active torsions:
REMARK  status: ('A' for Active; 'I' for Inactive)
REMARK    1  A    between atoms: C_2  and  C_3 
REMARK    2  A    between atoms: C_4  and  N_5 
ROOT
HETATM    1  N   UNL     1      41.489 -13.531   4.965  1.00  0.00    -0.321 N 
HETATM    2  C   UNL     1      40.370 -12.743   4.534  1.00  0.00     0.141 C 
HETATM    3  N   UNL     1      39.441 -13.222   3.756  1.00  0.00    -0.380 N 
HETATM    4  H   UNL     1      39.496 -14.189   3.467  1.00  0.00     0.158 HD
HETATM    5  H   UNL     1      38.680 -12.628   3.459  1.00  0.00     0.158 HD
HETATM    6  S   UNL     1      40.425 -11.108   5.085  1.00  0.00    -0.086 SA
HETATM    7  C   UNL     1      42.213 -11.279   5.393  1.00  0.00     0.093 C 
HETATM    8  C   UNL     1      42.359 -12.742   5.859  1.00  0.00     0.121 C 
HETATM    9  C   UNL     1      42.916 -10.457   6.446  1.00  0.00     0.158 C 
HETATM   10  S   UNL     1      44.396 -11.447   6.749  1.00  0.00     0.147 S 
HETATM   11  O   UNL     1      45.490 -10.883   5.988  1.00  0.00    -0.228 OA
HETATM   12  O   UNL     1      44.483 -11.706   8.170  1.00  0.00    -0.228 OA
HETATM   13  C   UNL     1      43.852 -12.958   5.927  1.00  0.00     0.167 C 
ENDROOT
BRANCH   1  14
HETATM   14  C   UNL     1      42.049 -14.588   4.235  1.00  0.00     0.043 A 
HETATM   15  C   UNL     1      42.083 -15.923   4.686  1.00  0.00    -0.028 A 
HETATM   16  C   UNL     1      42.671 -16.891   3.834  1.00  0.00     0.010 A 
HETATM   17  C   UNL     1      43.197 -16.565   2.585  1.00  0.00     0.001 A 
HETATM   18  C   UNL     1      43.145 -15.255   2.142  1.00  0.00     0.002 A 
HETATM   19  C   UNL     1      42.575 -14.281   2.958  1.00  0.00     0.030 A 
BRANCH  15  20
HETATM   20  C   UNL     1      41.503 -16.480   5.988  1.00  0.00     0.013 C 
HETATM   21  C   UNL     1      40.104 -16.032   6.411  1.00  0.00     0.015 C 
HETATM   22  C   UNL     1      42.484 -16.292   7.153  1.00  0.00     0.015 C 
ENDBRANCH  15  20
ENDBRANCH   1  14
TORSDOF 2
ENDMDL
MODEL 5
REMARK VINA RESULT:      -6.9      1.684      2.902
REMARK  2 active torsions:
REMARK  status: ('A' for Active; 'I' for Inactive)
REMARK    1  A    between atoms: C_2  and  C_3 
REMARK    2  A    between atoms: C_4  and  N_5 
ROOT
HETATM    1  N   UNL     1      42.086 -14.604   6.354  1.00  0.00    -0.321 N 
HETATM    2  C   UNL     1      40.715 -14.207   6.203  1.00  0.00     0.141 C 
HETATM    3  N   UNL     1      39.760 -15.069   5.999  1.00  0.00    -0.380 N 
HETATM    4  H   UNL     1      39.988 -16.054   5.973  1.00  0.00     0.158 HD
HETATM    5  H   UNL     1      38.811 -14.747   5.879  1.00  0.00     0.158 HD
HETATM    6  S   UNL     1      40.484 -12.497   6.246  1.00  0.00    -0.086 SA
HETATM    7  C   UNL     1      42.250 -12.255   5.868  1.00  0.00     0.093 C 
HETATM    8  C   UNL     1      42.938 -13.424   6.603  1.00  0.00     0.121 C 
HETATM    9  C   UNL     1      42.992 -11.018   6.314  1.00  0.00     0.158 C 
HETATM   10  S   UNL     1      44.706 -11.586   6.264  1.00  0.00     0.147 S 
HETATM   11  O   UNL     1      45.300 -11.145   5.020  1.00  0.00    -0.228 OA
HETATM   12  O   UNL     1      45.307 -11.324   7.554  1.00  0.00    -0.228 OA
HETATM   13  C   UNL     1      44.374 -13.355   6.139  1.00  0.00     0.167 C 
ENDROOT
BRANCH   1  14
HETATM   14  C   UNL     1      42.657 -15.739   5.764  1.00  0.00     0.043 A 
HETATM   15  C   UNL     1      42.757 -15.934   4.371  1.00  0.00    -0.028 A 
HETATM   16  C   UNL     1      43.372 -17.127   3.916  1.00  0.00     0.010 A 
HETATM   17  C   UNL     1      43.877 -18.087   4.790  1.00  0.00     0.001 A 
HETATM   18  C   UNL     1      43.790 -17.881   6.156  1.00  0.00     0.002 A 
HETATM   19  C   UNL     1      43.189 -16.719   6.633  1.00  0.00     0.030 A 
BRANCH  15  20
HETATM   20  C   UNL     1      42.323 -14.972   3.263  1.00  0.00     0.013 C 
HETATM   21  C   UNL     1      40.962 -15.190   2.603  1.00  0.00     0.015 C 
HETATM   22  C   UNL     1      43.408 -14.846   2.185  1.00  0.00     0.015 C 
ENDBRANCH  15  20
ENDBRANCH   1  14
TORSDOF 2
ENDMDL
MODEL 6
REMARK VINA RESULT:      -6.8      1.942      3.085
REMARK  2 active torsions:
REMARK  status: ('A' for Active; 'I' for Inactive)
REMARK    1  A    between atoms: C_2  and  C_3 
REMARK    2  A    between atoms: C_4  and  N_5 
ROOT
HETATM    1  N   UNL     1      40.617 -14.354   3.918  1.00  0.00    -0.321 N 
HETATM    2  C   UNL     1      39.875 -14.607   2.716  1.00  0.00     0.141 C 
HETATM    3  N   UNL     1      39.259 -15.735   2.505  1.00  0.00    -0.380 N 
HETATM    4  H   UNL     1      39.281 -16.446   3.223  1.00  0.00     0.158 HD
HETATM    5  H   UNL     1      38.763 -15.881   1.637  1.00  0.00     0.158 HD
HETATM    6  S   UNL     1      39.948 -13.313   1.576  1.00  0.00    -0.086 SA
HETATM    7  C   UNL     1      41.436 -12.671   2.408  1.00  0.00     0.093 C 
HETATM    8  C   UNL     1      41.181 -12.989   3.896  1.00  0.00     0.121 C 
HETATM    9  C   UNL     1      41.791 -11.205   2.373  1.00  0.00     0.158 C 
HETATM   10  S   UNL     1      42.882 -11.062   3.805  1.00  0.00     0.147 S 
HETATM   11  O   UNL     1      44.253 -11.110   3.344  1.00  0.00    -0.228 OA
HETATM   12  O   UNL     1      42.379 -10.003   4.654  1.00  0.00    -0.228 OA
HETATM   13  C   UNL     1      42.486 -12.645   4.574  1.00  0.00     0.167 C 
ENDROOT
BRANCH   1  14
HETATM   14  C   UNL     1      41.258 -15.338   4.682  1.00  0.00     0.043 A 
HETATM   15  C   UNL     1      42.091 -16.336   4.138  1.00  0.00    -0.028 A 
HETATM   16  C   UNL     1      42.684 -17.260   5.036  1.00  0.00     0.010 A 
HETATM   17  C   UNL     1      42.475 -17.203   6.412  1.00  0.00     0.001 A 
HETATM   18  C   UNL     1      41.668 -16.210   6.940  1.00  0.00     0.002 A 
HETATM   19  C   UNL     1      41.071 -15.289   6.084  1.00  0.00     0.030 A 
BRANCH  15  20
HETATM   20  C   UNL     1      42.489 -16.519   2.672  1.00  0.00     0.013 C 
HETATM   21  C   UNL     1      42.961 -17.899   2.214  1.00  0.00     0.015 C 
HETATM   22  C   UNL     1      43.505 -15.453   2.239  1.00  0.00     0.015 C 
ENDBRANCH  15  20
ENDBRANCH   1  14
TORSDOF 2
ENDMDL
MODEL 7
REMARK VINA RESULT:      -6.4     15.778     17.369
REMARK  2 active torsions:
REMARK  status: ('A' for Active; 'I' for Inactive)
REMARK    1  A    between atoms: C_2  and  C_3 
REMARK    2  A    between atoms: C_4  and  N_5 
ROOT
HETATM    1  N   UNL     1      46.525 -29.955  -0.401  1.00  0.00    -0.321 N 
HETATM    2  C   UNL     1      46.402 -29.255   0.845  1.00  0.00     0.141 C 
HETATM    3  N   UNL     1      45.293 -28.677   1.211  1.00  0.00    -0.380 N 
HETATM    4  H   UNL     1      44.483 -28.746   0.609  1.00  0.00     0.158 HD
HETATM    5  H   UNL     1      45.253 -28.178   2.088  1.00  0.00     0.158 HD
HETATM    6  S   UNL     1      47.868 -29.201   1.753  1.00  0.00    -0.086 SA
HETATM    7  C   UNL     1      48.811 -29.580   0.241  1.00  0.00     0.093 C 
HETATM    8  C   UNL     1      47.877 -30.532  -0.535  1.00  0.00     0.121 C 
HETATM    9  C   UNL     1      50.141 -30.292   0.296  1.00  0.00     0.158 C 
HETATM   10  S   UNL     1      50.270 -30.949  -1.382  1.00  0.00     0.147 S 
HETATM   11  O   UNL     1      51.103 -30.059  -2.161  1.00  0.00    -0.228 OA
HETATM   12  O   UNL     1      50.517 -32.373  -1.292  1.00  0.00    -0.228 OA
HETATM   13  C   UNL     1      48.553 -30.698  -1.876  1.00  0.00     0.167 C 
ENDROOT
BRANCH   1  14
HETATM   14  C   UNL     1      45.801 -29.650  -1.562  1.00  0.00     0.043 A 
HETATM   15  C   UNL     1      44.893 -30.537  -2.175  1.00  0.00    -0.028 A 
HETATM   16  C   UNL     1      44.220 -30.089  -3.340  1.00  0.00     0.010 A 
HETATM   17  C   UNL     1      44.423 -28.819  -3.877  1.00  0.00     0.001 A 
HETATM   18  C   UNL     1      45.304 -27.948  -3.259  1.00  0.00     0.002 A 
HETATM   19  C   UNL     1      45.980 -28.361  -2.114  1.00  0.00     0.030 A 
BRANCH  15  20
HETATM   20  C   UNL     1      44.493 -31.936  -1.701  1.00  0.00     0.013 C 
HETATM   21  C   UNL     1      43.897 -32.906  -2.721  1.00  0.00     0.015 C 
HETATM   22  C   UNL     1      43.587 -31.861  -0.465  1.00  0.00     0.015 C 
ENDBRANCH  15  20
ENDBRANCH   1  14
TORSDOF 2
ENDMDL
MODEL 8
REMARK VINA RESULT:      -6.3      2.797      5.347
REMARK  2 active torsions:
REMARK  status: ('A' for Active; 'I' for Inactive)
REMARK    1  A    between atoms: C_2  and  C_3 
REMARK    2  A    between atoms: C_4  and  N_5 
ROOT
HETATM    1  N   UNL     1      42.379 -14.848   6.040  1.00  0.00    -0.321 N 
HETATM    2  C   UNL     1      42.753 -15.893   6.949  1.00  0.00     0.141 C 
HETATM    3  N   UNL     1      42.933 -15.677   8.221  1.00  0.00    -0.380 N 
HETATM    4  H   UNL     1      42.777 -14.747   8.585  1.00  0.00     0.158 HD
HETATM    5  H   UNL     1      43.214 -16.436   8.824  1.00  0.00     0.158 HD
HETATM    6  S   UNL     1      43.006 -17.418   6.180  1.00  0.00    -0.086 SA
HETATM    7  C   UNL     1      43.203 -16.570   4.579  1.00  0.00     0.093 C 
HETATM    8  C   UNL     1      42.218 -15.387   4.675  1.00  0.00     0.121 C 
HETATM    9  C   UNL     1      42.871 -17.255   3.276  1.00  0.00     0.158 C 
HETATM   10  S   UNL     1      42.626 -15.843   2.177  1.00  0.00     0.147 S 
HETATM   11  O   UNL     1      43.843 -15.631   1.423  1.00  0.00    -0.228 OA
HETATM   12  O   UNL     1      41.330 -15.980   1.546  1.00  0.00    -0.228 OA
HETATM   13  C   UNL     1      42.512 -14.564   3.443  1.00  0.00     0.167 C 
ENDROOT
BRANCH   1  14
HETATM   14  C   UNL     1      42.712 -13.496   6.198  1.00  0.00     0.043 A 
HETATM   15  C   UNL     1      41.774 -12.445   6.142  1.00  0.00    -0.028 A 
HETATM   16  C   UNL     1      42.253 -11.124   6.333  1.00  0.00     0.010 A 
HETATM   17  C   UNL     1      43.596 -10.846   6.579  1.00  0.00     0.001 A 
HETATM   18  C   UNL     1      44.508 -11.884   6.649  1.00  0.00     0.002 A 
HETATM   19  C   UNL     1      44.068 -13.192   6.464  1.00  0.00     0.030 A 
BRANCH  15  20
HETATM   20  C   UNL     1      40.260 -12.558   5.948  1.00  0.00     0.013 C 
HETATM   21  C   UNL     1      39.718 -12.694   4.526  1.00  0.00     0.015 C 
HETATM   22  C   UNL     1      39.525 -11.426   6.678  1.00  0.00     0.015 C 
ENDBRANCH  15  20
ENDBRANCH   1  14
TORSDOF 2
ENDMDL
MODEL 9
REMARK VINA RESULT:      -6.3      3.765      5.813
REMARK  2 active torsions:
REMARK  status: ('A' for Active; 'I' for Inactive)
REMARK    1  A    between atoms: C_2  and  C_3 
REMARK    2  A    between atoms: C_4  and  N_5 
ROOT
HETATM    1  N   UNL     1      40.536 -13.623   2.158  1.00  0.00    -0.321 N 
HETATM    2  C   UNL     1      40.202 -14.870   2.783  1.00  0.00     0.141 C 
HETATM    3  N   UNL     1      39.199 -15.600   2.385  1.00  0.00    -0.380 N 
HETATM    4  H   UNL     1      38.654 -15.291   1.591  1.00  0.00     0.158 HD
HETATM    5  H   UNL     1      38.984 -16.462   2.865  1.00  0.00     0.158 HD
HETATM    6  S   UNL     1      41.203 -15.253   4.136  1.00  0.00    -0.086 SA
HETATM    7  C   UNL     1      41.690 -13.502   4.263  1.00  0.00     0.093 C 
HETATM    8  C   UNL     1      41.731 -13.033   2.794  1.00  0.00     0.121 C 
HETATM    9  C   UNL     1      43.021 -13.092   4.844  1.00  0.00     0.158 C 
HETATM   10  S   UNL     1      43.226 -11.438   4.149  1.00  0.00     0.147 S 
HETATM   11  O   UNL     1      42.818 -10.468   5.142  1.00  0.00    -0.228 OA
HETATM   12  O   UNL     1      44.511 -11.383   3.484  1.00  0.00    -0.228 OA
HETATM   13  C   UNL     1      41.937 -11.539   2.891  1.00  0.00     0.167 C 
ENDROOT
BRANCH   1  14
HETATM   14  C   UNL     1      39.617 -12.774   1.527  1.00  0.00     0.043 A 
HETATM   15  C   UNL     1      39.456 -12.691   0.129  1.00  0.00    -0.028 A 
HETATM   16  C   UNL     1      38.475 -11.796  -0.369  1.00  0.00     0.010 A 
HETATM   17  C   UNL     1      37.678 -11.020   0.471  1.00  0.00     0.001 A 
HETATM   18  C   UNL     1      37.831 -11.119   1.843  1.00  0.00     0.002 A 
HETATM   19  C   UNL     1      38.787 -11.989   2.361  1.00  0.00     0.030 A 
BRANCH  15  20
HETATM   20  C   UNL     1      40.186 -13.504  -0.942  1.00  0.00     0.013 C 
HETATM   21  C   UNL     1      40.569 -12.807  -2.248  1.00  0.00     0.015 C 
HETATM   22  C   UNL     1      39.439 -14.809  -1.249  1.00  0.00     0.015 C 
ENDBRANCH  15  20
ENDBRANCH   1  14
TORSDOF 2
ENDMDL
MODEL 10
REMARK VINA RESULT:      -6.3      2.616      3.920
REMARK  2 active torsions:
REMARK  status: ('A' for Active; 'I' for Inactive)
REMARK    1  A    between atoms: C_2  and  C_3 
REMARK    2  A    between atoms: C_4  and  N_5 
ROOT
HETATM    1  N   UNL     1      42.445 -13.507   3.911  1.00  0.00    -0.321 N 
HETATM    2  C   UNL     1      43.150 -12.367   4.421  1.00  0.00     0.141 C 
HETATM    3  N   UNL     1      43.769 -12.388   5.568  1.00  0.00    -0.380 N 
HETATM    4  H   UNL     1      43.776 -13.246   6.104  1.00  0.00     0.158 HD
HETATM    5  H   UNL     1      44.238 -11.558   5.901  1.00  0.00     0.158 HD
HETATM    6  S   UNL     1      43.032 -10.973   3.410  1.00  0.00    -0.086 SA
HETATM    7  C   UNL     1      41.565 -11.692   2.602  1.00  0.00     0.093 C 
HETATM    8  C   UNL     1      41.870 -13.205   2.585  1.00  0.00     0.121 C 
HETATM    9  C   UNL     1      41.198 -11.348   1.179  1.00  0.00     0.158 C 
HETATM   10  S   UNL     1      40.151 -12.748   0.727  1.00  0.00     0.147 S 
HETATM   11  O   UNL     1      38.767 -12.355   0.876  1.00  0.00    -0.228 OA
HETATM   12  O   UNL     1      40.673 -13.327  -0.494  1.00  0.00    -0.228 OA
HETATM   13  C   UNL     1      40.584 -13.833   2.102  1.00  0.00     0.167 C 
ENDROOT
BRANCH   1  14
HETATM   14  C   UNL     1      41.837 -14.490   4.704  1.00  0.00     0.043 A 
HETATM   15  C   UNL     1      42.213 -15.848   4.694  1.00  0.00    -0.028 A 
HETATM   16  C   UNL     1      41.517 -16.730   5.560  1.00  0.00     0.010 A 
HETATM   17  C   UNL     1      40.500 -16.295   6.408  1.00  0.00     0.001 A 
HETATM   18  C   UNL     1      40.149 -14.956   6.423  1.00  0.00     0.002 A 
HETATM   19  C   UNL     1      40.813 -14.067   5.583  1.00  0.00     0.030 A 
BRANCH  15  20
HETATM   20  C   UNL     1      43.339 -16.498   3.887  1.00  0.00     0.013 C 
HETATM   21  C   UNL     1      43.041 -16.951   2.458  1.00  0.00     0.015 C 
HETATM   22  C   UNL     1      43.989 -17.646   4.671  1.00  0.00     0.015 C 
ENDBRANCH  15  20
ENDBRANCH   1  14
TORSDOF 2
ENDMDL
