MODEL 1
REMARK VINA RESULT:      -9.1      0.000      0.000
REMARK  6 active torsions:
REMARK  status: ('A' for Active; 'I' for Inactive)
REMARK    1  A    between atoms: C_4  and  C_5 
REMARK    2  A    between atoms: C_5  and  N_6 
REMARK    3  A    between atoms: C_8  and  C_9 
REMARK       I    between atoms: C_9  and  N_10 
REMARK    4  A    between atoms: N_13  and  C_15 
REMARK    5  A    between atoms: C_29  and  S_30 
REMARK    6  A    between atoms: S_30  and  C_31 
ROOT
HETATM    1  N   UNL     1      43.275 -13.990   6.016  1.00  0.00    -0.053 N 
HETATM    2  H   UNL     1      43.906 -13.490   5.376  1.00  0.00     0.281 HD
HETATM    3  C   UNL     1      42.083 -14.439   5.129  1.00  0.00     0.281 C 
HETATM    4  C   UNL     1      41.814 -15.845   5.653  1.00  0.00     0.060 C 
HETATM    5  C   UNL     1      43.210 -16.434   5.828  1.00  0.00     0.083 C 
HETATM    6  C   UNL     1      44.004 -15.275   6.438  1.00  0.00     0.252 C 
ENDROOT
BRANCH   3   7
HETATM    7  C   UNL     1      40.842 -13.532   4.992  1.00  0.00     0.251 C 
HETATM    8  N   UNL     1      40.655 -12.804   3.818  1.00  0.00    -0.347 N 
HETATM    9  C   UNL     1      39.401 -12.063   3.641  1.00  0.00     0.153 C 
HETATM   10  C   UNL     1      41.695 -12.384   2.876  1.00  0.00     0.153 C 
HETATM   11  C   UNL     1      38.841 -12.251   2.222  1.00  0.00     0.255 C 
HETATM   12  N   UNL     1      39.875 -11.921   1.129  1.00  0.00    -0.063 N 
HETATM   13  H   UNL     1      40.005 -10.900   1.139  1.00  0.00     0.280 HD
HETATM   14  C   UNL     1      41.241 -12.566   1.416  1.00  0.00     0.255 C 
HETATM   15  O   UNL     1      40.029 -13.437   5.909  1.00  0.00    -0.271 OA
BRANCH  12  16
HETATM   16  C   UNL     1      39.356 -12.325  -0.278  1.00  0.00     0.196 C 
HETATM   17  C   UNL     1      38.064 -11.559  -0.671  1.00  0.00     0.017 C 
HETATM   18  C   UNL     1      38.346 -10.057  -0.859  1.00  0.00     0.011 C 
HETATM   19  C   UNL     1      37.544 -12.136  -2.005  1.00  0.00     0.011 C 
HETATM   20  C   UNL     1      39.400  -9.851  -1.959  1.00  0.00    -0.013 C 
HETATM   21  C   UNL     1      40.697 -10.580  -1.567  1.00  0.00     0.011 C 
HETATM   22  C   UNL     1      38.872 -10.439  -3.281  1.00  0.00     0.009 C 
HETATM   23  C   UNL     1      40.425 -12.084  -1.379  1.00  0.00     0.017 C 
HETATM   24  C   UNL     1      39.889 -12.656  -2.709  1.00  0.00     0.011 C 
HETATM   25  C   UNL     1      38.591 -11.941  -3.113  1.00  0.00    -0.013 C 
ENDBRANCH  12  16
ENDBRANCH   3   7
BRANCH   1  26
HETATM   26  C   UNL     1      43.089 -12.995   7.156  1.00  0.00     0.274 C 
BRANCH  26  27
HETATM   27  C   UNL     1      44.162 -11.954   7.376  1.00  0.00    -0.033 A 
HETATM   28  C   UNL     1      44.101 -11.107   8.500  1.00  0.00     0.009 A 
HETATM   29  C   UNL     1      45.091 -10.154   8.740  1.00  0.00     0.001 A 
HETATM   30  C   UNL     1      46.173 -10.042   7.874  1.00  0.00     0.000 A 
HETATM   31  C   UNL     1      46.268 -10.890   6.774  1.00  0.00     0.001 A 
HETATM   32  C   UNL     1      45.271 -11.840   6.528  1.00  0.00     0.009 A 
ENDBRANCH  26  27
ENDBRANCH   1  26
BRANCH   5  33
HETATM   33  S   UNL     1      43.878 -16.944   4.196  1.00  0.00    -0.084 SA
BRANCH  33  34
HETATM   34  C   UNL     1      43.840 -18.714   4.391  1.00  0.00     0.188 A 
HETATM   35  N   UNL     1      43.867 -19.209   5.639  1.00  0.00    -0.235 NA
HETATM   36  C   UNL     1      43.831 -20.554   5.738  1.00  0.00     0.121 A 
HETATM   37  C   UNL     1      43.821 -21.395   4.650  1.00  0.00     0.038 A 
HETATM   38  C   UNL     1      43.846 -20.777   3.423  1.00  0.00     0.121 A 
HETATM   39  N   UNL     1      43.865 -19.438   3.267  1.00  0.00    -0.235 NA
ENDBRANCH  33  34
ENDBRANCH   5  33
TORSDOF 6
ENDMDL
MODEL 2
REMARK VINA RESULT:      -9.0      2.237      8.503
REMARK  6 active torsions:
REMARK  status: ('A' for Active; 'I' for Inactive)
REMARK    1  A    between atoms: C_4  and  C_5 
REMARK    2  A    between atoms: C_5  and  N_6 
REMARK    3  A    between atoms: C_8  and  C_9 
REMARK       I    between atoms: C_9  and  N_10 
REMARK    4  A    between atoms: N_13  and  C_15 
REMARK    5  A    between atoms: C_29  and  S_30 
REMARK    6  A    between atoms: S_30  and  C_31 
ROOT
HETATM    1  N   UNL     1      41.181 -14.447   1.475  1.00  0.00    -0.053 N 
HETATM    2  H   UNL     1      40.369 -15.044   1.270  1.00  0.00     0.281 HD
HETATM    3  C   UNL     1      41.169 -14.278   3.018  1.00  0.00     0.281 C 
HETATM    4  C   UNL     1      42.652 -14.386   3.357  1.00  0.00     0.060 C 
HETATM    5  C   UNL     1      43.135 -15.536   2.479  1.00  0.00     0.083 C 
HETATM    6  C   UNL     1      42.432 -15.275   1.144  1.00  0.00     0.252 C 
ENDROOT
BRANCH   3   7
HETATM    7  C   UNL     1      40.427 -13.085   3.656  1.00  0.00     0.251 C 
HETATM    8  N   UNL     1      40.873 -12.575   4.874  1.00  0.00    -0.347 N 
HETATM    9  C   UNL     1      40.252 -11.351   5.395  1.00  0.00     0.153 C 
HETATM   10  C   UNL     1      41.642 -13.294   5.892  1.00  0.00     0.153 C 
HETATM   11  C   UNL     1      41.313 -10.382   5.943  1.00  0.00     0.255 C 
HETATM   12  N   UNL     1      42.249 -11.047   6.970  1.00  0.00    -0.063 N 
HETATM   13  H   UNL     1      41.693 -11.208   7.820  1.00  0.00     0.280 HD
HETATM   14  C   UNL     1      42.758 -12.414   6.483  1.00  0.00     0.255 C 
HETATM   15  O   UNL     1      39.444 -12.592   3.107  1.00  0.00    -0.271 OA
BRANCH  12  16
HETATM   16  C   UNL     1      43.433 -10.113   7.339  1.00  0.00     0.196 C 
HETATM   17  C   UNL     1      42.989  -8.925   8.235  1.00  0.00     0.017 C 
HETATM   18  C   UNL     1      42.533  -9.417   9.621  1.00  0.00     0.011 C 
HETATM   19  C   UNL     1      44.194  -7.979   8.418  1.00  0.00     0.011 C 
HETATM   20  C   UNL     1      43.679 -10.166  10.320  1.00  0.00    -0.013 C 
HETATM   21  C   UNL     1      44.107 -11.365   9.457  1.00  0.00     0.011 C 
HETATM   22  C   UNL     1      44.876  -9.213  10.488  1.00  0.00     0.009 C 
HETATM   23  C   UNL     1      44.569 -10.882   8.069  1.00  0.00     0.017 C 
HETATM   24  C   UNL     1      45.763  -9.922   8.255  1.00  0.00     0.011 C 
HETATM   25  C   UNL     1      45.350  -8.716   9.112  1.00  0.00    -0.013 C 
ENDBRANCH  12  16
ENDBRANCH   3   7
BRANCH   1  26
HETATM   26  C   UNL     1      40.974 -13.259   0.542  1.00  0.00     0.274 C 
BRANCH  26  27
HETATM   27  C   UNL     1      40.235 -13.491  -0.755  1.00  0.00    -0.033 A 
HETATM   28  C   UNL     1      40.286 -12.523  -1.777  1.00  0.00     0.009 A 
HETATM   29  C   UNL     1      39.634 -12.723  -2.994  1.00  0.00     0.001 A 
HETATM   30  C   UNL     1      38.934 -13.903  -3.222  1.00  0.00     0.000 A 
HETATM   31  C   UNL     1      38.896 -14.885  -2.236  1.00  0.00     0.001 A 
HETATM   32  C   UNL     1      39.543 -14.682  -1.013  1.00  0.00     0.009 A 
ENDBRANCH  26  27
ENDBRANCH   1  26
BRANCH   5  33
HETATM   33  S   UNL     1      42.634 -17.138   3.221  1.00  0.00    -0.084 SA
BRANCH  33  34
HETATM   34  C   UNL     1      43.066 -16.835   4.921  1.00  0.00     0.188 A 
HETATM   35  N   UNL     1      44.370 -16.749   5.233  1.00  0.00    -0.235 NA
HETATM   36  C   UNL     1      44.649 -16.513   6.531  1.00  0.00     0.121 A 
HETATM   37  C   UNL     1      43.687 -16.415   7.509  1.00  0.00     0.038 A 
HETATM   38  C   UNL     1      42.390 -16.571   7.082  1.00  0.00     0.121 A 
HETATM   39  N   UNL     1      42.054 -16.791   5.795  1.00  0.00    -0.235 NA
ENDBRANCH  33  34
ENDBRANCH   5  33
TORSDOF 6
ENDMDL
MODEL 3
REMARK VINA RESULT:      -8.8      3.936     10.210
REMARK  6 active torsions:
REMARK  status: ('A' for Active; 'I' for Inactive)
REMARK    1  A    between atoms: C_4  and  C_5 
REMARK    2  A    between atoms: C_5  and  N_6 
REMARK    3  A    between atoms: C_8  and  C_9 
REMARK       I    between atoms: C_9  and  N_10 
REMARK    4  A    between atoms: N_13  and  C_15 
REMARK    5  A    between atoms: C_29  and  S_30 
REMARK    6  A    between atoms: S_30  and  C_31 
ROOT
HETATM    1  N   UNL     1      42.066 -12.914   4.609  1.00  0.00    -0.053 N 
HETATM    2  H   UNL     1      42.505 -12.566   3.746  1.00  0.00     0.281 HD
HETATM    3  C   UNL     1      42.031 -11.687   5.559  1.00  0.00     0.281 C 
HETATM    4  C   UNL     1      40.658 -11.829   6.205  1.00  0.00     0.060 C 
HETATM    5  C   UNL     1      39.754 -12.219   5.039  1.00  0.00     0.083 C 
HETATM    6  C   UNL     1      40.603 -13.231   4.263  1.00  0.00     0.252 C 
ENDROOT
BRANCH   3   7
HETATM    7  C   UNL     1      43.201 -11.436   6.533  1.00  0.00     0.251 C 
HETATM    8  N   UNL     1      43.055 -10.491   7.547  1.00  0.00    -0.347 N 
HETATM    9  C   UNL     1      44.116 -10.367   8.554  1.00  0.00     0.153 C 
HETATM   10  C   UNL     1      42.142  -9.345   7.547  1.00  0.00     0.153 C 
HETATM   11  C   UNL     1      43.526 -10.246   9.968  1.00  0.00     0.255 C 
HETATM   12  N   UNL     1      42.479  -9.122  10.080  1.00  0.00    -0.063 N 
HETATM   13  H   UNL     1      42.990  -8.231  10.020  1.00  0.00     0.280 HD
HETATM   14  C   UNL     1      41.470  -9.158   8.920  1.00  0.00     0.255 C 
HETATM   15  O   UNL     1      44.260 -12.050   6.415  1.00  0.00    -0.271 OA
BRANCH  12  16
HETATM   16  C   UNL     1      41.750  -9.166  11.450  1.00  0.00     0.196 C 
HETATM   17  C   UNL     1      42.742  -9.201  12.644  1.00  0.00     0.017 C 
HETATM   18  C   UNL     1      43.528  -7.881  12.749  1.00  0.00     0.011 C 
HETATM   19  C   UNL     1      41.932  -9.398  13.943  1.00  0.00     0.011 C 
HETATM   20  C   UNL     1      42.560  -6.703  12.941  1.00  0.00    -0.013 C 
HETATM   21  C   UNL     1      41.591  -6.638  11.748  1.00  0.00     0.011 C 
HETATM   22  C   UNL     1      41.754  -6.917  14.234  1.00  0.00     0.009 C 
HETATM   23  C   UNL     1      40.798  -7.953  11.637  1.00  0.00     0.017 C 
HETATM   24  C   UNL     1      40.001  -8.158  12.943  1.00  0.00     0.011 C 
HETATM   25  C   UNL     1      40.956  -8.229  14.145  1.00  0.00    -0.013 C 
ENDBRANCH  12  16
ENDBRANCH   3   7
BRANCH   1  26
HETATM   26  C   UNL     1      42.895 -14.151   4.935  1.00  0.00     0.274 C 
BRANCH  26  27
HETATM   27  C   UNL     1      42.993 -15.240   3.893  1.00  0.00    -0.033 A 
HETATM   28  C   UNL     1      43.243 -14.907   2.547  1.00  0.00     0.009 A 
HETATM   29  C   UNL     1      43.363 -15.895   1.569  1.00  0.00     0.001 A 
HETATM   30  C   UNL     1      43.254 -17.237   1.919  1.00  0.00     0.000 A 
HETATM   31  C   UNL     1      43.037 -17.588   3.248  1.00  0.00     0.001 A 
HETATM   32  C   UNL     1      42.909 -16.598   4.228  1.00  0.00     0.009 A 
ENDBRANCH  26  27
ENDBRANCH   1  26
BRANCH   5  33
HETATM   33  S   UNL     1      39.360 -10.735   4.034  1.00  0.00    -0.084 SA
BRANCH  33  34
HETATM   34  C   UNL     1      39.806 -11.334   2.418  1.00  0.00     0.188 A 
HETATM   35  N   UNL     1      41.059 -11.113   1.989  1.00  0.00    -0.235 NA
HETATM   36  C   UNL     1      41.353 -11.590   0.762  1.00  0.00     0.121 A 
HETATM   37  C   UNL     1      40.436 -12.219  -0.047  1.00  0.00     0.038 A 
HETATM   38  C   UNL     1      39.171 -12.344   0.475  1.00  0.00     0.121 A 
HETATM   39  N   UNL     1      38.829 -11.901   1.702  1.00  0.00    -0.235 NA
ENDBRANCH  33  34
ENDBRANCH   5  33
TORSDOF 6
ENDMDL
MODEL 4
REMARK VINA RESULT:      -8.7      2.444      6.022
REMARK  6 active torsions:
REMARK  status: ('A' for Active; 'I' for Inactive)
REMARK    1  A    between atoms: C_4  and  C_5 
REMARK    2  A    between atoms: C_5  and  N_6 
REMARK    3  A    between atoms: C_8  and  C_9 
REMARK       I    between atoms: C_9  and  N_10 
REMARK    4  A    between atoms: N_13  and  C_15 
REMARK    5  A    between atoms: C_29  and  S_30 
REMARK    6  A    between atoms: S_30  and  C_31 
ROOT
HETATM    1  N   UNL     1      41.421 -14.375   3.958  1.00  0.00    -0.053 N 
HETATM    2  H   UNL     1      40.574 -13.966   4.375  1.00  0.00     0.281 HD
HETATM    3  C   UNL     1      41.646 -13.570   2.650  1.00  0.00     0.281 C 
HETATM    4  C   UNL     1      43.160 -13.391   2.649  1.00  0.00     0.060 C 
HETATM    5  C   UNL     1      43.480 -13.051   4.101  1.00  0.00     0.083 C 
HETATM    6  C   UNL     1      42.588 -14.016   4.890  1.00  0.00     0.252 C 
ENDROOT
BRANCH   3   7
HETATM    7  C   UNL     1      41.035 -14.071   1.324  1.00  0.00     0.251 C 
HETATM    8  N   UNL     1      39.960 -13.383   0.764  1.00  0.00    -0.347 N 
HETATM    9  C   UNL     1      39.485 -13.780  -0.566  1.00  0.00     0.153 C 
HETATM   10  C   UNL     1      38.999 -12.537   1.476  1.00  0.00     0.153 C 
HETATM   11  C   UNL     1      39.211 -12.550  -1.446  1.00  0.00     0.255 C 
HETATM   12  N   UNL     1      38.271 -11.534  -0.769  1.00  0.00    -0.063 N 
HETATM   13  H   UNL     1      37.335 -11.958  -0.752  1.00  0.00     0.280 HD
HETATM   14  C   UNL     1      38.681 -11.254   0.687  1.00  0.00     0.255 C 
HETATM   15  O   UNL     1      41.478 -15.073   0.768  1.00  0.00    -0.271 OA
BRANCH  12  16
HETATM   16  C   UNL     1      38.188 -10.214  -1.584  1.00  0.00     0.196 C 
HETATM   17  C   UNL     1      37.677 -10.448  -3.031  1.00  0.00     0.017 C 
HETATM   18  C   UNL     1      36.208 -10.912  -3.032  1.00  0.00     0.011 C 
HETATM   19  C   UNL     1      37.774  -9.114  -3.801  1.00  0.00     0.011 C 
HETATM   20  C   UNL     1      35.320  -9.856  -2.355  1.00  0.00    -0.013 C 
HETATM   21  C   UNL     1      35.796  -9.638  -0.909  1.00  0.00     0.011 C 
HETATM   22  C   UNL     1      35.434  -8.530  -3.128  1.00  0.00     0.009 C 
HETATM   23  C   UNL     1      37.264  -9.170  -0.898  1.00  0.00     0.017 C 
HETATM   24  C   UNL     1      37.362  -7.845  -1.684  1.00  0.00     0.011 C 
HETATM   25  C   UNL     1      36.894  -8.047  -3.132  1.00  0.00    -0.013 C 
ENDBRANCH  12  16
ENDBRANCH   3   7
BRANCH   1  26
HETATM   26  C   UNL     1      41.100 -15.865   3.931  1.00  0.00     0.274 C 
BRANCH  26  27
HETATM   27  C   UNL     1      42.252 -16.842   3.895  1.00  0.00    -0.033 A 
HETATM   28  C   UNL     1      42.895 -17.216   5.091  1.00  0.00     0.009 A 
HETATM   29  C   UNL     1      43.945 -18.136   5.089  1.00  0.00     0.001 A 
HETATM   30  C   UNL     1      44.359 -18.715   3.894  1.00  0.00     0.000 A 
HETATM   31  C   UNL     1      43.717 -18.381   2.705  1.00  0.00     0.001 A 
HETATM   32  C   UNL     1      42.670 -17.454   2.706  1.00  0.00     0.009 A 
ENDBRANCH  26  27
ENDBRANCH   1  26
BRANCH   5  33
HETATM   33  S   UNL     1      43.062 -11.296   4.436  1.00  0.00    -0.084 SA
BRANCH  33  34
HETATM   34  C   UNL     1      43.958 -11.054   5.956  1.00  0.00     0.188 A 
HETATM   35  N   UNL     1      43.256 -10.729   7.054  1.00  0.00    -0.235 NA
HETATM   36  C   UNL     1      43.976 -10.561   8.183  1.00  0.00     0.121 A 
HETATM   37  C   UNL     1      45.347 -10.657   8.229  1.00  0.00     0.038 A 
HETATM   38  C   UNL     1      45.963 -10.944   7.035  1.00  0.00     0.121 A 
HETATM   39  N   UNL     1      45.291 -11.138   5.882  1.00  0.00    -0.235 NA
ENDBRANCH  33  34
ENDBRANCH   5  33
TORSDOF 6
ENDMDL
MODEL 5
REMARK VINA RESULT:      -8.6      4.084     10.314
REMARK  6 active torsions:
REMARK  status: ('A' for Active; 'I' for Inactive)
REMARK    1  A    between atoms: C_4  and  C_5 
REMARK    2  A    between atoms: C_5  and  N_6 
REMARK    3  A    between atoms: C_8  and  C_9 
REMARK       I    between atoms: C_9  and  N_10 
REMARK    4  A    between atoms: N_13  and  C_15 
REMARK    5  A    between atoms: C_29  and  S_30 
REMARK    6  A    between atoms: S_30  and  C_31 
ROOT
HETATM    1  N   UNL     1      42.578 -13.790   4.659  1.00  0.00    -0.053 N 
HETATM    2  H   UNL     1      43.194 -13.727   3.837  1.00  0.00     0.281 HD
HETATM    3  C   UNL     1      42.654 -12.388   5.320  1.00  0.00     0.281 C 
HETATM    4  C   UNL     1      41.202 -12.152   5.722  1.00  0.00     0.060 C 
HETATM    5  C   UNL     1      40.413 -12.649   4.516  1.00  0.00     0.083 C 
HETATM    6  C   UNL     1      41.145 -13.936   4.125  1.00  0.00     0.252 C 
ENDROOT
BRANCH   3   7
HETATM    7  C   UNL     1      43.701 -12.112   6.419  1.00  0.00     0.251 C 
HETATM    8  N   UNL     1      43.472 -11.093   7.342  1.00  0.00    -0.347 N 
HETATM    9  C   UNL     1      44.401 -10.937   8.467  1.00  0.00     0.153 C 
HETATM   10  C   UNL     1      42.619  -9.917   7.150  1.00  0.00     0.153 C 
HETATM   11  C   UNL     1      43.643 -10.696   9.782  1.00  0.00     0.255 C 
HETATM   12  N   UNL     1      42.642  -9.529   9.685  1.00  0.00    -0.063 N 
HETATM   13  H   UNL     1      43.197  -8.664   9.633  1.00  0.00     0.280 HD
HETATM   14  C   UNL     1      41.788  -9.610   8.409  1.00  0.00     0.255 C 
HETATM   15  O   UNL     1      44.738 -12.771   6.479  1.00  0.00    -0.271 OA
BRANCH  12  16
HETATM   16  C   UNL     1      41.745  -9.450  10.949  1.00  0.00     0.196 C 
HETATM   17  C   UNL     1      42.572  -9.498  12.262  1.00  0.00     0.017 C 
HETATM   18  C   UNL     1      43.442  -8.237  12.415  1.00  0.00     0.011 C 
HETATM   19  C   UNL     1      41.590  -9.569  13.451  1.00  0.00     0.011 C 
HETATM   20  C   UNL     1      42.555  -6.981  12.432  1.00  0.00    -0.013 C 
HETATM   21  C   UNL     1      41.753  -6.904  11.122  1.00  0.00     0.011 C 
HETATM   22  C   UNL     1      41.577  -7.070  13.617  1.00  0.00     0.009 C 
HETATM   23  C   UNL     1      40.877  -8.161  10.962  1.00  0.00     0.017 C 
HETATM   24  C   UNL     1      39.908  -8.240  12.160  1.00  0.00     0.011 C 
HETATM   25  C   UNL     1      40.694  -8.321  13.477  1.00  0.00    -0.013 C 
ENDBRANCH  12  16
ENDBRANCH   3   7
BRANCH   1  26
HETATM   26  C   UNL     1      43.092 -15.036   5.372  1.00  0.00     0.274 C 
BRANCH  26  27
HETATM   27  C   UNL     1      43.416 -16.253   4.538  1.00  0.00    -0.033 A 
HETATM   28  C   UNL     1      44.013 -17.379   5.137  1.00  0.00     0.009 A 
HETATM   29  C   UNL     1      44.300 -18.526   4.395  1.00  0.00     0.001 A 
HETATM   30  C   UNL     1      43.978 -18.577   3.043  1.00  0.00     0.000 A 
HETATM   31  C   UNL     1      43.362 -17.486   2.438  1.00  0.00     0.001 A 
HETATM   32  C   UNL     1      43.080 -16.334   3.180  1.00  0.00     0.009 A 
ENDBRANCH  26  27
ENDBRANCH   1  26
BRANCH   5  33
HETATM   33  S   UNL     1      40.466 -11.393   3.178  1.00  0.00    -0.084 SA
BRANCH  33  34
HETATM   34  C   UNL     1      39.813  -9.987   4.055  1.00  0.00     0.188 A 
HETATM   35  N   UNL     1      40.642  -8.959   4.299  1.00  0.00    -0.235 NA
HETATM   36  C   UNL     1      40.103  -7.914   4.960  1.00  0.00     0.121 A 
HETATM   37  C   UNL     1      38.806  -7.893   5.417  1.00  0.00     0.038 A 
HETATM   38  C   UNL     1      38.066  -9.020   5.154  1.00  0.00     0.121 A 
HETATM   39  N   UNL     1      38.550 -10.085   4.482  1.00  0.00    -0.235 NA
ENDBRANCH  33  34
ENDBRANCH   5  33
TORSDOF 6
ENDMDL
MODEL 6
REMARK VINA RESULT:      -8.4      2.827      6.404
REMARK  6 active torsions:
REMARK  status: ('A' for Active; 'I' for Inactive)
REMARK    1  A    between atoms: C_4  and  C_5 
REMARK    2  A    between atoms: C_5  and  N_6 
REMARK    3  A    between atoms: C_8  and  C_9 
REMARK       I    between atoms: C_9  and  N_10 
REMARK    4  A    between atoms: N_13  and  C_15 
REMARK    5  A    between atoms: C_29  and  S_30 
REMARK    6  A    between atoms: S_30  and  C_31 
ROOT
HETATM    1  N   UNL     1      40.989 -14.042   4.164  1.00  0.00    -0.053 N 
HETATM    2  H   UNL     1      40.098 -13.738   4.578  1.00  0.00     0.281 HD
HETATM    3  C   UNL     1      41.317 -12.965   3.095  1.00  0.00     0.281 C 
HETATM    4  C   UNL     1      42.820 -12.787   3.279  1.00  0.00     0.060 C 
HETATM    5  C   UNL     1      42.994 -12.779   4.795  1.00  0.00     0.083 C 
HETATM    6  C   UNL     1      42.056 -13.896   5.260  1.00  0.00     0.252 C 
ENDROOT
BRANCH   3   7
HETATM    7  C   UNL     1      40.845 -13.159   1.639  1.00  0.00     0.251 C 
HETATM    8  N   UNL     1      40.653 -12.042   0.827  1.00  0.00    -0.347 N 
HETATM    9  C   UNL     1      40.348 -12.246  -0.593  1.00  0.00     0.153 C 
HETATM   10  C   UNL     1      40.364 -10.678   1.275  1.00  0.00     0.153 C 
HETATM   11  C   UNL     1      41.160 -11.287  -1.478  1.00  0.00     0.255 C 
HETATM   12  N   UNL     1      41.007  -9.814  -1.052  1.00  0.00    -0.063 N 
HETATM   13  H   UNL     1      40.051  -9.529  -1.304  1.00  0.00     0.280 HD
HETATM   14  C   UNL     1      41.159  -9.636   0.467  1.00  0.00     0.255 C 
HETATM   15  O   UNL     1      40.624 -14.284   1.195  1.00  0.00    -0.271 OA
BRANCH  12  16
HETATM   16  C   UNL     1      42.000  -8.900  -1.820  1.00  0.00     0.196 C 
HETATM   17  C   UNL     1      41.435  -8.435  -3.189  1.00  0.00     0.017 C 
HETATM   18  C   UNL     1      40.227  -7.498  -3.000  1.00  0.00     0.011 C 
HETATM   19  C   UNL     1      42.545  -7.667  -3.937  1.00  0.00     0.011 C 
HETATM   20  C   UNL     1      40.640  -6.262  -2.186  1.00  0.00    -0.013 C 
HETATM   21  C   UNL     1      41.173  -6.707  -0.814  1.00  0.00     0.011 C 
HETATM   22  C   UNL     1      41.753  -5.510  -2.939  1.00  0.00     0.009 C 
HETATM   23  C   UNL     1      42.384  -7.642  -0.993  1.00  0.00     0.017 C 
HETATM   24  C   UNL     1      43.486  -6.878  -1.756  1.00  0.00     0.011 C 
HETATM   25  C   UNL     1      42.970  -6.429  -3.132  1.00  0.00    -0.013 C 
ENDBRANCH  12  16
ENDBRANCH   3   7
BRANCH   1  26
HETATM   26  C   UNL     1      40.708 -15.489   3.777  1.00  0.00     0.274 C 
BRANCH  26  27
HETATM   27  C   UNL     1      41.859 -16.468   3.789  1.00  0.00    -0.033 A 
HETATM   28  C   UNL     1      42.483 -16.835   2.581  1.00  0.00     0.009 A 
HETATM   29  C   UNL     1      43.564 -17.718   2.566  1.00  0.00     0.001 A 
HETATM   30  C   UNL     1      44.055 -18.235   3.760  1.00  0.00     0.000 A 
HETATM   31  C   UNL     1      43.471 -17.861   4.967  1.00  0.00     0.001 A 
HETATM   32  C   UNL     1      42.383 -16.983   4.982  1.00  0.00     0.009 A 
ENDBRANCH  26  27
ENDBRANCH   1  26
BRANCH   5  33
HETATM   33  S   UNL     1      42.506 -11.143   5.468  1.00  0.00    -0.084 SA
BRANCH  33  34
HETATM   34  C   UNL     1      43.816 -10.896   6.648  1.00  0.00     0.188 A 
HETATM   35  N   UNL     1      45.075 -11.141   6.250  1.00  0.00    -0.235 NA
HETATM   36  C   UNL     1      46.035 -10.935   7.175  1.00  0.00     0.121 A 
HETATM   37  C   UNL     1      45.771 -10.550   8.469  1.00  0.00     0.038 A 
HETATM   38  C   UNL     1      44.443 -10.378   8.778  1.00  0.00     0.121 A 
HETATM   39  N   UNL     1      43.446 -10.553   7.887  1.00  0.00    -0.235 NA
ENDBRANCH  33  34
ENDBRANCH   5  33
TORSDOF 6
ENDMDL
MODEL 7
REMARK VINA RESULT:      -8.4      1.038      1.904
REMARK  6 active torsions:
REMARK  status: ('A' for Active; 'I' for Inactive)
REMARK    1  A    between atoms: C_4  and  C_5 
REMARK    2  A    between atoms: C_5  and  N_6 
REMARK    3  A    between atoms: C_8  and  C_9 
REMARK       I    between atoms: C_9  and  N_10 
REMARK    4  A    between atoms: N_13  and  C_15 
REMARK    5  A    between atoms: C_29  and  S_30 
REMARK    6  A    between atoms: S_30  and  C_31 
ROOT
HETATM    1  N   UNL     1      42.849 -13.724   5.344  1.00  0.00    -0.053 N 
HETATM    2  H   UNL     1      43.537 -13.211   4.777  1.00  0.00     0.281 HD
HETATM    3  C   UNL     1      41.639 -13.942   4.397  1.00  0.00     0.281 C 
HETATM    4  C   UNL     1      41.227 -15.370   4.739  1.00  0.00     0.060 C 
HETATM    5  C   UNL     1      42.557 -16.108   4.851  1.00  0.00     0.083 C 
HETATM    6  C   UNL     1      43.444 -15.116   5.608  1.00  0.00     0.252 C 
ENDROOT
BRANCH   3   7
HETATM    7  C   UNL     1      40.493 -12.910   4.363  1.00  0.00     0.251 C 
HETATM    8  N   UNL     1      40.551 -11.853   3.456  1.00  0.00    -0.347 N 
HETATM    9  C   UNL     1      39.390 -10.965   3.332  1.00  0.00     0.153 C 
HETATM   10  C   UNL     1      41.761 -11.286   2.854  1.00  0.00     0.153 C 
HETATM   11  C   UNL     1      39.076 -10.666   1.857  1.00  0.00     0.255 C 
HETATM   12  N   UNL     1      40.300 -10.139   1.085  1.00  0.00    -0.063 N 
HETATM   13  H   UNL     1      40.482  -9.187   1.428  1.00  0.00     0.280 HD
HETATM   14  C   UNL     1      41.558 -10.981   1.359  1.00  0.00     0.255 C 
HETATM   15  O   UNL     1      39.539 -13.004   5.134  1.00  0.00    -0.271 OA
BRANCH  12  16
HETATM   16  C   UNL     1      40.011 -10.054  -0.438  1.00  0.00     0.196 C 
HETATM   17  C   UNL     1      40.989 -10.924  -1.273  1.00  0.00     0.017 C 
HETATM   18  C   UNL     1      40.773 -12.423  -0.994  1.00  0.00     0.011 C 
HETATM   19  C   UNL     1      40.721 -10.655  -2.769  1.00  0.00     0.011 C 
HETATM   20  C   UNL     1      39.331 -12.823  -1.344  1.00  0.00    -0.013 C 
HETATM   21  C   UNL     1      38.351 -11.991  -0.500  1.00  0.00     0.011 C 
HETATM   22  C   UNL     1      39.076 -12.542  -2.835  1.00  0.00     0.009 C 
HETATM   23  C   UNL     1      38.557 -10.489  -0.774  1.00  0.00     0.017 C 
HETATM   24  C   UNL     1      38.306 -10.225  -2.274  1.00  0.00     0.011 C 
HETATM   25  C   UNL     1      39.281 -11.047  -3.131  1.00  0.00    -0.013 C 
ENDBRANCH  12  16
ENDBRANCH   3   7
BRANCH   1  26
HETATM   26  C   UNL     1      42.734 -12.863   6.597  1.00  0.00     0.274 C 
BRANCH  26  27
HETATM   27  C   UNL     1      43.932 -12.040   7.010  1.00  0.00    -0.033 A 
HETATM   28  C   UNL     1      45.059 -11.966   6.168  1.00  0.00     0.009 A 
HETATM   29  C   UNL     1      46.168 -11.192   6.514  1.00  0.00     0.001 A 
HETATM   30  C   UNL     1      46.165 -10.462   7.697  1.00  0.00     0.000 A 
HETATM   31  C   UNL     1      45.049 -10.498   8.528  1.00  0.00     0.001 A 
HETATM   32  C   UNL     1      43.940 -11.279   8.187  1.00  0.00     0.009 A 
ENDBRANCH  26  27
ENDBRANCH   1  26
BRANCH   5  33
HETATM   33  S   UNL     1      43.208 -16.474   3.174  1.00  0.00    -0.084 SA
BRANCH  33  34
HETATM   34  C   UNL     1      43.470 -18.229   3.326  1.00  0.00     0.188 A 
HETATM   35  N   UNL     1      44.004 -18.688   4.470  1.00  0.00    -0.235 NA
HETATM   36  C   UNL     1      44.179 -20.023   4.542  1.00  0.00     0.121 A 
HETATM   37  C   UNL     1      43.890 -20.883   3.508  1.00  0.00     0.038 A 
HETATM   38  C   UNL     1      43.397 -20.296   2.368  1.00  0.00     0.121 A 
HETATM   39  N   UNL     1      43.186 -18.969   2.249  1.00  0.00    -0.235 NA
ENDBRANCH  33  34
ENDBRANCH   5  33
TORSDOF 6
ENDMDL
MODEL 8
REMARK VINA RESULT:      -8.3      2.953      8.595
REMARK  6 active torsions:
REMARK  status: ('A' for Active; 'I' for Inactive)
REMARK    1  A    between atoms: C_4  and  C_5 
REMARK    2  A    between atoms: C_5  and  N_6 
REMARK    3  A    between atoms: C_8  and  C_9 
REMARK       I    between atoms: C_9  and  N_10 
REMARK    4  A    between atoms: N_13  and  C_15 
REMARK    5  A    between atoms: C_29  and  S_30 
REMARK    6  A    between atoms: S_30  and  C_31 
ROOT
HETATM    1  N   UNL     1      41.056 -13.294   1.286  1.00  0.00    -0.053 N 
HETATM    2  H   UNL     1      40.101 -13.635   1.459  1.00  0.00     0.281 HD
HETATM    3  C   UNL     1      41.451 -12.544   2.587  1.00  0.00     0.281 C 
HETATM    4  C   UNL     1      42.903 -12.972   2.767  1.00  0.00     0.060 C 
HETATM    5  C   UNL     1      42.879 -14.461   2.437  1.00  0.00     0.083 C 
HETATM    6  C   UNL     1      41.961 -14.534   1.214  1.00  0.00     0.252 C 
ENDROOT
BRANCH   3   7
HETATM    7  C   UNL     1      41.185 -11.029   2.712  1.00  0.00     0.251 C 
HETATM    8  N   UNL     1      40.987 -10.472   3.974  1.00  0.00    -0.347 N 
HETATM    9  C   UNL     1      40.881  -9.013   4.092  1.00  0.00     0.153 C 
HETATM   10  C   UNL     1      40.511 -11.170   5.171  1.00  0.00     0.153 C 
HETATM   11  C   UNL     1      41.699  -8.494   5.286  1.00  0.00     0.255 C 
HETATM   12  N   UNL     1      41.350  -9.214   6.602  1.00  0.00    -0.063 N 
HETATM   13  H   UNL     1      40.410  -8.899   6.875  1.00  0.00     0.280 HD
HETATM   14  C   UNL     1      41.295 -10.741   6.425  1.00  0.00     0.255 C 
HETATM   15  O   UNL     1      41.133 -10.316   1.712  1.00  0.00    -0.271 OA
BRANCH  12  16
HETATM   16  C   UNL     1      42.337  -8.823   7.736  1.00  0.00     0.196 C 
HETATM   17  C   UNL     1      42.433  -7.286   7.928  1.00  0.00     0.017 C 
HETATM   18  C   UNL     1      41.105  -6.710   8.454  1.00  0.00     0.011 C 
HETATM   19  C   UNL     1      43.542  -6.995   8.962  1.00  0.00     0.011 C 
HETATM   20  C   UNL     1      40.743  -7.357   9.800  1.00  0.00    -0.013 C 
HETATM   21  C   UNL     1      40.614  -8.879   9.617  1.00  0.00     0.011 C 
HETATM   22  C   UNL     1      41.861  -7.066  10.817  1.00  0.00     0.009 C 
HETATM   23  C   UNL     1      41.939  -9.465   9.094  1.00  0.00     0.017 C 
HETATM   24  C   UNL     1      43.050  -9.158  10.120  1.00  0.00     0.011 C 
HETATM   25  C   UNL     1      43.195  -7.641  10.312  1.00  0.00    -0.013 C 
ENDBRANCH  12  16
ENDBRANCH   3   7
BRANCH   1  26
HETATM   26  C   UNL     1      40.919 -12.563  -0.045  1.00  0.00     0.274 C 
BRANCH  26  27
HETATM   27  C   UNL     1      39.862 -13.037  -1.014  1.00  0.00    -0.033 A 
HETATM   28  C   UNL     1      38.571 -12.476  -0.978  1.00  0.00     0.009 A 
HETATM   29  C   UNL     1      37.583 -12.878  -1.878  1.00  0.00     0.001 A 
HETATM   30  C   UNL     1      37.872 -13.835  -2.845  1.00  0.00     0.000 A 
HETATM   31  C   UNL     1      39.150 -14.380  -2.917  1.00  0.00     0.001 A 
HETATM   32  C   UNL     1      40.139 -13.983  -2.010  1.00  0.00     0.009 A 
ENDBRANCH  26  27
ENDBRANCH   1  26
BRANCH   5  33
HETATM   33  S   UNL     1      42.205 -15.403   3.862  1.00  0.00    -0.084 SA
BRANCH  33  34
HETATM   34  C   UNL     1      42.934 -16.996   3.545  1.00  0.00     0.188 A 
HETATM   35  N   UNL     1      42.489 -17.692   2.486  1.00  0.00    -0.235 NA
HETATM   36  C   UNL     1      43.073 -18.890   2.282  1.00  0.00     0.121 A 
HETATM   37  C   UNL     1      44.028 -19.420   3.117  1.00  0.00     0.038 A 
HETATM   38  C   UNL     1      44.369 -18.642   4.198  1.00  0.00     0.121 A 
HETATM   39  N   UNL     1      43.829 -17.431   4.439  1.00  0.00    -0.235 NA
ENDBRANCH  33  34
ENDBRANCH   5  33
TORSDOF 6
ENDMDL
MODEL 9
REMARK VINA RESULT:      -8.2      3.818      8.431
REMARK  6 active torsions:
REMARK  status: ('A' for Active; 'I' for Inactive)
REMARK    1  A    between atoms: C_4  and  C_5 
REMARK    2  A    between atoms: C_5  and  N_6 
REMARK    3  A    between atoms: C_8  and  C_9 
REMARK       I    between atoms: C_9  and  N_10 
REMARK    4  A    between atoms: N_13  and  C_15 
REMARK    5  A    between atoms: C_29  and  S_30 
REMARK    6  A    between atoms: S_30  and  C_31 
ROOT
HETATM    1  N   UNL     1      41.524 -14.768   2.683  1.00  0.00    -0.053 N 
HETATM    2  H   UNL     1      42.356 -15.015   2.130  1.00  0.00     0.281 HD
HETATM    3  C   UNL     1      41.715 -13.270   3.041  1.00  0.00     0.281 C 
HETATM    4  C   UNL     1      40.303 -12.722   2.861  1.00  0.00     0.060 C 
HETATM    5  C   UNL     1      39.822 -13.392   1.578  1.00  0.00     0.083 C 
HETATM    6  C   UNL     1      40.323 -14.832   1.726  1.00  0.00     0.252 C 
ENDROOT
BRANCH   3   7
HETATM    7  C   UNL     1      42.417 -12.877   4.357  1.00  0.00     0.251 C 
HETATM    8  N   UNL     1      42.380 -11.550   4.782  1.00  0.00    -0.347 N 
HETATM    9  C   UNL     1      42.923 -11.218   6.104  1.00  0.00     0.153 C 
HETATM   10  C   UNL     1      42.193 -10.368   3.937  1.00  0.00     0.153 C 
HETATM   11  C   UNL     1      41.993 -10.253   6.858  1.00  0.00     0.255 C 
HETATM   12  N   UNL     1      41.648  -8.998   6.035  1.00  0.00    -0.063 N 
HETATM   13  H   UNL     1      42.502  -8.427   5.988  1.00  0.00     0.280 HD
HETATM   14  C   UNL     1      41.244  -9.349   4.593  1.00  0.00     0.255 C 
HETATM   15  O   UNL     1      43.017 -13.718   5.024  1.00  0.00    -0.271 OA
BRANCH  12  16
HETATM   16  C   UNL     1      40.544  -8.155   6.731  1.00  0.00     0.196 C 
HETATM   17  C   UNL     1      40.889  -7.842   8.211  1.00  0.00     0.017 C 
HETATM   18  C   UNL     1      42.108  -6.906   8.310  1.00  0.00     0.011 C 
HETATM   19  C   UNL     1      39.673  -7.140   8.854  1.00  0.00     0.011 C 
HETATM   20  C   UNL     1      41.822  -5.586   7.576  1.00  0.00    -0.013 C 
HETATM   21  C   UNL     1      41.511  -5.880   6.099  1.00  0.00     0.011 C 
HETATM   22  C   UNL     1      40.604  -4.903   8.221  1.00  0.00     0.009 C 
HETATM   23  C   UNL     1      40.290  -6.813   5.990  1.00  0.00     0.017 C 
HETATM   24  C   UNL     1      39.080  -6.118   6.648  1.00  0.00     0.011 C 
HETATM   25  C   UNL     1      39.374  -5.820   8.126  1.00  0.00    -0.013 C 
ENDBRANCH  12  16
ENDBRANCH   3   7
BRANCH   1  26
HETATM   26  C   UNL     1      41.501 -15.848   3.760  1.00  0.00     0.274 C 
BRANCH  26  27
HETATM   27  C   UNL     1      42.468 -17.002   3.635  1.00  0.00    -0.033 A 
HETATM   28  C   UNL     1      42.493 -17.774   2.457  1.00  0.00     0.009 A 
HETATM   29  C   UNL     1      43.394 -18.830   2.306  1.00  0.00     0.001 A 
HETATM   30  C   UNL     1      44.300 -19.121   3.320  1.00  0.00     0.000 A 
HETATM   31  C   UNL     1      44.311 -18.351   4.479  1.00  0.00     0.001 A 
HETATM   32  C   UNL     1      43.404 -17.298   4.635  1.00  0.00     0.009 A 
ENDBRANCH  26  27
ENDBRANCH   1  26
BRANCH   5  33
HETATM   33  S   UNL     1      40.559 -12.551   0.122  1.00  0.00    -0.084 SA
BRANCH  33  34
HETATM   34  C   UNL     1      39.488 -13.167  -1.160  1.00  0.00     0.188 A 
HETATM   35  N   UNL     1      39.898 -14.235  -1.863  1.00  0.00    -0.235 NA
HETATM   36  C   UNL     1      39.052 -14.669  -2.819  1.00  0.00     0.121 A 
HETATM   37  C   UNL     1      37.862 -14.048  -3.118  1.00  0.00     0.038 A 
HETATM   38  C   UNL     1      37.570 -12.934  -2.369  1.00  0.00     0.121 A 
HETATM   39  N   UNL     1      38.371 -12.468  -1.390  1.00  0.00    -0.235 NA
ENDBRANCH  33  34
ENDBRANCH   5  33
TORSDOF 6
ENDMDL
MODEL 10
REMARK VINA RESULT:      -8.2      1.807      2.457
REMARK  6 active torsions:
REMARK  status: ('A' for Active; 'I' for Inactive)
REMARK    1  A    between atoms: C_4  and  C_5 
REMARK    2  A    between atoms: C_5  and  N_6 
REMARK    3  A    between atoms: C_8  and  C_9 
REMARK       I    between atoms: C_9  and  N_10 
REMARK    4  A    between atoms: N_13  and  C_15 
REMARK    5  A    between atoms: C_29  and  S_30 
REMARK    6  A    between atoms: S_30  and  C_31 
ROOT
HETATM    1  N   UNL     1      42.633 -12.723   4.419  1.00  0.00    -0.053 N 
HETATM    2  H   UNL     1      42.747 -13.035   3.445  1.00  0.00     0.281 HD
HETATM    3  C   UNL     1      41.104 -12.514   4.591  1.00  0.00     0.281 C 
HETATM    4  C   UNL     1      40.866 -13.081   5.986  1.00  0.00     0.060 C 
HETATM    5  C   UNL     1      41.711 -14.350   6.005  1.00  0.00     0.083 C 
HETATM    6  C   UNL     1      43.006 -13.917   5.311  1.00  0.00     0.252 C 
ENDROOT
BRANCH   3   7
HETATM    7  C   UNL     1      40.483 -11.128   4.321  1.00  0.00     0.251 C 
HETATM    8  N   UNL     1      40.202 -10.748   3.009  1.00  0.00    -0.347 N 
HETATM    9  C   UNL     1      39.478  -9.493   2.778  1.00  0.00     0.153 C 
HETATM   10  C   UNL     1      40.847 -11.258   1.797  1.00  0.00     0.153 C 
HETATM   11  C   UNL     1      38.384  -9.673   1.714  1.00  0.00     0.255 C 
HETATM   12  N   UNL     1      38.922 -10.287   0.408  1.00  0.00    -0.063 N 
HETATM   13  H   UNL     1      39.499  -9.566  -0.045  1.00  0.00     0.280 HD
HETATM   14  C   UNL     1      39.823 -11.504   0.673  1.00  0.00     0.255 C 
HETATM   15  O   UNL     1      40.246 -10.355   5.247  1.00  0.00    -0.271 OA
BRANCH  12  16
HETATM   16  C   UNL     1      37.765 -10.655  -0.560  1.00  0.00     0.196 C 
HETATM   17  C   UNL     1      36.922  -9.416  -0.967  1.00  0.00     0.017 C 
HETATM   18  C   UNL     1      37.750  -8.440  -1.824  1.00  0.00     0.011 C 
HETATM   19  C   UNL     1      35.716  -9.902  -1.798  1.00  0.00     0.011 C 
HETATM   20  C   UNL     1      38.247  -9.144  -3.097  1.00  0.00    -0.013 C 
HETATM   21  C   UNL     1      39.110 -10.356  -2.707  1.00  0.00     0.011 C 
HETATM   22  C   UNL     1      37.034  -9.631  -3.910  1.00  0.00     0.009 C 
HETATM   23  C   UNL     1      38.289 -11.340  -1.852  1.00  0.00     0.017 C 
HETATM   24  C   UNL     1      37.073 -11.812  -2.678  1.00  0.00     0.011 C 
HETATM   25  C   UNL     1      36.198 -10.612  -3.073  1.00  0.00    -0.013 C 
ENDBRANCH  12  16
ENDBRANCH   3   7
BRANCH   1  26
HETATM   26  C   UNL     1      43.612 -11.559   4.519  1.00  0.00     0.274 C 
BRANCH  26  27
HETATM   27  C   UNL     1      44.161 -11.204   5.881  1.00  0.00    -0.033 A 
HETATM   28  C   UNL     1      45.541 -11.321   6.136  1.00  0.00     0.009 A 
HETATM   29  C   UNL     1      46.078 -10.977   7.377  1.00  0.00     0.001 A 
HETATM   30  C   UNL     1      45.249 -10.488   8.381  1.00  0.00     0.000 A 
HETATM   31  C   UNL     1      43.887 -10.336   8.140  1.00  0.00     0.001 A 
HETATM   32  C   UNL     1      43.347 -10.689   6.899  1.00  0.00     0.009 A 
ENDBRANCH  26  27
ENDBRANCH   1  26
BRANCH   5  33
HETATM   33  S   UNL     1      40.849 -15.685   5.088  1.00  0.00    -0.084 SA
BRANCH  33  34
HETATM   34  C   UNL     1      42.206 -16.812   4.843  1.00  0.00     0.188 A 
HETATM   35  N   UNL     1      42.783 -17.347   5.932  1.00  0.00    -0.235 NA
HETATM   36  C   UNL     1      43.802 -18.199   5.698  1.00  0.00     0.121 A 
HETATM   37  C   UNL     1      44.282 -18.481   4.440  1.00  0.00     0.038 A 
HETATM   38  C   UNL     1      43.648 -17.836   3.405  1.00  0.00     0.121 A 
HETATM   39  N   UNL     1      42.614 -16.989   3.582  1.00  0.00    -0.235 NA
ENDBRANCH  33  34
ENDBRANCH   5  33
TORSDOF 6
ENDMDL
