MODEL 1
REMARK VINA RESULT:      -8.0      0.000      0.000
REMARK  5 active torsions:
REMARK  status: ('A' for Active; 'I' for Inactive)
REMARK    1  A    between atoms: C_8  and  N_9 
REMARK       I    between atoms: N_9  and  C_10 
REMARK    2  A    between atoms: C_10  and  C_11 
REMARK    3  A    between atoms: C_11  and  N_12 
REMARK    4  A    between atoms: N_12  and  C_13 
REMARK    5  A    between atoms: C_13  and  C_14 
ROOT
HETATM    1  C   UNL     1      40.752 -15.008   1.027  1.00  0.00     0.372 C 
ENDROOT
BRANCH   1   2
HETATM    2  C   UNL     1      40.382 -13.819   0.124  1.00  0.00     0.250 C 
HETATM    3  N   UNL     1      39.136 -13.965  -0.448  1.00  0.00    -0.322 N 
HETATM    4  H   UNL     1      38.649 -14.814  -0.177  1.00  0.00     0.169 HD
HETATM    5  O   UNL     1      41.147 -12.869   0.003  1.00  0.00    -0.271 OA
BRANCH   3   6
HETATM    6  C   UNL     1      38.502 -13.124  -1.342  1.00  0.00     0.085 A 
HETATM    7  C   UNL     1      38.194 -13.537  -2.627  1.00  0.00     0.052 A 
HETATM    8  C   UNL     1      38.406 -14.814  -3.346  1.00  0.00     0.072 C 
HETATM    9  N   UNL     1      37.593 -12.469  -3.228  1.00  0.00    -0.280 N 
HETATM   10  H   UNL     1      37.232 -12.403  -4.173  1.00  0.00     0.189 HD
HETATM   11  N   UNL     1      37.487 -11.395  -2.443  1.00  0.00    -0.177 NA
HETATM   12  C   UNL     1      38.037 -11.778  -1.279  1.00  0.00     0.079 A 
HETATM   13  C   UNL     1      38.084 -10.788  -0.174  1.00  0.00     0.075 C 
ENDBRANCH   3   6
ENDBRANCH   1   2
BRANCH   1  14
HETATM   14  N   UNL     1      42.225 -15.178   1.088  1.00  0.00     0.100 N 
HETATM   15  H   UNL     1      42.641 -14.413   0.552  1.00  0.00     0.317 HD
BRANCH  14  16
HETATM   16  C   UNL     1      42.771 -15.102   2.459  1.00  0.00     0.250 C 
HETATM   17  C   UNL     1      41.880 -14.267   3.391  1.00  0.00     0.048 C 
BRANCH  16  18
HETATM   18  C   UNL     1      43.201 -16.458   3.001  1.00  0.00    -0.024 A 
HETATM   19  C   UNL     1      43.168 -17.633   2.228  1.00  0.00     0.036 A 
HETATM   20  C   UNL     1      43.575 -18.854   2.771  1.00  0.00     0.073 A 
HETATM   21 CL   UNL     1      43.516 -20.273   1.796  1.00  0.00    -0.081 Cl
HETATM   22  C   UNL     1      44.023 -18.916   4.087  1.00  0.00     0.138 A 
HETATM   23  F   UNL     1      44.414 -20.081   4.626  1.00  0.00    -0.204 F 
HETATM   24  C   UNL     1      44.075 -17.768   4.867  1.00  0.00     0.044 A 
HETATM   25  C   UNL     1      43.670 -16.545   4.326  1.00  0.00     0.012 A 
ENDBRANCH  16  18
ENDBRANCH  14  16
ENDBRANCH   1  14
TORSDOF 5
ENDMDL
MODEL 2
REMARK VINA RESULT:      -7.9      3.609      4.604
REMARK  5 active torsions:
REMARK  status: ('A' for Active; 'I' for Inactive)
REMARK    1  A    between atoms: C_8  and  N_9 
REMARK       I    between atoms: N_9  and  C_10 
REMARK    2  A    between atoms: C_10  and  C_11 
REMARK    3  A    between atoms: C_11  and  N_12 
REMARK    4  A    between atoms: N_12  and  C_13 
REMARK    5  A    between atoms: C_13  and  C_14 
ROOT
HETATM    1  C   UNL     1      41.887 -15.357   6.748  1.00  0.00     0.372 C 
ENDROOT
BRANCH   1   2
HETATM    2  C   UNL     1      40.700 -14.681   6.043  1.00  0.00     0.250 C 
HETATM    3  N   UNL     1      40.983 -14.364   4.732  1.00  0.00    -0.322 N 
HETATM    4  H   UNL     1      41.913 -14.636   4.427  1.00  0.00     0.169 HD
HETATM    5  O   UNL     1      39.641 -14.508   6.636  1.00  0.00    -0.271 OA
BRANCH   3   6
HETATM    6  C   UNL     1      40.178 -13.712   3.816  1.00  0.00     0.085 A 
HETATM    7  C   UNL     1      39.825 -14.303   2.617  1.00  0.00     0.052 A 
HETATM    8  C   UNL     1      40.139 -15.621   2.019  1.00  0.00     0.072 C 
HETATM    9  N   UNL     1      39.047 -13.390   1.965  1.00  0.00    -0.280 N 
HETATM   10  H   UNL     1      38.607 -13.476   1.055  1.00  0.00     0.189 HD
HETATM   11  N   UNL     1      38.869 -12.252   2.639  1.00  0.00    -0.177 NA
HETATM   12  C   UNL     1      39.554 -12.431   3.780  1.00  0.00     0.079 A 
HETATM   13  C   UNL     1      39.563 -11.321   4.766  1.00  0.00     0.075 C 
ENDBRANCH   3   6
ENDBRANCH   1   2
BRANCH   1  14
HETATM   14  N   UNL     1      43.133 -15.177   5.961  1.00  0.00     0.100 N 
HETATM   15  H   UNL     1      43.635 -14.382   6.366  1.00  0.00     0.317 HD
BRANCH  14  16
HETATM   16  C   UNL     1      44.039 -16.342   6.014  1.00  0.00     0.250 C 
HETATM   17  C   UNL     1      44.058 -16.998   7.402  1.00  0.00     0.048 C 
BRANCH  16  18
HETATM   18  C   UNL     1      43.849 -17.293   4.840  1.00  0.00    -0.024 A 
HETATM   19  C   UNL     1      44.051 -18.681   4.943  1.00  0.00     0.036 A 
HETATM   20  C   UNL     1      43.862 -19.513   3.836  1.00  0.00     0.073 A 
HETATM   21 CL   UNL     1      44.123 -21.207   3.999  1.00  0.00    -0.081 Cl
HETATM   22  C   UNL     1      43.467 -18.970   2.617  1.00  0.00     0.138 A 
HETATM   23  F   UNL     1      43.285 -19.752   1.543  1.00  0.00    -0.204 F 
HETATM   24  C   UNL     1      43.251 -17.602   2.493  1.00  0.00     0.044 A 
HETATM   25  C   UNL     1      43.437 -16.770   3.598  1.00  0.00     0.012 A 
ENDBRANCH  16  18
ENDBRANCH  14  16
ENDBRANCH   1  14
TORSDOF 5
ENDMDL
MODEL 3
REMARK VINA RESULT:      -7.6      1.061      2.035
REMARK  5 active torsions:
REMARK  status: ('A' for Active; 'I' for Inactive)
REMARK    1  A    between atoms: C_8  and  N_9 
REMARK       I    between atoms: N_9  and  C_10 
REMARK    2  A    between atoms: C_10  and  C_11 
REMARK    3  A    between atoms: C_11  and  N_12 
REMARK    4  A    between atoms: N_12  and  C_13 
REMARK    5  A    between atoms: C_13  and  C_14 
ROOT
HETATM    1  C   UNL     1      41.675 -14.417   1.367  1.00  0.00     0.372 C 
ENDROOT
BRANCH   1   2
HETATM    2  C   UNL     1      40.385 -14.534   0.538  1.00  0.00     0.250 C 
HETATM    3  N   UNL     1      40.147 -13.407  -0.219  1.00  0.00    -0.322 N 
HETATM    4  H   UNL     1      40.858 -12.686  -0.131  1.00  0.00     0.169 HD
HETATM    5  O   UNL     1      39.715 -15.560   0.572  1.00  0.00    -0.271 OA
BRANCH   3   6
HETATM    6  C   UNL     1      39.069 -13.141  -1.043  1.00  0.00     0.085 A 
HETATM    7  C   UNL     1      38.303 -12.001  -0.882  1.00  0.00     0.052 A 
HETATM    8  C   UNL     1      38.378 -10.869   0.069  1.00  0.00     0.072 C 
HETATM    9  N   UNL     1      37.334 -12.064  -1.842  1.00  0.00    -0.280 N 
HETATM   10  H   UNL     1      36.591 -11.400  -2.028  1.00  0.00     0.189 HD
HETATM   11  N   UNL     1      37.404 -13.153  -2.611  1.00  0.00    -0.177 NA
HETATM   12  C   UNL     1      38.465 -13.827  -2.137  1.00  0.00     0.079 A 
HETATM   13  C   UNL     1      38.815 -15.115  -2.785  1.00  0.00     0.075 C 
ENDBRANCH   3   6
ENDBRANCH   1   2
BRANCH   1  14
HETATM   14  N   UNL     1      41.618 -15.313   2.550  1.00  0.00     0.100 N 
HETATM   15  H   UNL     1      41.392 -16.251   2.209  1.00  0.00     0.317 HD
BRANCH  14  16
HETATM   16  C   UNL     1      42.898 -15.407   3.281  1.00  0.00     0.250 C 
HETATM   17  C   UNL     1      42.949 -14.452   4.482  1.00  0.00     0.048 C 
BRANCH  16  18
HETATM   18  C   UNL     1      43.312 -16.845   3.565  1.00  0.00    -0.024 A 
HETATM   19  C   UNL     1      43.280 -17.854   2.586  1.00  0.00     0.036 A 
HETATM   20  C   UNL     1      43.672 -19.159   2.896  1.00  0.00     0.073 A 
HETATM   21 CL   UNL     1      43.614 -20.370   1.673  1.00  0.00    -0.081 Cl
HETATM   22  C   UNL     1      44.104 -19.470   4.181  1.00  0.00     0.138 A 
HETATM   23  F   UNL     1      44.479 -20.717   4.498  1.00  0.00    -0.204 F 
HETATM   24  C   UNL     1      44.154 -18.487   5.163  1.00  0.00     0.044 A 
HETATM   25  C   UNL     1      43.765 -17.182   4.856  1.00  0.00     0.012 A 
ENDBRANCH  16  18
ENDBRANCH  14  16
ENDBRANCH   1  14
TORSDOF 5
ENDMDL
MODEL 4
REMARK VINA RESULT:      -7.5      2.389      3.198
REMARK  5 active torsions:
REMARK  status: ('A' for Active; 'I' for Inactive)
REMARK    1  A    between atoms: C_8  and  N_9 
REMARK       I    between atoms: N_9  and  C_10 
REMARK    2  A    between atoms: C_10  and  C_11 
REMARK    3  A    between atoms: C_11  and  N_12 
REMARK    4  A    between atoms: N_12  and  C_13 
REMARK    5  A    between atoms: C_13  and  C_14 
ROOT
HETATM    1  C   UNL     1      42.002 -13.098   4.678  1.00  0.00     0.372 C 
ENDROOT
BRANCH   1   2
HETATM    2  C   UNL     1      40.966 -12.919   3.557  1.00  0.00     0.250 C 
HETATM    3  N   UNL     1      41.361 -13.519   2.380  1.00  0.00    -0.322 N 
HETATM    4  H   UNL     1      42.255 -13.998   2.435  1.00  0.00     0.169 HD
HETATM    5  O   UNL     1      39.915 -12.325   3.770  1.00  0.00    -0.271 OA
BRANCH   3   6
HETATM    6  C   UNL     1      40.710 -13.523   1.161  1.00  0.00     0.085 A 
HETATM    7  C   UNL     1      40.047 -14.646   0.700  1.00  0.00     0.052 A 
HETATM    8  C   UNL     1      39.846 -15.997   1.274  1.00  0.00     0.072 C 
HETATM    9  N   UNL     1      39.537 -14.305  -0.520  1.00  0.00    -0.280 N 
HETATM   10  H   UNL     1      38.990 -14.877  -1.153  1.00  0.00     0.189 HD
HETATM   11  N   UNL     1      39.816 -13.054  -0.892  1.00  0.00    -0.177 NA
HETATM   12  C   UNL     1      40.533 -12.555   0.128  1.00  0.00     0.079 A 
HETATM   13  C   UNL     1      41.015 -11.155   0.020  1.00  0.00     0.075 C 
ENDBRANCH   3   6
ENDBRANCH   1   2
BRANCH   1  14
HETATM   14  N   UNL     1      43.046 -14.072   4.273  1.00  0.00     0.100 N 
HETATM   15  H   UNL     1      43.947 -13.589   4.320  1.00  0.00     0.317 HD
BRANCH  14  16
HETATM   16  C   UNL     1      43.132 -15.249   5.162  1.00  0.00     0.250 C 
HETATM   17  C   UNL     1      42.000 -15.274   6.199  1.00  0.00     0.048 C 
BRANCH  16  18
HETATM   18  C   UNL     1      43.358 -16.549   4.401  1.00  0.00    -0.024 A 
HETATM   19  C   UNL     1      43.788 -17.732   5.028  1.00  0.00     0.036 A 
HETATM   20  C   UNL     1      43.980 -18.902   4.286  1.00  0.00     0.073 A 
HETATM   21 CL   UNL     1      44.512 -20.331   5.086  1.00  0.00    -0.081 Cl
HETATM   22  C   UNL     1      43.740 -18.904   2.916  1.00  0.00     0.138 A 
HETATM   23  F   UNL     1      43.923 -20.015   2.188  1.00  0.00    -0.204 F 
HETATM   24  C   UNL     1      43.305 -17.749   2.276  1.00  0.00     0.044 A 
HETATM   25  C   UNL     1      43.111 -16.580   3.015  1.00  0.00     0.012 A 
ENDBRANCH  16  18
ENDBRANCH  14  16
ENDBRANCH   1  14
TORSDOF 5
ENDMDL
MODEL 5
REMARK VINA RESULT:      -7.4      3.965      6.294
REMARK  5 active torsions:
REMARK  status: ('A' for Active; 'I' for Inactive)
REMARK    1  A    between atoms: C_8  and  N_9 
REMARK       I    between atoms: N_9  and  C_10 
REMARK    2  A    between atoms: C_10  and  C_11 
REMARK    3  A    between atoms: C_11  and  N_12 
REMARK    4  A    between atoms: N_12  and  C_13 
REMARK    5  A    between atoms: C_13  and  C_14 
ROOT
HETATM    1  C   UNL     1      40.132 -13.860   3.595  1.00  0.00     0.372 C 
ENDROOT
BRANCH   1   2
HETATM    2  C   UNL     1      40.536 -13.314   4.975  1.00  0.00     0.250 C 
HETATM    3  N   UNL     1      41.718 -12.605   4.930  1.00  0.00    -0.322 N 
HETATM    4  H   UNL     1      42.129 -12.535   4.004  1.00  0.00     0.169 HD
HETATM    5  O   UNL     1      39.820 -13.500   5.952  1.00  0.00    -0.271 OA
BRANCH   3   6
HETATM    6  C   UNL     1      42.403 -12.017   5.977  1.00  0.00     0.085 A 
HETATM    7  C   UNL     1      43.290 -12.739   6.755  1.00  0.00     0.052 A 
HETATM    8  C   UNL     1      43.732 -14.152   6.721  1.00  0.00     0.072 C 
HETATM    9  N   UNL     1      43.769 -11.863   7.686  1.00  0.00    -0.280 N 
HETATM   10  H   UNL     1      44.442 -12.038   8.424  1.00  0.00     0.189 HD
HETATM   11  N   UNL     1      43.264 -10.632   7.581  1.00  0.00    -0.177 NA
HETATM   12  C   UNL     1      42.424 -10.705   6.535  1.00  0.00     0.079 A 
HETATM   13  C   UNL     1      41.680  -9.479   6.154  1.00  0.00     0.075 C 
ENDBRANCH   3   6
ENDBRANCH   1   2
BRANCH   1  14
HETATM   14  N   UNL     1      40.208 -15.342   3.577  1.00  0.00     0.100 N 
HETATM   15  H   UNL     1      39.260 -15.692   3.419  1.00  0.00     0.317 HD
BRANCH  14  16
HETATM   16  C   UNL     1      41.060 -15.877   2.495  1.00  0.00     0.250 C 
HETATM   17  C   UNL     1      41.584 -14.769   1.570  1.00  0.00     0.048 C 
BRANCH  16  18
HETATM   18  C   UNL     1      42.105 -16.863   2.998  1.00  0.00    -0.024 A 
HETATM   19  C   UNL     1      42.477 -18.012   2.278  1.00  0.00     0.036 A 
HETATM   20  C   UNL     1      43.444 -18.887   2.781  1.00  0.00     0.073 A 
HETATM   21 CL   UNL     1      43.870 -20.287   1.874  1.00  0.00    -0.081 Cl
HETATM   22  C   UNL     1      44.051 -18.623   4.005  1.00  0.00     0.138 A 
HETATM   23  F   UNL     1      44.977 -19.453   4.505  1.00  0.00    -0.204 F 
HETATM   24  C   UNL     1      43.708 -17.488   4.730  1.00  0.00     0.044 A 
HETATM   25  C   UNL     1      42.744 -16.612   4.228  1.00  0.00     0.012 A 
ENDBRANCH  16  18
ENDBRANCH  14  16
ENDBRANCH   1  14
TORSDOF 5
ENDMDL
MODEL 6
REMARK VINA RESULT:      -7.4      3.920      6.342
REMARK  5 active torsions:
REMARK  status: ('A' for Active; 'I' for Inactive)
REMARK    1  A    between atoms: C_8  and  N_9 
REMARK       I    between atoms: N_9  and  C_10 
REMARK    2  A    between atoms: C_10  and  C_11 
REMARK    3  A    between atoms: C_11  and  N_12 
REMARK    4  A    between atoms: N_12  and  C_13 
REMARK    5  A    between atoms: C_13  and  C_14 
ROOT
HETATM    1  C   UNL     1      40.839 -14.011   2.887  1.00  0.00     0.372 C 
ENDROOT
BRANCH   1   2
HETATM    2  C   UNL     1      41.049 -13.637   4.364  1.00  0.00     0.250 C 
HETATM    3  N   UNL     1      42.280 -13.058   4.586  1.00  0.00    -0.322 N 
HETATM    4  H   UNL     1      42.848 -12.950   3.751  1.00  0.00     0.169 HD
HETATM    5  O   UNL     1      40.162 -13.832   5.187  1.00  0.00    -0.271 OA
BRANCH   3   6
HETATM    6  C   UNL     1      42.826 -12.642   5.786  1.00  0.00     0.085 A 
HETATM    7  C   UNL     1      42.718 -11.331   6.212  1.00  0.00     0.052 A 
HETATM    8  C   UNL     1      42.078 -10.134   5.619  1.00  0.00     0.072 C 
HETATM    9  N   UNL     1      43.369 -11.273   7.411  1.00  0.00    -0.280 N 
HETATM   10  H   UNL     1      43.494 -10.470   8.018  1.00  0.00     0.189 HD
HETATM   11  N   UNL     1      43.894 -12.437   7.798  1.00  0.00    -0.177 NA
HETATM   12  C   UNL     1      43.570 -13.292   6.815  1.00  0.00     0.079 A 
HETATM   13  C   UNL     1      44.024 -14.699   6.941  1.00  0.00     0.075 C 
ENDBRANCH   3   6
ENDBRANCH   1   2
BRANCH   1  14
HETATM   14  N   UNL     1      40.888 -15.483   2.710  1.00  0.00     0.100 N 
HETATM   15  H   UNL     1      40.079 -15.747   2.142  1.00  0.00     0.317 HD
BRANCH  14  16
HETATM   16  C   UNL     1      42.095 -15.953   2.001  1.00  0.00     0.250 C 
HETATM   17  C   UNL     1      42.975 -14.789   1.524  1.00  0.00     0.048 C 
BRANCH  16  18
HETATM   18  C   UNL     1      42.822 -17.066   2.743  1.00  0.00    -0.024 A 
HETATM   19  C   UNL     1      43.043 -18.337   2.183  1.00  0.00     0.036 A 
HETATM   20  C   UNL     1      43.717 -19.326   2.904  1.00  0.00     0.073 A 
HETATM   21 CL   UNL     1      43.965 -20.873   2.188  1.00  0.00    -0.081 Cl
HETATM   22  C   UNL     1      44.182 -19.057   4.187  1.00  0.00     0.138 A 
HETATM   23  F   UNL     1      44.827 -19.995   4.896  1.00  0.00    -0.204 F 
HETATM   24  C   UNL     1      43.984 -17.805   4.759  1.00  0.00     0.044 A 
HETATM   25  C   UNL     1      43.313 -16.815   4.039  1.00  0.00     0.012 A 
ENDBRANCH  16  18
ENDBRANCH  14  16
ENDBRANCH   1  14
TORSDOF 5
ENDMDL
MODEL 7
REMARK VINA RESULT:      -7.4      3.668      5.656
REMARK  5 active torsions:
REMARK  status: ('A' for Active; 'I' for Inactive)
REMARK    1  A    between atoms: C_8  and  N_9 
REMARK       I    between atoms: N_9  and  C_10 
REMARK    2  A    between atoms: C_10  and  C_11 
REMARK    3  A    between atoms: C_11  and  N_12 
REMARK    4  A    between atoms: N_12  and  C_13 
REMARK    5  A    between atoms: C_13  and  C_14 
ROOT
HETATM    1  C   UNL     1      43.571 -14.062   2.188  1.00  0.00     0.372 C 
ENDROOT
BRANCH   1   2
HETATM    2  C   UNL     1      42.891 -12.888   2.913  1.00  0.00     0.250 C 
HETATM    3  N   UNL     1      42.942 -13.021   4.284  1.00  0.00    -0.322 N 
HETATM    4  H   UNL     1      43.429 -13.852   4.606  1.00  0.00     0.169 HD
HETATM    5  O   UNL     1      42.410 -11.958   2.275  1.00  0.00    -0.271 OA
BRANCH   3   6
HETATM    6  C   UNL     1      42.399 -12.189   5.245  1.00  0.00     0.085 A 
HETATM    7  C   UNL     1      43.171 -11.665   6.266  1.00  0.00     0.052 A 
HETATM    8  C   UNL     1      44.606 -11.799   6.607  1.00  0.00     0.072 C 
HETATM    9  N   UNL     1      42.324 -10.910   7.025  1.00  0.00    -0.280 N 
HETATM   10  H   UNL     1      42.538 -10.374   7.859  1.00  0.00     0.189 HD
HETATM   11  N   UNL     1      41.064 -10.902   6.585  1.00  0.00    -0.177 NA
HETATM   12  C   UNL     1      41.089 -11.680   5.490  1.00  0.00     0.079 A 
HETATM   13  C   UNL     1      39.817 -11.886   4.755  1.00  0.00     0.075 C 
ENDBRANCH   3   6
ENDBRANCH   1   2
BRANCH   1  14
HETATM   14  N   UNL     1      42.562 -14.904   1.499  1.00  0.00     0.100 N 
HETATM   15  H   UNL     1      43.070 -15.537   0.876  1.00  0.00     0.317 HD
BRANCH  14  16
HETATM   16  C   UNL     1      41.765 -15.741   2.419  1.00  0.00     0.250 C 
HETATM   17  C   UNL     1      40.389 -16.092   1.835  1.00  0.00     0.048 C 
BRANCH  16  18
HETATM   18  C   UNL     1      42.555 -16.911   2.991  1.00  0.00    -0.024 A 
HETATM   19  C   UNL     1      42.870 -18.057   2.239  1.00  0.00     0.036 A 
HETATM   20  C   UNL     1      43.599 -19.104   2.809  1.00  0.00     0.073 A 
HETATM   21 CL   UNL     1      43.963 -20.494   1.859  1.00  0.00    -0.081 Cl
HETATM   22  C   UNL     1      44.025 -19.017   4.130  1.00  0.00     0.138 A 
HETATM   23  F   UNL     1      44.721 -20.014   4.695  1.00  0.00    -0.204 F 
HETATM   24  C   UNL     1      43.734 -17.891   4.891  1.00  0.00     0.044 A 
HETATM   25  C   UNL     1      43.007 -16.842   4.323  1.00  0.00     0.012 A 
ENDBRANCH  16  18
ENDBRANCH  14  16
ENDBRANCH   1  14
TORSDOF 5
ENDMDL
MODEL 8
REMARK VINA RESULT:      -7.4      1.949      2.292
REMARK  5 active torsions:
REMARK  status: ('A' for Active; 'I' for Inactive)
REMARK    1  A    between atoms: C_8  and  N_9 
REMARK       I    between atoms: N_9  and  C_10 
REMARK    2  A    between atoms: C_10  and  C_11 
REMARK    3  A    between atoms: C_11  and  N_12 
REMARK    4  A    between atoms: N_12  and  C_13 
REMARK    5  A    between atoms: C_13  and  C_14 
ROOT
HETATM    1  C   UNL     1      41.993 -13.088   1.649  1.00  0.00     0.372 C 
ENDROOT
BRANCH   1   2
HETATM    2  C   UNL     1      40.956 -12.374   0.767  1.00  0.00     0.250 C 
HETATM    3  N   UNL     1      40.927 -12.877  -0.516  1.00  0.00    -0.322 N 
HETATM    4  H   UNL     1      41.573 -13.644  -0.679  1.00  0.00     0.169 HD
HETATM    5  O   UNL     1      40.247 -11.489   1.232  1.00  0.00    -0.271 OA
BRANCH   3   6
HETATM    6  C   UNL     1      40.160 -12.452  -1.585  1.00  0.00     0.085 A 
HETATM    7  C   UNL     1      39.309 -13.316  -2.250  1.00  0.00     0.052 A 
HETATM    8  C   UNL     1      38.987 -14.749  -2.061  1.00  0.00     0.072 C 
HETATM    9  N   UNL     1      38.727 -12.577  -3.240  1.00  0.00    -0.280 N 
HETATM   10  H   UNL     1      38.046 -12.877  -3.929  1.00  0.00     0.189 HD
HETATM   11  N   UNL     1      39.132 -11.306  -3.276  1.00  0.00    -0.177 NA
HETATM   12  C   UNL     1      40.011 -11.208  -2.266  1.00  0.00     0.079 A 
HETATM   13  C   UNL     1      40.664  -9.895  -2.037  1.00  0.00     0.075 C 
ENDBRANCH   3   6
ENDBRANCH   1   2
BRANCH   1  14
HETATM   14  N   UNL     1      42.116 -14.515   1.260  1.00  0.00     0.100 N 
HETATM   15  H   UNL     1      43.111 -14.751   1.283  1.00  0.00     0.317 HD
BRANCH  14  16
HETATM   16  C   UNL     1      41.422 -15.440   2.179  1.00  0.00     0.250 C 
HETATM   17  C   UNL     1      40.161 -16.046   1.547  1.00  0.00     0.048 C 
BRANCH  16  18
HETATM   18  C   UNL     1      42.366 -16.431   2.845  1.00  0.00    -0.024 A 
HETATM   19  C   UNL     1      43.005 -16.169   4.071  1.00  0.00     0.036 A 
HETATM   20  C   UNL     1      43.863 -17.112   4.643  1.00  0.00     0.073 A 
HETATM   21 CL   UNL     1      44.632 -16.754   6.142  1.00  0.00    -0.081 Cl
HETATM   22  C   UNL     1      44.088 -18.326   4.002  1.00  0.00     0.138 A 
HETATM   23  F   UNL     1      44.912 -19.242   4.534  1.00  0.00    -0.204 F 
HETATM   24  C   UNL     1      43.461 -18.613   2.795  1.00  0.00     0.044 A 
HETATM   25  C   UNL     1      42.602 -17.672   2.223  1.00  0.00     0.012 A 
ENDBRANCH  16  18
ENDBRANCH  14  16
ENDBRANCH   1  14
TORSDOF 5
ENDMDL
MODEL 9
REMARK VINA RESULT:      -7.2     14.942     16.934
REMARK  5 active torsions:
REMARK  status: ('A' for Active; 'I' for Inactive)
REMARK    1  A    between atoms: C_8  and  N_9 
REMARK       I    between atoms: N_9  and  C_10 
REMARK    2  A    between atoms: C_10  and  C_11 
REMARK    3  A    between atoms: C_11  and  N_12 
REMARK    4  A    between atoms: N_12  and  C_13 
REMARK    5  A    between atoms: C_13  and  C_14 
ROOT
HETATM    1  C   UNL     1      45.532 -29.366   2.733  1.00  0.00     0.372 C 
ENDROOT
BRANCH   1   2
HETATM    2  C   UNL     1      46.877 -28.944   2.118  1.00  0.00     0.250 C 
HETATM    3  N   UNL     1      47.502 -29.986   1.466  1.00  0.00    -0.322 N 
HETATM    4  H   UNL     1      46.981 -30.858   1.474  1.00  0.00     0.169 HD
HETATM    5  O   UNL     1      47.266 -27.786   2.209  1.00  0.00    -0.271 OA
BRANCH   3   6
HETATM    6  C   UNL     1      48.736 -29.987   0.842  1.00  0.00     0.085 A 
HETATM    7  C   UNL     1      49.901 -30.225   1.548  1.00  0.00     0.052 A 
HETATM    8  C   UNL     1      50.166 -30.515   2.976  1.00  0.00     0.072 C 
HETATM    9  N   UNL     1      50.914 -30.142   0.636  1.00  0.00    -0.280 N 
HETATM   10  H   UNL     1      51.909 -30.260   0.791  1.00  0.00     0.189 HD
HETATM   11  N   UNL     1      50.504 -29.866  -0.604  1.00  0.00    -0.177 NA
HETATM   12  C   UNL     1      49.169 -29.769  -0.499  1.00  0.00     0.079 A 
HETATM   13  C   UNL     1      48.396 -29.456  -1.727  1.00  0.00     0.075 C 
ENDBRANCH   3   6
ENDBRANCH   1   2
BRANCH   1  14
HETATM   14  N   UNL     1      44.403 -28.758   1.987  1.00  0.00     0.100 N 
HETATM   15  H   UNL     1      44.806 -28.138   1.279  1.00  0.00     0.317 HD
BRANCH  14  16
HETATM   16  C   UNL     1      43.563 -29.745   1.279  1.00  0.00     0.250 C 
HETATM   17  C   UNL     1      42.066 -29.519   1.534  1.00  0.00     0.048 C 
BRANCH  16  18
HETATM   18  C   UNL     1      43.962 -29.925  -0.180  1.00  0.00    -0.024 A 
HETATM   19  C   UNL     1      44.335 -28.850  -1.006  1.00  0.00     0.036 A 
HETATM   20  C   UNL     1      44.695 -29.066  -2.338  1.00  0.00     0.073 A 
HETATM   21 CL   UNL     1      45.140 -27.724  -3.322  1.00  0.00    -0.081 Cl
HETATM   22  C   UNL     1      44.692 -30.357  -2.859  1.00  0.00     0.138 A 
HETATM   23  F   UNL     1      45.030 -30.583  -4.137  1.00  0.00    -0.204 F 
HETATM   24  C   UNL     1      44.337 -31.437  -2.060  1.00  0.00     0.044 A 
HETATM   25  C   UNL     1      43.979 -31.223  -0.727  1.00  0.00     0.012 A 
ENDBRANCH  16  18
ENDBRANCH  14  16
ENDBRANCH   1  14
TORSDOF 5
ENDMDL
MODEL 10
REMARK VINA RESULT:      -6.9      5.311      7.405
REMARK  5 active torsions:
REMARK  status: ('A' for Active; 'I' for Inactive)
REMARK    1  A    between atoms: C_8  and  N_9 
REMARK       I    between atoms: N_9  and  C_10 
REMARK    2  A    between atoms: C_10  and  C_11 
REMARK    3  A    between atoms: C_11  and  N_12 
REMARK    4  A    between atoms: N_12  and  C_13 
REMARK    5  A    between atoms: C_13  and  C_14 
ROOT
HETATM    1  C   UNL     1      44.053 -16.579   5.808  1.00  0.00     0.372 C 
ENDROOT
BRANCH   1   2
HETATM    2  C   UNL     1      43.424 -15.403   6.574  1.00  0.00     0.250 C 
HETATM    3  N   UNL     1      43.421 -14.240   5.834  1.00  0.00    -0.322 N 
HETATM    4  H   UNL     1      43.813 -14.336   4.901  1.00  0.00     0.169 HD
HETATM    5  O   UNL     1      42.966 -15.567   7.699  1.00  0.00    -0.271 OA
BRANCH   3   6
HETATM    6  C   UNL     1      42.982 -12.985   6.213  1.00  0.00     0.085 A 
HETATM    7  C   UNL     1      41.661 -12.605   6.057  1.00  0.00     0.052 A 
HETATM    8  C   UNL     1      40.473 -13.308   5.522  1.00  0.00     0.072 C 
HETATM    9  N   UNL     1      41.585 -11.322   6.519  1.00  0.00    -0.280 N 
HETATM   10  H   UNL     1      40.771 -10.718   6.561  1.00  0.00     0.189 HD
HETATM   11  N   UNL     1      42.747 -10.835   6.959  1.00  0.00    -0.177 NA
HETATM   12  C   UNL     1      43.618 -11.842   6.782  1.00  0.00     0.079 A 
HETATM   13  C   UNL     1      45.032 -11.615   7.174  1.00  0.00     0.075 C 
ENDBRANCH   3   6
ENDBRANCH   1   2
BRANCH   1  14
HETATM   14  N   UNL     1      43.056 -17.206   4.905  1.00  0.00     0.100 N 
HETATM   15  H   UNL     1      42.151 -16.774   5.106  1.00  0.00     0.317 HD
BRANCH  14  16
HETATM   16  C   UNL     1      43.338 -16.988   3.471  1.00  0.00     0.250 C 
HETATM   17  C   UNL     1      43.599 -18.305   2.726  1.00  0.00     0.048 C 
BRANCH  16  18
HETATM   18  C   UNL     1      42.345 -16.042   2.810  1.00  0.00    -0.024 A 
HETATM   19  C   UNL     1      42.585 -14.665   2.664  1.00  0.00     0.036 A 
HETATM   20  C   UNL     1      41.642 -13.838   2.047  1.00  0.00     0.073 A 
HETATM   21 CL   UNL     1      41.969 -12.154   1.891  1.00  0.00    -0.081 Cl
HETATM   22  C   UNL     1      40.453 -14.377   1.567  1.00  0.00     0.138 A 
HETATM   23  F   UNL     1      39.534 -13.598   0.977  1.00  0.00    -0.204 F 
HETATM   24  C   UNL     1      40.197 -15.737   1.691  1.00  0.00     0.044 A 
HETATM   25  C   UNL     1      41.139 -16.566   2.304  1.00  0.00     0.012 A 
ENDBRANCH  16  18
ENDBRANCH  14  16
ENDBRANCH   1  14
TORSDOF 5
ENDMDL
