MODEL 1
REMARK VINA RESULT:      -9.2      0.000      0.000
REMARK  6 active torsions:
REMARK  status: ('A' for Active; 'I' for Inactive)
REMARK    1  A    between atoms: C_5  and  C_6 
REMARK    2  A    between atoms: C_12  and  C_13 
REMARK       I    between atoms: C_13  and  N_14 
REMARK    3  A    between atoms: N_14  and  C_15 
REMARK    4  A    between atoms: C_18  and  C_19 
REMARK    5  A    between atoms: C_19  and  O_20 
REMARK    6  A    between atoms: C_25  and  C_26 
ROOT
HETATM    1  C   UNL     1      41.423 -15.608   2.836  1.00  0.00     0.097 C 
HETATM    2  N   UNL     1      42.087 -14.326   3.153  1.00  0.00    -0.268 NA
HETATM    3  C   UNL     1      41.367 -13.197   2.876  1.00  0.00     0.118 C 
HETATM    4  N   UNL     1      40.328 -13.238   1.969  1.00  0.00    -0.245 N 
HETATM    5  N   UNL     1      39.619 -12.104   1.911  1.00  0.00    -0.182 NA
HETATM    6  C   UNL     1      40.313 -11.270   2.687  1.00  0.00     0.159 C 
HETATM    7  C   UNL     1      41.433 -11.884   3.307  1.00  0.00     0.091 C 
HETATM    8  C   UNL     1      39.948 -14.400   1.186  1.00  0.00     0.221 C 
HETATM    9  C   UNL     1      40.958 -15.550   1.377  1.00  0.00     0.061 C 
HETATM   10  H   UNL     1      43.065 -14.336   2.851  1.00  0.00     0.130 HD
ENDROOT
BRANCH   7  11
HETATM   11  C   UNL     1      42.365 -11.208   4.197  1.00  0.00     0.261 C 
HETATM   12  N   UNL     1      41.958 -11.150   5.514  1.00  0.00    -0.323 N 
HETATM   13  H   UNL     1      41.009 -11.459   5.690  1.00  0.00     0.169 HD
HETATM   14  O   UNL     1      43.422 -10.773   3.754  1.00  0.00    -0.267 OA
BRANCH  12  15
HETATM   15  C   UNL     1      42.740 -10.791   6.632  1.00  0.00     0.035 A 
HETATM   16  C   UNL     1      43.892 -11.472   7.027  1.00  0.00     0.030 A 
HETATM   17  C   UNL     1      44.577 -11.115   8.196  1.00  0.00     0.012 A 
HETATM   18  C   UNL     1      44.122 -10.069   9.005  1.00  0.00    -0.030 A 
HETATM   19  C   UNL     1      42.982  -9.364   8.584  1.00  0.00     0.012 A 
HETATM   20  C   UNL     1      42.301  -9.717   7.412  1.00  0.00     0.030 A 
BRANCH  18  21
HETATM   21  C   UNL     1      44.799  -9.661  10.298  1.00  0.00     0.147 C 
HETATM   22  C   UNL     1      43.912  -8.999  11.349  1.00  0.00     0.044 C 
BRANCH  21  23
HETATM   23  O   UNL     1      45.398 -10.809  10.901  1.00  0.00    -0.391 OA
HETATM   24  H   UNL     1      45.607 -11.435  10.187  1.00  0.00     0.210 HD
ENDBRANCH  21  23
ENDBRANCH  18  21
ENDBRANCH  12  15
ENDBRANCH   7  11
BRANCH   1  25
HETATM   25  C   UNL     1      42.324 -16.769   3.210  1.00  0.00    -0.040 A 
HETATM   26  C   UNL     1      42.796 -16.851   4.532  1.00  0.00     0.009 A 
HETATM   27  C   UNL     1      43.547 -17.946   4.965  1.00  0.00     0.007 A 
HETATM   28  C   UNL     1      43.860 -18.983   4.083  1.00  0.00    -0.062 A 
HETATM   29  C   UNL     1      44.596 -20.198   4.566  1.00  0.00     0.048 C 
HETATM   30  C   UNL     1      43.410 -18.903   2.762  1.00  0.00     0.007 A 
HETATM   31  C   UNL     1      42.659 -17.805   2.328  1.00  0.00     0.009 A 
ENDBRANCH   1  25
BRANCH   8  32
HETATM   32  C   UNL     1      39.851 -14.062  -0.287  1.00  0.00     0.409 C 
HETATM   33  F   UNL     1      39.694 -15.167  -1.053  1.00  0.00    -0.169 F 
HETATM   34  F   UNL     1      38.751 -13.288  -0.501  1.00  0.00    -0.169 F 
HETATM   35  F   UNL     1      40.900 -13.362  -0.758  1.00  0.00    -0.169 F 
ENDBRANCH   8  32
TORSDOF 6
ENDMDL
MODEL 2
REMARK VINA RESULT:      -9.1      5.094      6.456
REMARK  6 active torsions:
REMARK  status: ('A' for Active; 'I' for Inactive)
REMARK    1  A    between atoms: C_5  and  C_6 
REMARK    2  A    between atoms: C_12  and  C_13 
REMARK       I    between atoms: C_13  and  N_14 
REMARK    3  A    between atoms: N_14  and  C_15 
REMARK    4  A    between atoms: C_18  and  C_19 
REMARK    5  A    between atoms: C_19  and  O_20 
REMARK    6  A    between atoms: C_25  and  C_26 
ROOT
HETATM    1  C   UNL     1      40.450 -14.230   0.743  1.00  0.00     0.097 C 
HETATM    2  N   UNL     1      41.158 -13.014   0.292  1.00  0.00    -0.268 NA
HETATM    3  C   UNL     1      40.440 -12.166  -0.507  1.00  0.00     0.118 C 
HETATM    4  N   UNL     1      39.337 -12.626  -1.195  1.00  0.00    -0.245 N 
HETATM    5  N   UNL     1      38.646 -11.660  -1.812  1.00  0.00    -0.182 NA
HETATM    6  C   UNL     1      39.411 -10.580  -1.638  1.00  0.00     0.159 C 
HETATM    7  C   UNL     1      40.562 -10.831  -0.846  1.00  0.00     0.091 C 
HETATM    8  C   UNL     1      38.880 -14.004  -1.216  1.00  0.00     0.221 C 
HETATM    9  C   UNL     1      39.881 -14.930  -0.495  1.00  0.00     0.061 C 
HETATM   10  H   UNL     1      42.112 -13.235  -0.009  1.00  0.00     0.130 HD
ENDROOT
BRANCH   7  11
HETATM   11  C   UNL     1      41.568  -9.837  -0.505  1.00  0.00     0.261 C 
HETATM   12  N   UNL     1      41.686  -8.807  -1.416  1.00  0.00    -0.323 N 
HETATM   13  H   UNL     1      41.165  -8.926  -2.277  1.00  0.00     0.169 HD
HETATM   14  O   UNL     1      42.204  -9.948   0.538  1.00  0.00    -0.267 OA
BRANCH  12  15
HETATM   15  C   UNL     1      42.379  -7.591  -1.241  1.00  0.00     0.035 A 
HETATM   16  C   UNL     1      43.547  -7.255  -1.928  1.00  0.00     0.030 A 
HETATM   17  C   UNL     1      44.232  -6.066  -1.647  1.00  0.00     0.012 A 
HETATM   18  C   UNL     1      43.771  -5.184  -0.664  1.00  0.00    -0.030 A 
HETATM   19  C   UNL     1      42.577  -5.511  -0.001  1.00  0.00     0.012 A 
HETATM   20  C   UNL     1      41.888  -6.696  -0.287  1.00  0.00     0.030 A 
BRANCH  18  21
HETATM   21  C   UNL     1      44.490  -3.903  -0.290  1.00  0.00     0.147 C 
HETATM   22  C   UNL     1      45.009  -3.810   1.142  1.00  0.00     0.044 C 
BRANCH  21  23
HETATM   23  O   UNL     1      45.601  -3.712  -1.166  1.00  0.00    -0.391 OA
HETATM   24  H   UNL     1      46.306  -3.283  -0.650  1.00  0.00     0.210 HD
ENDBRANCH  21  23
ENDBRANCH  18  21
ENDBRANCH  12  15
ENDBRANCH   7  11
BRANCH   1  25
HETATM   25  C   UNL     1      41.355 -15.062   1.631  1.00  0.00    -0.040 A 
HETATM   26  C   UNL     1      40.865 -15.483   2.880  1.00  0.00     0.009 A 
HETATM   27  C   UNL     1      41.611 -16.332   3.701  1.00  0.00     0.007 A 
HETATM   28  C   UNL     1      42.876 -16.771   3.302  1.00  0.00    -0.062 A 
HETATM   29  C   UNL     1      43.643 -17.748   4.143  1.00  0.00     0.048 C 
HETATM   30  C   UNL     1      43.380 -16.345   2.070  1.00  0.00     0.007 A 
HETATM   31  C   UNL     1      42.633 -15.493   1.248  1.00  0.00     0.009 A 
ENDBRANCH   1  25
BRANCH   8  32
HETATM   32  C   UNL     1      38.680 -14.495  -2.635  1.00  0.00     0.409 C 
HETATM   33  F   UNL     1      39.690 -14.114  -3.452  1.00  0.00    -0.169 F 
HETATM   34  F   UNL     1      38.672 -15.856  -2.646  1.00  0.00    -0.169 F 
HETATM   35  F   UNL     1      37.515 -14.108  -3.188  1.00  0.00    -0.169 F 
ENDBRANCH   8  32
TORSDOF 6
ENDMDL
MODEL 3
REMARK VINA RESULT:      -9.0      1.316      1.732
REMARK  6 active torsions:
REMARK  status: ('A' for Active; 'I' for Inactive)
REMARK    1  A    between atoms: C_5  and  C_6 
REMARK    2  A    between atoms: C_12  and  C_13 
REMARK       I    between atoms: C_13  and  N_14 
REMARK    3  A    between atoms: N_14  and  C_15 
REMARK    4  A    between atoms: C_18  and  C_19 
REMARK    5  A    between atoms: C_19  and  O_20 
REMARK    6  A    between atoms: C_25  and  C_26 
ROOT
HETATM    1  C   UNL     1      41.013 -15.615   2.624  1.00  0.00     0.097 C 
HETATM    2  N   UNL     1      41.199 -14.357   3.376  1.00  0.00    -0.268 NA
HETATM    3  C   UNL     1      40.325 -13.348   3.077  1.00  0.00     0.118 C 
HETATM    4  N   UNL     1      39.644 -13.348   1.878  1.00  0.00    -0.245 N 
HETATM    5  N   UNL     1      38.715 -12.390   1.785  1.00  0.00    -0.182 NA
HETATM    6  C   UNL     1      38.911 -11.667   2.889  1.00  0.00     0.159 C 
HETATM    7  C   UNL     1      39.920 -12.200   3.734  1.00  0.00     0.091 C 
HETATM    8  C   UNL     1      39.825 -14.322   0.815  1.00  0.00     0.221 C 
HETATM    9  C   UNL     1      40.996 -15.274   1.131  1.00  0.00     0.061 C 
HETATM   10  H   UNL     1      42.190 -14.107   3.432  1.00  0.00     0.130 HD
ENDROOT
BRANCH   7  11
HETATM   11  C   UNL     1      40.342 -11.612   4.997  1.00  0.00     0.261 C 
HETATM   12  N   UNL     1      41.699 -11.688   5.237  1.00  0.00    -0.323 N 
HETATM   13  H   UNL     1      42.225 -12.258   4.584  1.00  0.00     0.169 HD
HETATM   14  O   UNL     1      39.514 -11.080   5.727  1.00  0.00    -0.267 OA
BRANCH  12  15
HETATM   15  C   UNL     1      42.427 -11.002   6.231  1.00  0.00     0.035 A 
HETATM   16  C   UNL     1      42.098  -9.728   6.697  1.00  0.00     0.030 A 
HETATM   17  C   UNL     1      42.911  -9.067   7.627  1.00  0.00     0.012 A 
HETATM   18  C   UNL     1      44.081  -9.662   8.111  1.00  0.00    -0.030 A 
HETATM   19  C   UNL     1      44.389 -10.958   7.666  1.00  0.00     0.012 A 
HETATM   20  C   UNL     1      43.572 -11.621   6.741  1.00  0.00     0.030 A 
BRANCH  18  21
HETATM   21  C   UNL     1      45.019  -8.981   9.088  1.00  0.00     0.147 C 
HETATM   22  C   UNL     1      45.413  -9.786  10.324  1.00  0.00     0.044 C 
BRANCH  21  23
HETATM   23  O   UNL     1      46.221  -8.614   8.411  1.00  0.00    -0.391 OA
HETATM   24  H   UNL     1      46.088  -8.792   7.465  1.00  0.00     0.210 HD
ENDBRANCH  21  23
ENDBRANCH  18  21
ENDBRANCH  12  15
ENDBRANCH   7  11
BRANCH   1  25
HETATM   25  C   UNL     1      42.033 -16.645   3.069  1.00  0.00    -0.040 A 
HETATM   26  C   UNL     1      42.469 -16.622   4.406  1.00  0.00     0.009 A 
HETATM   27  C   UNL     1      43.332 -17.603   4.902  1.00  0.00     0.007 A 
HETATM   28  C   UNL     1      43.794 -18.625   4.070  1.00  0.00    -0.062 A 
HETATM   29  C   UNL     1      44.653 -19.724   4.622  1.00  0.00     0.048 C 
HETATM   30  C   UNL     1      43.380 -18.648   2.736  1.00  0.00     0.007 A 
HETATM   31  C   UNL     1      42.518 -17.665   2.238  1.00  0.00     0.009 A 
ENDBRANCH   1  25
BRANCH   8  32
HETATM   32  C   UNL     1      40.078 -13.644  -0.515  1.00  0.00     0.409 C 
HETATM   33  F   UNL     1      41.008 -12.665  -0.418  1.00  0.00    -0.169 F 
HETATM   34  F   UNL     1      40.570 -14.553  -1.401  1.00  0.00    -0.169 F 
HETATM   35  F   UNL     1      38.973 -13.126  -1.083  1.00  0.00    -0.169 F 
ENDBRANCH   8  32
TORSDOF 6
ENDMDL
MODEL 4
REMARK VINA RESULT:      -8.7      4.092      8.140
REMARK  6 active torsions:
REMARK  status: ('A' for Active; 'I' for Inactive)
REMARK    1  A    between atoms: C_5  and  C_6 
REMARK    2  A    between atoms: C_12  and  C_13 
REMARK       I    between atoms: C_13  and  N_14 
REMARK    3  A    between atoms: N_14  and  C_15 
REMARK    4  A    between atoms: C_18  and  C_19 
REMARK    5  A    between atoms: C_19  and  O_20 
REMARK    6  A    between atoms: C_25  and  C_26 
ROOT
HETATM    1  C   UNL     1      42.382 -14.232   4.346  1.00  0.00     0.097 C 
HETATM    2  N   UNL     1      42.086 -13.549   3.070  1.00  0.00    -0.268 NA
HETATM    3  C   UNL     1      41.348 -14.264   2.167  1.00  0.00     0.118 C 
HETATM    4  N   UNL     1      41.287 -15.639   2.252  1.00  0.00    -0.245 N 
HETATM    5  N   UNL     1      40.411 -16.192   1.404  1.00  0.00    -0.182 NA
HETATM    6  C   UNL     1      40.016 -15.160   0.657  1.00  0.00     0.159 C 
HETATM    7  C   UNL     1      40.581 -13.924   1.068  1.00  0.00     0.091 C 
HETATM    8  C   UNL     1      42.021 -16.451   3.206  1.00  0.00     0.221 C 
HETATM    9  C   UNL     1      43.010 -15.590   4.019  1.00  0.00     0.061 C 
HETATM   10  H   UNL     1      42.915 -13.067   2.711  1.00  0.00     0.130 HD
ENDROOT
BRANCH   7  11
HETATM   11  C   UNL     1      40.328 -12.641   0.428  1.00  0.00     0.261 C 
HETATM   12  N   UNL     1      41.304 -12.245  -0.463  1.00  0.00    -0.323 N 
HETATM   13  H   UNL     1      42.142 -12.815  -0.472  1.00  0.00     0.169 HD
HETATM   14  O   UNL     1      39.297 -12.028   0.682  1.00  0.00    -0.267 OA
BRANCH  12  15
HETATM   15  C   UNL     1      41.222 -11.197  -1.404  1.00  0.00     0.035 A 
HETATM   16  C   UNL     1      40.660 -11.334  -2.674  1.00  0.00     0.030 A 
HETATM   17  C   UNL     1      40.685 -10.276  -3.592  1.00  0.00     0.012 A 
HETATM   18  C   UNL     1      41.281  -9.053  -3.265  1.00  0.00    -0.030 A 
HETATM   19  C   UNL     1      41.814  -8.910  -1.974  1.00  0.00     0.012 A 
HETATM   20  C   UNL     1      41.782  -9.966  -1.054  1.00  0.00     0.030 A 
BRANCH  18  21
HETATM   21  C   UNL     1      41.372  -7.887  -4.229  1.00  0.00     0.147 C 
HETATM   22  C   UNL     1      42.698  -7.132  -4.257  1.00  0.00     0.044 C 
BRANCH  21  23
HETATM   23  O   UNL     1      41.109  -8.346  -5.555  1.00  0.00    -0.391 OA
HETATM   24  H   UNL     1      40.567  -7.669  -5.994  1.00  0.00     0.210 HD
ENDBRANCH  21  23
ENDBRANCH  18  21
ENDBRANCH  12  15
ENDBRANCH   7  11
BRANCH   1  25
HETATM   25  C   UNL     1      43.186 -13.319   5.253  1.00  0.00    -0.040 A 
HETATM   26  C   UNL     1      43.797 -12.185   4.690  1.00  0.00     0.009 A 
HETATM   27  C   UNL     1      44.467 -11.254   5.487  1.00  0.00     0.007 A 
HETATM   28  C   UNL     1      44.557 -11.440   6.869  1.00  0.00    -0.062 A 
HETATM   29  C   UNL     1      45.205 -10.401   7.735  1.00  0.00     0.048 C 
HETATM   30  C   UNL     1      43.968 -12.573   7.436  1.00  0.00     0.007 A 
HETATM   31  C   UNL     1      43.298 -13.507   6.638  1.00  0.00     0.009 A 
ENDBRANCH   1  25
BRANCH   8  32
HETATM   32  C   UNL     1      42.781 -17.562   2.512  1.00  0.00     0.409 C 
HETATM   33  F   UNL     1      43.455 -17.116   1.426  1.00  0.00    -0.169 F 
HETATM   34  F   UNL     1      43.716 -18.070   3.361  1.00  0.00    -0.169 F 
HETATM   35  F   UNL     1      42.010 -18.601   2.138  1.00  0.00    -0.169 F 
ENDBRANCH   8  32
TORSDOF 6
ENDMDL
MODEL 5
REMARK VINA RESULT:      -8.6     16.964     18.226
REMARK  6 active torsions:
REMARK  status: ('A' for Active; 'I' for Inactive)
REMARK    1  A    between atoms: C_5  and  C_6 
REMARK    2  A    between atoms: C_12  and  C_13 
REMARK       I    between atoms: C_13  and  N_14 
REMARK    3  A    between atoms: N_14  and  C_15 
REMARK    4  A    between atoms: C_18  and  C_19 
REMARK    5  A    between atoms: C_19  and  O_20 
REMARK    6  A    between atoms: C_25  and  C_26 
ROOT
HETATM    1  C   UNL     1      44.200 -29.410   0.403  1.00  0.00     0.097 C 
HETATM    2  N   UNL     1      45.542 -30.018   0.519  1.00  0.00    -0.268 NA
HETATM    3  C   UNL     1      46.552 -29.364  -0.130  1.00  0.00     0.118 C 
HETATM    4  N   UNL     1      46.268 -28.495  -1.163  1.00  0.00    -0.245 N 
HETATM    5  N   UNL     1      47.333 -27.814  -1.602  1.00  0.00    -0.182 NA
HETATM    6  C   UNL     1      48.347 -28.372  -0.937  1.00  0.00     0.159 C 
HETATM    7  C   UNL     1      47.930 -29.365  -0.013  1.00  0.00     0.091 C 
HETATM    8  C   UNL     1      44.944 -28.247  -1.706  1.00  0.00     0.221 C 
HETATM    9  C   UNL     1      43.904 -29.201  -1.085  1.00  0.00     0.061 C 
HETATM   10  H   UNL     1      45.495 -31.034   0.397  1.00  0.00     0.130 HD
ENDROOT
BRANCH   7  11
HETATM   11  C   UNL     1      48.825 -30.136   0.838  1.00  0.00     0.261 C 
HETATM   12  N   UNL     1      48.940 -29.658   2.128  1.00  0.00    -0.323 N 
HETATM   13  H   UNL     1      48.504 -28.760   2.299  1.00  0.00     0.169 HD
HETATM   14  O   UNL     1      49.377 -31.136   0.392  1.00  0.00    -0.267 OA
BRANCH  12  15
HETATM   15  C   UNL     1      49.520 -30.318   3.231  1.00  0.00     0.035 A 
HETATM   16  C   UNL     1      50.881 -30.273   3.538  1.00  0.00     0.030 A 
HETATM   17  C   UNL     1      51.406 -31.019   4.601  1.00  0.00     0.012 A 
HETATM   18  C   UNL     1      50.584 -31.838   5.381  1.00  0.00    -0.030 A 
HETATM   19  C   UNL     1      49.210 -31.854   5.090  1.00  0.00     0.012 A 
HETATM   20  C   UNL     1      48.683 -31.102   4.031  1.00  0.00     0.030 A 
BRANCH  18  21
HETATM   21  C   UNL     1      51.101 -32.696   6.518  1.00  0.00     0.147 C 
HETATM   22  C   UNL     1      52.286 -32.141   7.304  1.00  0.00     0.044 C 
BRANCH  21  23
HETATM   23  O   UNL     1      50.044 -32.938   7.447  1.00  0.00    -0.391 OA
HETATM   24  H   UNL     1      49.965 -33.902   7.552  1.00  0.00     0.210 HD
ENDBRANCH  21  23
ENDBRANCH  18  21
ENDBRANCH  12  15
ENDBRANCH   7  11
BRANCH   1  25
HETATM   25  C   UNL     1      43.188 -30.225   1.184  1.00  0.00    -0.040 A 
HETATM   26  C   UNL     1      42.631 -29.666   2.349  1.00  0.00     0.009 A 
HETATM   27  C   UNL     1      41.623 -30.324   3.057  1.00  0.00     0.007 A 
HETATM   28  C   UNL     1      41.153 -31.568   2.628  1.00  0.00    -0.062 A 
HETATM   29  C   UNL     1      40.015 -32.238   3.339  1.00  0.00     0.048 C 
HETATM   30  C   UNL     1      41.711 -32.141   1.481  1.00  0.00     0.007 A 
HETATM   31  C   UNL     1      42.723 -31.482   0.773  1.00  0.00     0.009 A 
ENDBRANCH   1  25
BRANCH   8  32
HETATM   32  C   UNL     1      44.929 -28.404  -3.212  1.00  0.00     0.409 C 
HETATM   33  F   UNL     1      45.809 -29.342  -3.634  1.00  0.00    -0.169 F 
HETATM   34  F   UNL     1      43.698 -28.827  -3.610  1.00  0.00    -0.169 F 
HETATM   35  F   UNL     1      45.169 -27.262  -3.883  1.00  0.00    -0.169 F 
ENDBRANCH   8  32
TORSDOF 6
ENDMDL
MODEL 6
REMARK VINA RESULT:      -8.5     17.144     18.810
REMARK  6 active torsions:
REMARK  status: ('A' for Active; 'I' for Inactive)
REMARK    1  A    between atoms: C_5  and  C_6 
REMARK    2  A    between atoms: C_12  and  C_13 
REMARK       I    between atoms: C_13  and  N_14 
REMARK    3  A    between atoms: N_14  and  C_15 
REMARK    4  A    between atoms: C_18  and  C_19 
REMARK    5  A    between atoms: C_19  and  O_20 
REMARK    6  A    between atoms: C_25  and  C_26 
ROOT
HETATM    1  C   UNL     1      47.755 -30.449   1.560  1.00  0.00     0.097 C 
HETATM    2  N   UNL     1      46.427 -30.413   2.206  1.00  0.00    -0.268 NA
HETATM    3  C   UNL     1      45.352 -30.382   1.359  1.00  0.00     0.118 C 
HETATM    4  N   UNL     1      45.505 -29.961   0.055  1.00  0.00    -0.245 N 
HETATM    5  N   UNL     1      44.410 -30.127  -0.696  1.00  0.00    -0.182 NA
HETATM    6  C   UNL     1      43.491 -30.523   0.187  1.00  0.00     0.159 C 
HETATM    7  C   UNL     1      44.010 -30.684   1.499  1.00  0.00     0.091 C 
HETATM    8  C   UNL     1      46.738 -29.452  -0.520  1.00  0.00     0.221 C 
HETATM    9  C   UNL     1      47.826 -29.290   0.561  1.00  0.00     0.061 C 
HETATM   10  H   UNL     1      46.417 -29.751   2.988  1.00  0.00     0.130 HD
ENDROOT
BRANCH   7  11
HETATM   11  C   UNL     1      43.230 -31.099   2.655  1.00  0.00     0.261 C 
HETATM   12  N   UNL     1      41.864 -30.971   2.499  1.00  0.00    -0.323 N 
HETATM   13  H   UNL     1      41.566 -30.482   1.663  1.00  0.00     0.169 HD
HETATM   14  O   UNL     1      43.799 -31.545   3.645  1.00  0.00    -0.267 OA
BRANCH  12  15
HETATM   15  C   UNL     1      40.859 -31.513   3.326  1.00  0.00     0.035 A 
HETATM   16  C   UNL     1      40.697 -31.184   4.673  1.00  0.00     0.030 A 
HETATM   17  C   UNL     1      39.729 -31.821   5.461  1.00  0.00     0.012 A 
HETATM   18  C   UNL     1      38.902 -32.811   4.923  1.00  0.00    -0.030 A 
HETATM   19  C   UNL     1      39.046 -33.115   3.559  1.00  0.00     0.012 A 
HETATM   20  C   UNL     1      40.008 -32.473   2.770  1.00  0.00     0.030 A 
BRANCH  18  21
HETATM   21  C   UNL     1      37.865 -33.561   5.734  1.00  0.00     0.147 C 
HETATM   22  C   UNL     1      38.037 -33.531   7.251  1.00  0.00     0.044 C 
BRANCH  21  23
HETATM   23  O   UNL     1      36.567 -33.044   5.438  1.00  0.00    -0.391 OA
HETATM   24  H   UNL     1      35.918 -33.712   5.716  1.00  0.00     0.210 HD
ENDBRANCH  21  23
ENDBRANCH  18  21
ENDBRANCH  12  15
ENDBRANCH   7  11
BRANCH   1  25
HETATM   25  C   UNL     1      48.846 -30.499   2.612  1.00  0.00    -0.040 A 
HETATM   26  C   UNL     1      48.520 -30.983   3.892  1.00  0.00     0.009 A 
HETATM   27  C   UNL     1      49.500 -31.146   4.874  1.00  0.00     0.007 A 
HETATM   28  C   UNL     1      50.831 -30.816   4.608  1.00  0.00    -0.062 A 
HETATM   29  C   UNL     1      51.897 -31.068   5.633  1.00  0.00     0.048 C 
HETATM   30  C   UNL     1      51.163 -30.319   3.345  1.00  0.00     0.007 A 
HETATM   31  C   UNL     1      50.181 -30.153   2.361  1.00  0.00     0.009 A 
ENDBRANCH   1  25
BRANCH   8  32
HETATM   32  C   UNL     1      46.515 -28.121  -1.207  1.00  0.00     0.409 C 
HETATM   33  F   UNL     1      47.605 -27.321  -1.132  1.00  0.00    -0.169 F 
HETATM   34  F   UNL     1      46.283 -28.329  -2.532  1.00  0.00    -0.169 F 
HETATM   35  F   UNL     1      45.452 -27.437  -0.743  1.00  0.00    -0.169 F 
ENDBRANCH   8  32
TORSDOF 6
ENDMDL
MODEL 7
REMARK VINA RESULT:      -8.5      3.775      8.785
REMARK  6 active torsions:
REMARK  status: ('A' for Active; 'I' for Inactive)
REMARK    1  A    between atoms: C_5  and  C_6 
REMARK    2  A    between atoms: C_12  and  C_13 
REMARK       I    between atoms: C_13  and  N_14 
REMARK    3  A    between atoms: N_14  and  C_15 
REMARK    4  A    between atoms: C_18  and  C_19 
REMARK    5  A    between atoms: C_19  and  O_20 
REMARK    6  A    between atoms: C_25  and  C_26 
ROOT
HETATM    1  C   UNL     1      43.014 -13.288   6.142  1.00  0.00     0.097 C 
HETATM    2  N   UNL     1      42.755 -13.144   4.694  1.00  0.00    -0.268 NA
HETATM    3  C   UNL     1      42.162 -14.215   4.084  1.00  0.00     0.118 C 
HETATM    4  N   UNL     1      42.226 -15.467   4.659  1.00  0.00    -0.245 N 
HETATM    5  N   UNL     1      41.477 -16.385   4.036  1.00  0.00    -0.182 NA
HETATM    6  C   UNL     1      41.045 -15.740   2.951  1.00  0.00     0.159 C 
HETATM    7  C   UNL     1      41.454 -14.382   2.908  1.00  0.00     0.091 C 
HETATM    8  C   UNL     1      42.958 -15.794   5.871  1.00  0.00     0.221 C 
HETATM    9  C   UNL     1      43.793 -14.590   6.354  1.00  0.00     0.061 C 
HETATM   10  H   UNL     1      43.560 -12.728   4.217  1.00  0.00     0.130 HD
ENDROOT
BRANCH   7  11
HETATM   11  C   UNL     1      41.130 -13.450   1.837  1.00  0.00     0.261 C 
HETATM   12  N   UNL     1      40.035 -13.810   1.079  1.00  0.00    -0.323 N 
HETATM   13  H   UNL     1      39.666 -14.737   1.260  1.00  0.00     0.169 HD
HETATM   14  O   UNL     1      41.798 -12.432   1.695  1.00  0.00    -0.267 OA
BRANCH  12  15
HETATM   15  C   UNL     1      39.339 -13.005   0.153  1.00  0.00     0.035 A 
HETATM   16  C   UNL     1      38.647 -11.843   0.497  1.00  0.00     0.030 A 
HETATM   17  C   UNL     1      37.907 -11.134  -0.457  1.00  0.00     0.012 A 
HETATM   18  C   UNL     1      37.834 -11.573  -1.783  1.00  0.00    -0.030 A 
HETATM   19  C   UNL     1      38.561 -12.723  -2.132  1.00  0.00     0.012 A 
HETATM   20  C   UNL     1      39.306 -13.429  -1.179  1.00  0.00     0.030 A 
BRANCH  18  21
HETATM   21  C   UNL     1      37.020 -10.870  -2.850  1.00  0.00     0.147 C 
HETATM   22  C   UNL     1      36.168  -9.690  -2.387  1.00  0.00     0.044 C 
BRANCH  21  23
HETATM   23  O   UNL     1      37.893 -10.394  -3.875  1.00  0.00    -0.391 OA
HETATM   24  H   UNL     1      38.056  -9.451  -3.703  1.00  0.00     0.210 HD
ENDBRANCH  21  23
ENDBRANCH  18  21
ENDBRANCH  12  15
ENDBRANCH   7  11
BRANCH   1  25
HETATM   25  C   UNL     1      43.653 -12.025   6.686  1.00  0.00    -0.040 A 
HETATM   26  C   UNL     1      42.822 -10.934   6.995  1.00  0.00     0.009 A 
HETATM   27  C   UNL     1      43.336  -9.779   7.591  1.00  0.00     0.007 A 
HETATM   28  C   UNL     1      44.699  -9.679   7.880  1.00  0.00    -0.062 A 
HETATM   29  C   UNL     1      45.238  -8.474   8.593  1.00  0.00     0.048 C 
HETATM   30  C   UNL     1      45.536 -10.751   7.561  1.00  0.00     0.007 A 
HETATM   31  C   UNL     1      45.022 -11.907   6.963  1.00  0.00     0.009 A 
ENDBRANCH   1  25
BRANCH   8  32
HETATM   32  C   UNL     1      43.873 -16.982   5.656  1.00  0.00     0.409 C 
HETATM   33  F   UNL     1      45.021 -16.874   6.365  1.00  0.00    -0.169 F 
HETATM   34  F   UNL     1      43.256 -18.113   6.096  1.00  0.00    -0.169 F 
HETATM   35  F   UNL     1      44.188 -17.204   4.366  1.00  0.00    -0.169 F 
ENDBRANCH   8  32
TORSDOF 6
ENDMDL
MODEL 8
REMARK VINA RESULT:      -8.3      3.853      8.262
REMARK  6 active torsions:
REMARK  status: ('A' for Active; 'I' for Inactive)
REMARK    1  A    between atoms: C_5  and  C_6 
REMARK    2  A    between atoms: C_12  and  C_13 
REMARK       I    between atoms: C_13  and  N_14 
REMARK    3  A    between atoms: N_14  and  C_15 
REMARK    4  A    between atoms: C_18  and  C_19 
REMARK    5  A    between atoms: C_19  and  O_20 
REMARK    6  A    between atoms: C_25  and  C_26 
ROOT
HETATM    1  C   UNL     1      42.874 -13.261   6.018  1.00  0.00     0.097 C 
HETATM    2  N   UNL     1      42.425 -12.977   4.639  1.00  0.00    -0.268 NA
HETATM    3  C   UNL     1      41.722 -13.975   4.023  1.00  0.00     0.118 C 
HETATM    4  N   UNL     1      41.825 -15.276   4.467  1.00  0.00    -0.245 N 
HETATM    5  N   UNL     1      40.970 -16.118   3.874  1.00  0.00    -0.182 NA
HETATM    6  C   UNL     1      40.415 -15.366   2.921  1.00  0.00     0.159 C 
HETATM    7  C   UNL     1      40.856 -14.017   2.945  1.00  0.00     0.091 C 
HETATM    8  C   UNL     1      42.704 -15.729   5.531  1.00  0.00     0.221 C 
HETATM    9  C   UNL     1      43.634 -14.591   6.002  1.00  0.00     0.061 C 
HETATM   10  H   UNL     1      43.171 -12.533   4.095  1.00  0.00     0.130 HD
ENDROOT
BRANCH   7  11
HETATM   11  C   UNL     1      40.419 -12.983   2.018  1.00  0.00     0.261 C 
HETATM   12  N   UNL     1      41.445 -12.319   1.378  1.00  0.00    -0.323 N 
HETATM   13  H   UNL     1      42.377 -12.526   1.719  1.00  0.00     0.169 HD
HETATM   14  O   UNL     1      39.221 -12.790   1.844  1.00  0.00    -0.267 OA
BRANCH  12  15
HETATM   15  C   UNL     1      41.338 -11.461   0.263  1.00  0.00     0.035 A 
HETATM   16  C   UNL     1      41.483 -10.075   0.331  1.00  0.00     0.030 A 
HETATM   17  C   UNL     1      41.283  -9.272  -0.799  1.00  0.00     0.012 A 
HETATM   18  C   UNL     1      40.925  -9.835  -2.027  1.00  0.00    -0.030 A 
HETATM   19  C   UNL     1      40.814 -11.233  -2.099  1.00  0.00     0.012 A 
HETATM   20  C   UNL     1      41.021 -12.037  -0.971  1.00  0.00     0.030 A 
BRANCH  18  21
HETATM   21  C   UNL     1      40.658  -9.015  -3.274  1.00  0.00     0.147 C 
HETATM   22  C   UNL     1      41.239  -7.603  -3.295  1.00  0.00     0.044 C 
BRANCH  21  23
HETATM   23  O   UNL     1      41.166  -9.707  -4.414  1.00  0.00    -0.391 OA
HETATM   24  H   UNL     1      41.904 -10.263  -4.111  1.00  0.00     0.210 HD
ENDBRANCH  21  23
ENDBRANCH  18  21
ENDBRANCH  12  15
ENDBRANCH   7  11
BRANCH   1  25
HETATM   25  C   UNL     1      43.620 -12.066   6.581  1.00  0.00    -0.040 A 
HETATM   26  C   UNL     1      42.878 -10.943   6.985  1.00  0.00     0.009 A 
HETATM   27  C   UNL     1      43.495  -9.851   7.601  1.00  0.00     0.007 A 
HETATM   28  C   UNL     1      44.875  -9.848   7.817  1.00  0.00    -0.062 A 
HETATM   29  C   UNL     1      45.527  -8.714   8.552  1.00  0.00     0.048 C 
HETATM   30  C   UNL     1      45.625 -10.952   7.404  1.00  0.00     0.007 A 
HETATM   31  C   UNL     1      45.007 -12.045   6.785  1.00  0.00     0.009 A 
ENDBRANCH   1  25
BRANCH   8  32
HETATM   32  C   UNL     1      43.544 -16.907   5.086  1.00  0.00     0.409 C 
HETATM   33  F   UNL     1      43.801 -16.876   3.757  1.00  0.00    -0.169 F 
HETATM   34  F   UNL     1      44.753 -16.863   5.711  1.00  0.00    -0.169 F 
HETATM   35  F   UNL     1      43.008 -18.105   5.388  1.00  0.00    -0.169 F 
ENDBRANCH   8  32
TORSDOF 6
ENDMDL
MODEL 9
REMARK VINA RESULT:      -8.2      2.417      2.721
REMARK  6 active torsions:
REMARK  status: ('A' for Active; 'I' for Inactive)
REMARK    1  A    between atoms: C_5  and  C_6 
REMARK    2  A    between atoms: C_12  and  C_13 
REMARK       I    between atoms: C_13  and  N_14 
REMARK    3  A    between atoms: N_14  and  C_15 
REMARK    4  A    between atoms: C_18  and  C_19 
REMARK    5  A    between atoms: C_19  and  O_20 
REMARK    6  A    between atoms: C_25  and  C_26 
ROOT
HETATM    1  C   UNL     1      41.050 -15.376   2.794  1.00  0.00     0.097 C 
HETATM    2  N   UNL     1      41.264 -14.148   3.587  1.00  0.00    -0.268 NA
HETATM    3  C   UNL     1      40.395 -13.121   3.344  1.00  0.00     0.118 C 
HETATM    4  N   UNL     1      39.690 -13.071   2.160  1.00  0.00    -0.245 N 
HETATM    5  N   UNL     1      38.768 -12.101   2.121  1.00  0.00    -0.182 NA
HETATM    6  C   UNL     1      38.995 -11.421   3.247  1.00  0.00     0.159 C 
HETATM    7  C   UNL     1      40.015 -11.994   4.051  1.00  0.00     0.091 C 
HETATM    8  C   UNL     1      39.838 -14.007   1.059  1.00  0.00     0.221 C 
HETATM    9  C   UNL     1      41.006 -14.981   1.315  1.00  0.00     0.061 C 
HETATM   10  H   UNL     1      42.259 -13.910   3.632  1.00  0.00     0.130 HD
ENDROOT
BRANCH   7  11
HETATM   11  C   UNL     1      40.469 -11.457   5.325  1.00  0.00     0.261 C 
HETATM   12  N   UNL     1      39.691 -10.432   5.823  1.00  0.00    -0.323 N 
HETATM   13  H   UNL     1      38.980 -10.080   5.192  1.00  0.00     0.169 HD
HETATM   14  O   UNL     1      41.454 -11.941   5.873  1.00  0.00    -0.267 OA
BRANCH  12  15
HETATM   15  C   UNL     1      39.728  -9.891   7.125  1.00  0.00     0.035 A 
HETATM   16  C   UNL     1      39.074 -10.455   8.221  1.00  0.00     0.030 A 
HETATM   17  C   UNL     1      39.082  -9.822   9.471  1.00  0.00     0.012 A 
HETATM   18  C   UNL     1      39.740  -8.602   9.655  1.00  0.00    -0.030 A 
HETATM   19  C   UNL     1      40.425  -8.056   8.558  1.00  0.00     0.012 A 
HETATM   20  C   UNL     1      40.423  -8.693   7.310  1.00  0.00     0.030 A 
BRANCH  18  21
HETATM   21  C   UNL     1      39.751  -7.852  10.972  1.00  0.00     0.147 C 
HETATM   22  C   UNL     1      39.499  -8.682  12.228  1.00  0.00     0.044 C 
BRANCH  21  23
HETATM   23  O   UNL     1      41.011  -7.198  11.134  1.00  0.00    -0.391 OA
HETATM   24  H   UNL     1      41.333  -6.967  10.246  1.00  0.00     0.210 HD
ENDBRANCH  21  23
ENDBRANCH  18  21
ENDBRANCH  12  15
ENDBRANCH   7  11
BRANCH   1  25
HETATM   25  C   UNL     1      42.069 -16.431   3.179  1.00  0.00    -0.040 A 
HETATM   26  C   UNL     1      42.424 -16.556   4.534  1.00  0.00     0.009 A 
HETATM   27  C   UNL     1      43.281 -17.571   4.967  1.00  0.00     0.007 A 
HETATM   28  C   UNL     1      43.818 -18.481   4.053  1.00  0.00    -0.062 A 
HETATM   29  C   UNL     1      44.672 -19.620   4.526  1.00  0.00     0.048 C 
HETATM   30  C   UNL     1      43.484 -18.356   2.702  1.00  0.00     0.007 A 
HETATM   31  C   UNL     1      42.628 -17.338   2.268  1.00  0.00     0.009 A 
ENDBRANCH   1  25
BRANCH   8  32
HETATM   32  C   UNL     1      40.070 -13.282  -0.251  1.00  0.00     0.409 C 
HETATM   33  F   UNL     1      40.964 -12.274  -0.122  1.00  0.00    -0.169 F 
HETATM   34  F   UNL     1      40.598 -14.148  -1.159  1.00  0.00    -0.169 F 
HETATM   35  F   UNL     1      38.949 -12.789  -0.809  1.00  0.00    -0.169 F 
ENDBRANCH   8  32
TORSDOF 6
ENDMDL
MODEL 10
REMARK VINA RESULT:      -8.2     16.894     19.504
REMARK  6 active torsions:
REMARK  status: ('A' for Active; 'I' for Inactive)
REMARK    1  A    between atoms: C_5  and  C_6 
REMARK    2  A    between atoms: C_12  and  C_13 
REMARK       I    between atoms: C_13  and  N_14 
REMARK    3  A    between atoms: N_14  and  C_15 
REMARK    4  A    between atoms: C_18  and  C_19 
REMARK    5  A    between atoms: C_19  and  O_20 
REMARK    6  A    between atoms: C_25  and  C_26 
ROOT
HETATM    1  C   UNL     1      49.372 -30.839  -0.461  1.00  0.00     0.097 C 
HETATM    2  N   UNL     1      49.344 -30.634   1.002  1.00  0.00    -0.268 NA
HETATM    3  C   UNL     1      48.142 -30.246   1.528  1.00  0.00     0.118 C 
HETATM    4  N   UNL     1      47.187 -29.661   0.724  1.00  0.00    -0.245 N 
HETATM    5  N   UNL     1      46.010 -29.474   1.334  1.00  0.00    -0.182 NA
HETATM    6  C   UNL     1      46.267 -29.809   2.600  1.00  0.00     0.159 C 
HETATM    7  C   UNL     1      47.591 -30.283   2.796  1.00  0.00     0.091 C 
HETATM    8  C   UNL     1      47.364 -29.331  -0.680  1.00  0.00     0.221 C 
HETATM    9  C   UNL     1      48.820 -29.574  -1.125  1.00  0.00     0.061 C 
HETATM   10  H   UNL     1      50.173 -30.120   1.316  1.00  0.00     0.130 HD
ENDROOT
BRANCH   7  11
HETATM   11  C   UNL     1      48.140 -30.709   4.074  1.00  0.00     0.261 C 
HETATM   12  N   UNL     1      49.293 -31.460   3.979  1.00  0.00    -0.323 N 
HETATM   13  H   UNL     1      49.551 -31.744   3.041  1.00  0.00     0.169 HD
HETATM   14  O   UNL     1      47.590 -30.368   5.116  1.00  0.00    -0.267 OA
BRANCH  12  15
HETATM   15  C   UNL     1      50.178 -31.797   5.025  1.00  0.00     0.035 A 
HETATM   16  C   UNL     1      49.941 -32.818   5.947  1.00  0.00     0.030 A 
HETATM   17  C   UNL     1      50.822 -33.047   7.012  1.00  0.00     0.012 A 
HETATM   18  C   UNL     1      51.961 -32.255   7.187  1.00  0.00    -0.030 A 
HETATM   19  C   UNL     1      52.213 -31.252   6.237  1.00  0.00     0.012 A 
HETATM   20  C   UNL     1      51.336 -31.027   5.168  1.00  0.00     0.030 A 
BRANCH  18  21
HETATM   21  C   UNL     1      52.928 -32.430   8.341  1.00  0.00     0.147 C 
HETATM   22  C   UNL     1      53.919 -31.293   8.575  1.00  0.00     0.044 C 
BRANCH  21  23
HETATM   23  O   UNL     1      52.193 -32.619   9.550  1.00  0.00    -0.391 OA
HETATM   24  H   UNL     1      52.029 -33.573   9.644  1.00  0.00     0.210 HD
ENDBRANCH  21  23
ENDBRANCH  18  21
ENDBRANCH  12  15
ENDBRANCH   7  11
BRANCH   1  25
HETATM   25  C   UNL     1      50.755 -31.282  -0.899  1.00  0.00    -0.040 A 
HETATM   26  C   UNL     1      51.447 -32.208  -0.099  1.00  0.00     0.009 A 
HETATM   27  C   UNL     1      52.680 -32.730  -0.497  1.00  0.00     0.007 A 
HETATM   28  C   UNL     1      53.262 -32.328  -1.702  1.00  0.00    -0.062 A 
HETATM   29  C   UNL     1      54.545 -32.948  -2.171  1.00  0.00     0.048 C 
HETATM   30  C   UNL     1      52.590 -31.396  -2.497  1.00  0.00     0.007 A 
HETATM   31  C   UNL     1      51.356 -30.872  -2.097  1.00  0.00     0.009 A 
ENDBRANCH   1  25
BRANCH   8  32
HETATM   32  C   UNL     1      46.991 -27.890  -0.956  1.00  0.00     0.409 C 
HETATM   33  F   UNL     1      47.777 -27.022  -0.277  1.00  0.00    -0.169 F 
HETATM   34  F   UNL     1      47.176 -27.621  -2.278  1.00  0.00    -0.169 F 
HETATM   35  F   UNL     1      45.704 -27.597  -0.690  1.00  0.00    -0.169 F 
ENDBRANCH   8  32
TORSDOF 6
ENDMDL
