MODEL 1
REMARK VINA RESULT:      -9.9      0.000      0.000
REMARK  5 active torsions:
REMARK  status: ('A' for Active; 'I' for Inactive)
REMARK       I    between atoms: N_6  and  C_7 
REMARK    1  A    between atoms: C_7  and  C_8 
REMARK    2  A    between atoms: N_11  and  C_12 
REMARK    3  A    between atoms: C_19  and  C_20 
REMARK    4  A    between atoms: C_20  and  N_21 
REMARK    5  A    between atoms: N_21  and  C_22 
ROOT
HETATM    1  C   UNL     1      42.295 -15.324   3.405  1.00  0.00     0.719 A 
HETATM    2  N   UNL     1      42.987 -16.523   3.520  1.00  0.00    -0.154 N 
HETATM    3  C   UNL     1      43.456 -16.560   4.836  1.00  0.00     0.083 A 
HETATM    4  C   UNL     1      44.185 -17.707   5.262  1.00  0.00     0.033 A 
HETATM    5  C   UNL     1      44.446 -18.691   4.382  1.00  0.00     0.004 A 
HETATM    6  C   UNL     1      44.011 -18.604   3.003  1.00  0.00     0.018 A 
HETATM    7  C   UNL     1      43.301 -17.536   2.605  1.00  0.00     0.115 A 
HETATM    8  C   UNL     1      43.108 -15.357   5.409  1.00  0.00     0.099 A 
HETATM    9  N   UNL     1      42.377 -14.588   4.512  1.00  0.00    -0.064 NA
ENDROOT
BRANCH   1  10
HETATM   10  N   UNL     1      41.594 -14.866   2.281  1.00  0.00    -0.147 N 
HETATM   11  C   UNL     1      40.479 -15.485   1.755  1.00  0.00     0.233 A 
HETATM   12  N   UNL     1      39.982 -14.859   0.713  1.00  0.00    -0.236 NA
HETATM   13  C   UNL     1      40.802 -13.770   0.516  1.00  0.00     0.142 A 
HETATM   14  C   UNL     1      41.823 -13.795   1.453  1.00  0.00     0.153 A 
BRANCH  13  15
HETATM   15  C   UNL     1      40.669 -12.760  -0.548  1.00  0.00     0.273 C 
HETATM   16  N   UNL     1      40.021 -13.087  -1.752  1.00  0.00    -0.345 N 
HETATM   17  C   UNL     1      40.149 -12.127  -2.851  1.00  0.00     0.154 C 
HETATM   18  C   UNL     1      39.172 -14.260  -1.931  1.00  0.00     0.128 C 
HETATM   19  C   UNL     1      39.039 -11.069  -2.819  1.00  0.00     0.254 C 
HETATM   20  N   UNL     1      37.703 -11.611  -3.321  1.00  0.00    -0.073 N 
HETATM   21  C   UNL     1      36.668 -10.508  -3.324  1.00  0.00     0.269 C 
HETATM   22  H   UNL     1      37.832 -11.873  -4.308  1.00  0.00     0.279 HD
HETATM   23  C   UNL     1      37.180 -12.832  -2.590  1.00  0.00     0.236 C 
HETATM   24  C   UNL     1      38.014 -14.068  -2.909  1.00  0.00     0.048 C 
HETATM   25  O   UNL     1      41.100 -11.618  -0.379  1.00  0.00    -0.266 OA
ENDBRANCH  13  15
ENDBRANCH   1  10
BRANCH   8  26
HETATM   26  C   UNL     1      43.426 -14.831   6.779  1.00  0.00     0.183 C 
BRANCH  26  27
HETATM   27  N   UNL     1      42.991 -13.473   7.093  1.00  0.00    -0.371 N 
HETATM   28  H   UNL     1      42.140 -13.193   6.608  1.00  0.00     0.161 HD
BRANCH  27  29
HETATM   29  C   UNL     1      43.862 -12.426   7.326  1.00  0.00     0.101 A 
HETATM   30  N   UNL     1      43.649 -11.520   8.294  1.00  0.00    -0.353 N 
HETATM   31  H   UNL     1      42.870 -11.690   8.936  1.00  0.00     0.166 HD
HETATM   32  C   UNL     1      44.441 -10.460   8.503  1.00  0.00     0.089 A 
HETATM   33  C   UNL     1      45.550 -10.247   7.699  1.00  0.00     0.017 A 
HETATM   34  C   UNL     1      45.824 -11.156   6.688  1.00  0.00     0.005 A 
HETATM   35  C   UNL     1      44.979 -12.248   6.500  1.00  0.00     0.048 A 
ENDBRANCH  27  29
ENDBRANCH  26  27
ENDBRANCH   8  26
TORSDOF 5
ENDMDL
MODEL 2
REMARK VINA RESULT:      -9.7      2.639      8.975
REMARK  5 active torsions:
REMARK  status: ('A' for Active; 'I' for Inactive)
REMARK       I    between atoms: N_6  and  C_7 
REMARK    1  A    between atoms: C_7  and  C_8 
REMARK    2  A    between atoms: N_11  and  C_12 
REMARK    3  A    between atoms: C_19  and  C_20 
REMARK    4  A    between atoms: C_20  and  N_21 
REMARK    5  A    between atoms: N_21  and  C_22 
ROOT
HETATM    1  C   UNL     1      42.505 -14.086   3.468  1.00  0.00     0.719 A 
HETATM    2  N   UNL     1      42.852 -15.431   3.515  1.00  0.00    -0.154 N 
HETATM    3  C   UNL     1      42.102 -16.046   2.508  1.00  0.00     0.083 A 
HETATM    4  C   UNL     1      42.276 -17.443   2.293  1.00  0.00     0.033 A 
HETATM    5  C   UNL     1      43.110 -18.137   3.090  1.00  0.00     0.004 A 
HETATM    6  C   UNL     1      43.827 -17.495   4.173  1.00  0.00     0.018 A 
HETATM    7  C   UNL     1      43.684 -16.173   4.362  1.00  0.00     0.115 A 
HETATM    8  C   UNL     1      41.286 -15.072   1.978  1.00  0.00     0.099 A 
HETATM    9  N   UNL     1      41.544 -13.846   2.578  1.00  0.00    -0.064 NA
ENDROOT
BRANCH   1  10
HETATM   10  N   UNL     1      43.041 -13.055   4.251  1.00  0.00    -0.147 N 
HETATM   11  C   UNL     1      43.767 -11.994   3.749  1.00  0.00     0.233 A 
HETATM   12  N   UNL     1      44.147 -11.143   4.674  1.00  0.00    -0.236 NA
HETATM   13  C   UNL     1      43.667 -11.654   5.860  1.00  0.00     0.142 A 
HETATM   14  C   UNL     1      43.024 -12.855   5.610  1.00  0.00     0.153 A 
BRANCH  13  15
HETATM   15  C   UNL     1      43.847 -11.065   7.198  1.00  0.00     0.273 C 
HETATM   16  N   UNL     1      43.212  -9.854   7.526  1.00  0.00    -0.345 N 
HETATM   17  C   UNL     1      43.634  -9.203   8.768  1.00  0.00     0.154 C 
HETATM   18  C   UNL     1      42.116  -9.272   6.758  1.00  0.00     0.128 C 
HETATM   19  C   UNL     1      42.814  -9.683   9.973  1.00  0.00     0.254 C 
HETATM   20  N   UNL     1      41.419  -9.064  10.010  1.00  0.00    -0.073 N 
HETATM   21  C   UNL     1      40.684  -9.525  11.249  1.00  0.00     0.269 C 
HETATM   22  H   UNL     1      41.539  -8.048  10.122  1.00  0.00     0.279 HD
HETATM   23  C   UNL     1      40.572  -9.289   8.773  1.00  0.00     0.236 C 
HETATM   24  C   UNL     1      41.100  -8.488   7.587  1.00  0.00     0.048 C 
HETATM   25  O   UNL     1      44.531 -11.643   8.045  1.00  0.00    -0.266 OA
ENDBRANCH  13  15
ENDBRANCH   1  10
BRANCH   8  26
HETATM   26  C   UNL     1      40.225 -15.193   0.922  1.00  0.00     0.183 C 
BRANCH  26  27
HETATM   27  N   UNL     1      40.475 -14.539  -0.358  1.00  0.00    -0.371 N 
HETATM   28  H   UNL     1      41.298 -13.938  -0.357  1.00  0.00     0.161 HD
BRANCH  27  29
HETATM   29  C   UNL     1      39.471 -14.097  -1.199  1.00  0.00     0.101 A 
HETATM   30  N   UNL     1      38.670 -13.069  -0.876  1.00  0.00    -0.353 N 
HETATM   31  H   UNL     1      38.895 -12.543  -0.027  1.00  0.00     0.166 HD
HETATM   32  C   UNL     1      37.649 -12.656  -1.641  1.00  0.00     0.089 A 
HETATM   33  C   UNL     1      37.369 -13.299  -2.836  1.00  0.00     0.017 A 
HETATM   34  C   UNL     1      38.170 -14.364  -3.225  1.00  0.00     0.005 A 
HETATM   35  C   UNL     1      39.224 -14.764  -2.405  1.00  0.00     0.048 A 
ENDBRANCH  27  29
ENDBRANCH  26  27
ENDBRANCH   8  26
TORSDOF 5
ENDMDL
MODEL 3
REMARK VINA RESULT:      -9.5      1.408      1.862
REMARK  5 active torsions:
REMARK  status: ('A' for Active; 'I' for Inactive)
REMARK       I    between atoms: N_6  and  C_7 
REMARK    1  A    between atoms: C_7  and  C_8 
REMARK    2  A    between atoms: N_11  and  C_12 
REMARK    3  A    between atoms: C_19  and  C_20 
REMARK    4  A    between atoms: C_20  and  N_21 
REMARK    5  A    between atoms: N_21  and  C_22 
ROOT
HETATM    1  C   UNL     1      42.089 -15.475   3.026  1.00  0.00     0.719 A 
HETATM    2  N   UNL     1      42.868 -16.600   3.270  1.00  0.00    -0.154 N 
HETATM    3  C   UNL     1      43.421 -16.403   4.538  1.00  0.00     0.083 A 
HETATM    4  C   UNL     1      44.254 -17.425   5.078  1.00  0.00     0.033 A 
HETATM    5  C   UNL     1      44.525 -18.518   4.340  1.00  0.00     0.004 A 
HETATM    6  C   UNL     1      43.997 -18.672   3.000  1.00  0.00     0.018 A 
HETATM    7  C   UNL     1      43.192 -17.722   2.498  1.00  0.00     0.115 A 
HETATM    8  C   UNL     1      43.028 -15.148   4.946  1.00  0.00     0.099 A 
HETATM    9  N   UNL     1      42.190 -14.573   4.000  1.00  0.00    -0.064 NA
ENDROOT
BRANCH   1  10
HETATM   10  N   UNL     1      41.287 -15.239   1.901  1.00  0.00    -0.147 N 
HETATM   11  C   UNL     1      40.178 -15.989   1.565  1.00  0.00     0.233 A 
HETATM   12  N   UNL     1      39.576 -15.565   0.479  1.00  0.00    -0.236 NA
HETATM   13  C   UNL     1      40.314 -14.483   0.050  1.00  0.00     0.142 A 
HETATM   14  C   UNL     1      41.395 -14.307   0.899  1.00  0.00     0.153 A 
BRANCH  13  15
HETATM   15  C   UNL     1      40.049 -13.666  -1.146  1.00  0.00     0.273 C 
HETATM   16  N   UNL     1      39.260 -12.507  -1.048  1.00  0.00    -0.345 N 
HETATM   17  C   UNL     1      38.830 -11.892  -2.306  1.00  0.00     0.154 C 
HETATM   18  C   UNL     1      38.931 -11.848   0.212  1.00  0.00     0.128 C 
HETATM   19  C   UNL     1      39.849 -10.866  -2.818  1.00  0.00     0.254 C 
HETATM   20  N   UNL     1      39.790  -9.551  -2.045  1.00  0.00    -0.073 N 
HETATM   21  C   UNL     1      40.771  -8.562  -2.635  1.00  0.00     0.269 C 
HETATM   22  H   UNL     1      38.858  -9.145  -2.204  1.00  0.00     0.279 HD
HETATM   23  C   UNL     1      39.986  -9.667  -0.546  1.00  0.00     0.236 C 
HETATM   24  C   UNL     1      38.785 -10.329   0.120  1.00  0.00     0.048 C 
HETATM   25  O   UNL     1      40.539 -13.978  -2.233  1.00  0.00    -0.266 OA
ENDBRANCH  13  15
ENDBRANCH   1  10
BRANCH   8  26
HETATM   26  C   UNL     1      43.395 -14.398   6.194  1.00  0.00     0.183 C 
BRANCH  26  27
HETATM   27  N   UNL     1      43.280 -12.943   6.160  1.00  0.00    -0.371 N 
HETATM   28  H   UNL     1      43.091 -12.569   5.231  1.00  0.00     0.161 HD
BRANCH  27  29
HETATM   29  C   UNL     1      44.035 -12.098   6.951  1.00  0.00     0.101 A 
HETATM   30  N   UNL     1      43.552 -11.554   8.080  1.00  0.00    -0.353 N 
HETATM   31  H   UNL     1      42.634 -11.873   8.402  1.00  0.00     0.166 HD
HETATM   32  C   UNL     1      44.236 -10.684   8.834  1.00  0.00     0.089 A 
HETATM   33  C   UNL     1      45.514 -10.294   8.466  1.00  0.00     0.017 A 
HETATM   34  C   UNL     1      46.068 -10.831   7.312  1.00  0.00     0.005 A 
HETATM   35  C   UNL     1      45.327 -11.735   6.553  1.00  0.00     0.048 A 
ENDBRANCH  27  29
ENDBRANCH  26  27
ENDBRANCH   8  26
TORSDOF 5
ENDMDL
MODEL 4
REMARK VINA RESULT:      -9.5      4.308      9.939
REMARK  5 active torsions:
REMARK  status: ('A' for Active; 'I' for Inactive)
REMARK       I    between atoms: N_6  and  C_7 
REMARK    1  A    between atoms: C_7  and  C_8 
REMARK    2  A    between atoms: N_11  and  C_12 
REMARK    3  A    between atoms: C_19  and  C_20 
REMARK    4  A    between atoms: C_20  and  N_21 
REMARK    5  A    between atoms: N_21  and  C_22 
ROOT
HETATM    1  C   UNL     1      43.577 -12.864   5.604  1.00  0.00     0.719 A 
HETATM    2  N   UNL     1      43.031 -12.441   4.398  1.00  0.00    -0.154 N 
HETATM    3  C   UNL     1      42.559 -13.599   3.775  1.00  0.00     0.083 A 
HETATM    4  C   UNL     1      41.907 -13.471   2.515  1.00  0.00     0.033 A 
HETATM    5  C   UNL     1      41.809 -12.258   1.940  1.00  0.00     0.004 A 
HETATM    6  C   UNL     1      42.365 -11.078   2.570  1.00  0.00     0.018 A 
HETATM    7  C   UNL     1      42.958 -11.192   3.770  1.00  0.00     0.115 A 
HETATM    8  C   UNL     1      42.924 -14.654   4.581  1.00  0.00     0.099 A 
HETATM    9  N   UNL     1      43.556 -14.189   5.727  1.00  0.00    -0.064 NA
ENDROOT
BRANCH   1  10
HETATM   10  N   UNL     1      44.125 -12.052   6.606  1.00  0.00    -0.147 N 
HETATM   11  C   UNL     1      45.325 -11.379   6.493  1.00  0.00     0.233 A 
HETATM   12  N   UNL     1      45.621 -10.665   7.554  1.00  0.00    -0.236 NA
HETATM   13  C   UNL     1      44.580 -10.869   8.433  1.00  0.00     0.142 A 
HETATM   14  C   UNL     1      43.678 -11.759   7.871  1.00  0.00     0.153 A 
BRANCH  13  15
HETATM   15  C   UNL     1      44.453 -10.292   9.782  1.00  0.00     0.273 C 
HETATM   16  N   UNL     1      43.498  -9.290  10.033  1.00  0.00    -0.345 N 
HETATM   17  C   UNL     1      43.599  -8.589  11.315  1.00  0.00     0.154 C 
HETATM   18  C   UNL     1      42.383  -8.985   9.144  1.00  0.00     0.128 C 
HETATM   19  C   UNL     1      42.800  -9.295  12.418  1.00  0.00     0.254 C 
HETATM   20  N   UNL     1      41.298  -9.051  12.294  1.00  0.00    -0.073 N 
HETATM   21  C   UNL     1      40.571  -9.718  13.441  1.00  0.00     0.269 C 
HETATM   22  H   UNL     1      41.141  -8.041  12.417  1.00  0.00     0.279 HD
HETATM   23  C   UNL     1      40.680  -9.449  10.968  1.00  0.00     0.236 C 
HETATM   24  C   UNL     1      41.114  -8.508   9.850  1.00  0.00     0.048 C 
HETATM   25  O   UNL     1      45.163 -10.700  10.703  1.00  0.00    -0.266 OA
ENDBRANCH  13  15
ENDBRANCH   1  10
BRANCH   8  26
HETATM   26  C   UNL     1      42.739 -16.128   4.359  1.00  0.00     0.183 C 
BRANCH  26  27
HETATM   27  N   UNL     1      43.901 -16.988   4.564  1.00  0.00    -0.371 N 
HETATM   28  H   UNL     1      44.791 -16.516   4.412  1.00  0.00     0.161 HD
BRANCH  27  29
HETATM   29  C   UNL     1      43.925 -18.330   4.237  1.00  0.00     0.101 A 
HETATM   30  N   UNL     1      43.775 -18.760   2.973  1.00  0.00    -0.353 N 
HETATM   31  H   UNL     1      43.752 -18.053   2.233  1.00  0.00     0.166 HD
HETATM   32  C   UNL     1      43.732 -20.055   2.633  1.00  0.00     0.089 A 
HETATM   33  C   UNL     1      43.840 -21.037   3.604  1.00  0.00     0.017 A 
HETATM   34  C   UNL     1      44.005 -20.651   4.927  1.00  0.00     0.005 A 
HETATM   35  C   UNL     1      44.048 -19.294   5.244  1.00  0.00     0.048 A 
ENDBRANCH  27  29
ENDBRANCH  26  27
ENDBRANCH   8  26
TORSDOF 5
ENDMDL
MODEL 5
REMARK VINA RESULT:      -9.4      3.144      8.738
REMARK  5 active torsions:
REMARK  status: ('A' for Active; 'I' for Inactive)
REMARK       I    between atoms: N_6  and  C_7 
REMARK    1  A    between atoms: C_7  and  C_8 
REMARK    2  A    between atoms: N_11  and  C_12 
REMARK    3  A    between atoms: C_19  and  C_20 
REMARK    4  A    between atoms: C_20  and  N_21 
REMARK    5  A    between atoms: N_21  and  C_22 
ROOT
HETATM    1  C   UNL     1      42.565 -13.732   3.325  1.00  0.00     0.719 A 
HETATM    2  N   UNL     1      41.666 -13.462   2.300  1.00  0.00    -0.154 N 
HETATM    3  C   UNL     1      41.336 -14.707   1.755  1.00  0.00     0.083 A 
HETATM    4  C   UNL     1      40.392 -14.749   0.690  1.00  0.00     0.033 A 
HETATM    5  C   UNL     1      39.886 -13.599   0.207  1.00  0.00     0.004 A 
HETATM    6  C   UNL     1      40.291 -12.314   0.739  1.00  0.00     0.018 A 
HETATM    7  C   UNL     1      41.163 -12.273   1.761  1.00  0.00     0.115 A 
HETATM    8  C   UNL     1      42.114 -15.637   2.407  1.00  0.00     0.099 A 
HETATM    9  N   UNL     1      42.877 -15.024   3.392  1.00  0.00    -0.064 NA
ENDROOT
BRANCH   1  10
HETATM   10  N   UNL     1      43.136 -12.802   4.205  1.00  0.00    -0.147 N 
HETATM   11  C   UNL     1      44.056 -11.843   3.833  1.00  0.00     0.233 A 
HETATM   12  N   UNL     1      44.431 -11.073   4.828  1.00  0.00    -0.236 NA
HETATM   13  C   UNL     1      43.744 -11.536   5.928  1.00  0.00     0.142 A 
HETATM   14  C   UNL     1      42.979 -12.630   5.558  1.00  0.00     0.153 A 
BRANCH  13  15
HETATM   15  C   UNL     1      43.835 -11.006   7.300  1.00  0.00     0.273 C 
HETATM   16  N   UNL     1      43.188  -9.804   7.635  1.00  0.00    -0.345 N 
HETATM   17  C   UNL     1      43.528  -9.211   8.930  1.00  0.00     0.154 C 
HETATM   18  C   UNL     1      42.150  -9.181   6.821  1.00  0.00     0.128 C 
HETATM   19  C   UNL     1      42.625  -9.734  10.055  1.00  0.00     0.254 C 
HETATM   20  N   UNL     1      41.235  -9.104  10.024  1.00  0.00    -0.073 N 
HETATM   21  C   UNL     1      40.414  -9.611  11.190  1.00  0.00     0.269 C 
HETATM   22  H   UNL     1      41.353  -8.095  10.187  1.00  0.00     0.279 HD
HETATM   23  C   UNL     1      40.473  -9.269   8.724  1.00  0.00     0.236 C 
HETATM   24  C   UNL     1      41.084  -8.423   7.612  1.00  0.00     0.048 C 
HETATM   25  O   UNL     1      44.457 -11.626   8.165  1.00  0.00    -0.266 OA
ENDBRANCH  13  15
ENDBRANCH   1  10
BRANCH   8  26
HETATM   26  C   UNL     1      42.223 -17.116   2.170  1.00  0.00     0.183 C 
BRANCH  26  27
HETATM   27  N   UNL     1      43.520 -17.740   2.412  1.00  0.00    -0.371 N 
HETATM   28  H   UNL     1      44.099 -17.816   1.577  1.00  0.00     0.161 HD
BRANCH  27  29
HETATM   29  C   UNL     1      43.718 -18.768   3.315  1.00  0.00     0.101 A 
HETATM   30  N   UNL     1      43.760 -20.055   2.935  1.00  0.00    -0.353 N 
HETATM   31  H   UNL     1      43.752 -20.251   1.930  1.00  0.00     0.166 HD
HETATM   32  C   UNL     1      43.889 -21.076   3.793  1.00  0.00     0.089 A 
HETATM   33  C   UNL     1      43.982 -20.837   5.154  1.00  0.00     0.017 A 
HETATM   34  C   UNL     1      43.952 -19.525   5.604  1.00  0.00     0.005 A 
HETATM   35  C   UNL     1      43.820 -18.487   4.683  1.00  0.00     0.048 A 
ENDBRANCH  27  29
ENDBRANCH  26  27
ENDBRANCH   8  26
TORSDOF 5
ENDMDL
MODEL 6
REMARK VINA RESULT:      -9.3      1.429      4.807
REMARK  5 active torsions:
REMARK  status: ('A' for Active; 'I' for Inactive)
REMARK       I    between atoms: N_6  and  C_7 
REMARK    1  A    between atoms: C_7  and  C_8 
REMARK    2  A    between atoms: N_11  and  C_12 
REMARK    3  A    between atoms: C_19  and  C_20 
REMARK    4  A    between atoms: C_20  and  N_21 
REMARK    5  A    between atoms: N_21  and  C_22 
ROOT
HETATM    1  C   UNL     1      41.997 -14.639   3.706  1.00  0.00     0.719 A 
HETATM    2  N   UNL     1      42.522 -13.737   4.624  1.00  0.00    -0.154 N 
HETATM    3  C   UNL     1      43.002 -14.515   5.681  1.00  0.00     0.083 A 
HETATM    4  C   UNL     1      43.636 -13.855   6.772  1.00  0.00     0.033 A 
HETATM    5  C   UNL     1      43.710 -12.512   6.782  1.00  0.00     0.004 A 
HETATM    6  C   UNL     1      43.145 -11.718   5.709  1.00  0.00     0.018 A 
HETATM    7  C   UNL     1      42.569 -12.338   4.666  1.00  0.00     0.115 A 
HETATM    8  C   UNL     1      42.661 -15.818   5.393  1.00  0.00     0.099 A 
HETATM    9  N   UNL     1      42.038 -15.892   4.154  1.00  0.00    -0.064 NA
ENDROOT
BRANCH   1  10
HETATM   10  N   UNL     1      41.450 -14.336   2.452  1.00  0.00    -0.147 N 
HETATM   11  C   UNL     1      40.567 -15.149   1.771  1.00  0.00     0.233 A 
HETATM   12  N   UNL     1      40.176 -14.644   0.624  1.00  0.00    -0.236 NA
HETATM   13  C   UNL     1      40.832 -13.437   0.515  1.00  0.00     0.142 A 
HETATM   14  C   UNL     1      41.653 -13.264   1.618  1.00  0.00     0.153 A 
BRANCH  13  15
HETATM   15  C   UNL     1      40.736 -12.493  -0.612  1.00  0.00     0.273 C 
HETATM   16  N   UNL     1      40.024 -12.848  -1.771  1.00  0.00    -0.345 N 
HETATM   17  C   UNL     1      40.183 -11.976  -2.936  1.00  0.00     0.154 C 
HETATM   18  C   UNL     1      39.084 -13.963  -1.842  1.00  0.00     0.128 C 
HETATM   19  C   UNL     1      39.156 -10.836  -2.943  1.00  0.00     0.254 C 
HETATM   20  N   UNL     1      37.767 -11.308  -3.365  1.00  0.00    -0.073 N 
HETATM   21  C   UNL     1      36.816 -10.131  -3.413  1.00  0.00     0.269 C 
HETATM   22  H   UNL     1      37.841 -11.642  -4.336  1.00  0.00     0.279 HD
HETATM   23  C   UNL     1      37.181 -12.434  -2.538  1.00  0.00     0.236 C 
HETATM   24  C   UNL     1      37.910 -13.748  -2.796  1.00  0.00     0.048 C 
HETATM   25  O   UNL     1      41.256 -11.378  -0.534  1.00  0.00    -0.266 OA
ENDBRANCH  13  15
ENDBRANCH   1  10
BRANCH   8  26
HETATM   26  C   UNL     1      42.864 -17.056   6.218  1.00  0.00     0.183 C 
BRANCH  26  27
HETATM   27  N   UNL     1      43.978 -17.927   5.859  1.00  0.00    -0.371 N 
HETATM   28  H   UNL     1      44.893 -17.502   6.002  1.00  0.00     0.161 HD
BRANCH  27  29
HETATM   29  C   UNL     1      43.943 -18.816   4.801  1.00  0.00     0.101 A 
HETATM   30  N   UNL     1      43.768 -18.411   3.533  1.00  0.00    -0.353 N 
HETATM   31  H   UNL     1      43.771 -17.402   3.355  1.00  0.00     0.166 HD
HETATM   32  C   UNL     1      43.668 -19.251   2.494  1.00  0.00     0.089 A 
HETATM   33  C   UNL     1      43.740 -20.620   2.694  1.00  0.00     0.017 A 
HETATM   34  C   UNL     1      43.929 -21.096   3.984  1.00  0.00     0.005 A 
HETATM   35  C   UNL     1      44.031 -20.193   5.040  1.00  0.00     0.048 A 
ENDBRANCH  27  29
ENDBRANCH  26  27
ENDBRANCH   8  26
TORSDOF 5
ENDMDL
MODEL 7
REMARK VINA RESULT:      -9.0      3.314      6.854
REMARK  5 active torsions:
REMARK  status: ('A' for Active; 'I' for Inactive)
REMARK       I    between atoms: N_6  and  C_7 
REMARK    1  A    between atoms: C_7  and  C_8 
REMARK    2  A    between atoms: N_11  and  C_12 
REMARK    3  A    between atoms: C_19  and  C_20 
REMARK    4  A    between atoms: C_20  and  N_21 
REMARK    5  A    between atoms: N_21  and  C_22 
ROOT
HETATM    1  C   UNL     1      43.332 -10.780   7.235  1.00  0.00     0.719 A 
HETATM    2  N   UNL     1      42.889  -9.484   7.471  1.00  0.00    -0.154 N 
HETATM    3  C   UNL     1      43.301  -9.179   8.771  1.00  0.00     0.083 A 
HETATM    4  C   UNL     1      43.012  -7.882   9.285  1.00  0.00     0.033 A 
HETATM    5  C   UNL     1      42.312  -7.013   8.533  1.00  0.00     0.004 A 
HETATM    6  C   UNL     1      41.833  -7.371   7.214  1.00  0.00     0.018 A 
HETATM    7  C   UNL     1      42.127  -8.584   6.716  1.00  0.00     0.115 A 
HETATM    8  C   UNL     1      43.879 -10.322   9.276  1.00  0.00     0.099 A 
HETATM    9  N   UNL     1      43.902 -11.320   8.310  1.00  0.00    -0.064 NA
ENDROOT
BRANCH   1  10
HETATM   10  N   UNL     1      43.207 -11.504   6.041  1.00  0.00    -0.147 N 
HETATM   11  C   UNL     1      44.021 -11.334   4.940  1.00  0.00     0.233 A 
HETATM   12  N   UNL     1      43.724 -12.141   3.948  1.00  0.00    -0.236 NA
HETATM   13  C   UNL     1      42.652 -12.886   4.390  1.00  0.00     0.142 A 
HETATM   14  C   UNL     1      42.302 -12.465   5.663  1.00  0.00     0.153 A 
BRANCH  13  15
HETATM   15  C   UNL     1      41.941 -13.926   3.629  1.00  0.00     0.273 C 
HETATM   16  N   UNL     1      40.646 -13.680   3.139  1.00  0.00    -0.345 N 
HETATM   17  C   UNL     1      39.907 -14.833   2.620  1.00  0.00     0.154 C 
HETATM   18  C   UNL     1      40.049 -12.352   3.040  1.00  0.00     0.128 C 
HETATM   19  C   UNL     1      40.171 -15.056   1.125  1.00  0.00     0.254 C 
HETATM   20  N   UNL     1      39.421 -14.058   0.247  1.00  0.00    -0.073 N 
HETATM   21  C   UNL     1      39.671 -14.367  -1.213  1.00  0.00     0.269 C 
HETATM   22  H   UNL     1      38.415 -14.217   0.394  1.00  0.00     0.279 HD
HETATM   23  C   UNL     1      39.698 -12.596   0.538  1.00  0.00     0.236 C 
HETATM   24  C   UNL     1      39.086 -12.170   1.867  1.00  0.00     0.048 C 
HETATM   25  O   UNL     1      42.485 -15.007   3.394  1.00  0.00    -0.266 OA
ENDBRANCH  13  15
ENDBRANCH   1  10
BRANCH   8  26
HETATM   26  C   UNL     1      44.425 -10.581  10.651  1.00  0.00     0.183 C 
BRANCH  26  27
HETATM   27  N   UNL     1      43.484 -11.031  11.672  1.00  0.00    -0.371 N 
HETATM   28  H   UNL     1      43.048 -11.928  11.461  1.00  0.00     0.161 HD
BRANCH  27  29
HETATM   29  C   UNL     1      42.667 -10.176  12.387  1.00  0.00     0.101 A 
HETATM   30  N   UNL     1      41.395 -10.488  12.688  1.00  0.00    -0.353 N 
HETATM   31  H   UNL     1      41.076 -11.435  12.465  1.00  0.00     0.166 HD
HETATM   32  C   UNL     1      40.560  -9.656  13.325  1.00  0.00     0.089 A 
HETATM   33  C   UNL     1      40.988  -8.396  13.710  1.00  0.00     0.017 A 
HETATM   34  C   UNL     1      42.296  -8.023  13.433  1.00  0.00     0.005 A 
HETATM   35  C   UNL     1      43.137  -8.915  12.770  1.00  0.00     0.048 A 
ENDBRANCH  27  29
ENDBRANCH  26  27
ENDBRANCH   8  26
TORSDOF 5
ENDMDL
MODEL 8
REMARK VINA RESULT:      -8.7      3.319      6.157
REMARK  5 active torsions:
REMARK  status: ('A' for Active; 'I' for Inactive)
REMARK       I    between atoms: N_6  and  C_7 
REMARK    1  A    between atoms: C_7  and  C_8 
REMARK    2  A    between atoms: N_11  and  C_12 
REMARK    3  A    between atoms: C_19  and  C_20 
REMARK    4  A    between atoms: C_20  and  N_21 
REMARK    5  A    between atoms: N_21  and  C_22 
ROOT
HETATM    1  C   UNL     1      42.670 -10.609   6.597  1.00  0.00     0.719 A 
HETATM    2  N   UNL     1      43.878 -10.524   7.277  1.00  0.00    -0.154 N 
HETATM    3  C   UNL     1      43.567  -9.975   8.525  1.00  0.00     0.083 A 
HETATM    4  C   UNL     1      44.621  -9.797   9.467  1.00  0.00     0.033 A 
HETATM    5  C   UNL     1      45.882 -10.111   9.117  1.00  0.00     0.004 A 
HETATM    6  C   UNL     1      46.195 -10.615   7.795  1.00  0.00     0.018 A 
HETATM    7  C   UNL     1      45.200 -10.807   6.913  1.00  0.00     0.115 A 
HETATM    8  C   UNL     1      42.224  -9.675   8.496  1.00  0.00     0.099 A 
HETATM    9  N   UNL     1      41.665 -10.078   7.290  1.00  0.00    -0.064 NA
ENDROOT
BRANCH   1  10
HETATM   10  N   UNL     1      42.463 -11.152   5.321  1.00  0.00    -0.147 N 
HETATM   11  C   UNL     1      42.798 -10.518   4.142  1.00  0.00     0.233 A 
HETATM   12  N   UNL     1      42.528 -11.233   3.075  1.00  0.00    -0.236 NA
HETATM   13  C   UNL     1      41.973 -12.402   3.549  1.00  0.00     0.142 A 
HETATM   14  C   UNL     1      41.890 -12.337   4.931  1.00  0.00     0.153 A 
BRANCH  13  15
HETATM   15  C   UNL     1      41.486 -13.528   2.735  1.00  0.00     0.273 C 
HETATM   16  N   UNL     1      40.195 -13.490   2.178  1.00  0.00    -0.345 N 
HETATM   17  C   UNL     1      39.688 -14.737   1.602  1.00  0.00     0.154 C 
HETATM   18  C   UNL     1      39.391 -12.277   2.065  1.00  0.00     0.128 C 
HETATM   19  C   UNL     1      40.064 -14.878   0.121  1.00  0.00     0.254 C 
HETATM   20  N   UNL     1      39.204 -13.998  -0.783  1.00  0.00    -0.073 N 
HETATM   21  C   UNL     1      39.578 -14.227  -2.231  1.00  0.00     0.269 C 
HETATM   22  H   UNL     1      38.232 -14.326  -0.693  1.00  0.00     0.279 HD
HETATM   23  C   UNL     1      39.217 -12.518  -0.456  1.00  0.00     0.236 C 
HETATM   24  C   UNL     1      38.473 -12.231   0.844  1.00  0.00     0.048 C 
HETATM   25  O   UNL     1      42.215 -14.497   2.515  1.00  0.00    -0.266 OA
ENDBRANCH  13  15
ENDBRANCH   1  10
BRANCH   8  26
HETATM   26  C   UNL     1      41.379  -9.000   9.538  1.00  0.00     0.183 C 
BRANCH  26  27
HETATM   27  N   UNL     1      41.187  -9.702  10.803  1.00  0.00    -0.371 N 
HETATM   28  H   UNL     1      40.316 -10.228  10.850  1.00  0.00     0.161 HD
BRANCH  27  29
HETATM   29  C   UNL     1      41.595  -9.201  12.025  1.00  0.00     0.101 A 
HETATM   30  N   UNL     1      40.910  -9.432  13.156  1.00  0.00    -0.353 N 
HETATM   31  H   UNL     1      40.126 -10.089  13.109  1.00  0.00     0.166 HD
HETATM   32  C   UNL     1      41.245  -8.910  14.344  1.00  0.00     0.089 A 
HETATM   33  C   UNL     1      42.349  -8.079  14.455  1.00  0.00     0.017 A 
HETATM   34  C   UNL     1      43.099  -7.812  13.319  1.00  0.00     0.005 A 
HETATM   35  C   UNL     1      42.722  -8.374  12.101  1.00  0.00     0.048 A 
ENDBRANCH  27  29
ENDBRANCH  26  27
ENDBRANCH   8  26
TORSDOF 5
ENDMDL
MODEL 9
REMARK VINA RESULT:      -8.6      4.735     10.843
REMARK  5 active torsions:
REMARK  status: ('A' for Active; 'I' for Inactive)
REMARK       I    between atoms: N_6  and  C_7 
REMARK    1  A    between atoms: C_7  and  C_8 
REMARK    2  A    between atoms: N_11  and  C_12 
REMARK    3  A    between atoms: C_19  and  C_20 
REMARK    4  A    between atoms: C_20  and  N_21 
REMARK    5  A    between atoms: N_21  and  C_22 
ROOT
HETATM    1  C   UNL     1      42.165 -10.429   7.031  1.00  0.00     0.719 A 
HETATM    2  N   UNL     1      43.530 -10.456   7.289  1.00  0.00    -0.154 N 
HETATM    3  C   UNL     1      44.091 -11.212   6.255  1.00  0.00     0.083 A 
HETATM    4  C   UNL     1      45.505 -11.386   6.236  1.00  0.00     0.033 A 
HETATM    5  C   UNL     1      46.250 -10.868   7.230  1.00  0.00     0.004 A 
HETATM    6  C   UNL     1      45.642 -10.147   8.330  1.00  0.00     0.018 A 
HETATM    7  C   UNL     1      44.312  -9.959   8.338  1.00  0.00     0.115 A 
HETATM    8  C   UNL     1      43.041 -11.672   5.493  1.00  0.00     0.099 A 
HETATM    9  N   UNL     1      41.838 -11.176   5.978  1.00  0.00    -0.064 NA
ENDROOT
BRANCH   1  10
HETATM   10  N   UNL     1      41.187  -9.741   7.762  1.00  0.00    -0.147 N 
HETATM   11  C   UNL     1      39.859  -9.653   7.395  1.00  0.00     0.233 A 
HETATM   12  N   UNL     1      39.130  -8.974   8.249  1.00  0.00    -0.236 NA
HETATM   13  C   UNL     1      40.003  -8.573   9.237  1.00  0.00     0.142 A 
HETATM   14  C   UNL     1      41.280  -9.005   8.918  1.00  0.00     0.153 A 
BRANCH  13  15
HETATM   15  C   UNL     1      39.667  -7.764  10.422  1.00  0.00     0.273 C 
HETATM   16  N   UNL     1      39.417  -8.392  11.655  1.00  0.00    -0.345 N 
HETATM   17  C   UNL     1      38.845  -7.559  12.715  1.00  0.00     0.154 C 
HETATM   18  C   UNL     1      39.775  -9.774  11.955  1.00  0.00     0.128 C 
HETATM   19  C   UNL     1      39.931  -6.874  13.554  1.00  0.00     0.254 C 
HETATM   20  N   UNL     1      40.598  -7.834  14.536  1.00  0.00    -0.073 N 
HETATM   21  C   UNL     1      41.613  -7.088  15.376  1.00  0.00     0.269 C 
HETATM   22  H   UNL     1      39.872  -8.148  15.195  1.00  0.00     0.279 HD
HETATM   23  C   UNL     1      41.221  -9.070  13.919  1.00  0.00     0.236 C 
HETATM   24  C   UNL     1      40.154 -10.034  13.413  1.00  0.00     0.048 C 
HETATM   25  O   UNL     1      39.629  -6.535  10.345  1.00  0.00    -0.266 OA
ENDBRANCH  13  15
ENDBRANCH   1  10
BRANCH   8  26
HETATM   26  C   UNL     1      43.062 -12.589   4.304  1.00  0.00     0.183 C 
BRANCH  26  27
HETATM   27  N   UNL     1      42.522 -13.933   4.485  1.00  0.00    -0.371 N 
HETATM   28  H   UNL     1      42.394 -14.195   5.461  1.00  0.00     0.161 HD
BRANCH  27  29
HETATM   29  C   UNL     1      42.838 -15.000   3.665  1.00  0.00     0.101 A 
HETATM   30  N   UNL     1      43.155 -14.837   2.370  1.00  0.00    -0.353 N 
HETATM   31  H   UNL     1      43.265 -13.879   2.028  1.00  0.00     0.166 HD
HETATM   32  C   UNL     1      43.405 -15.855   1.535  1.00  0.00     0.089 A 
HETATM   33  C   UNL     1      43.341 -17.162   1.990  1.00  0.00     0.017 A 
HETATM   34  C   UNL     1      43.026 -17.391   3.321  1.00  0.00     0.005 A 
HETATM   35  C   UNL     1      42.774 -16.308   4.161  1.00  0.00     0.048 A 
ENDBRANCH  27  29
ENDBRANCH  26  27
ENDBRANCH   8  26
TORSDOF 5
ENDMDL
MODEL 10
REMARK VINA RESULT:      -8.5      3.936      9.907
REMARK  5 active torsions:
REMARK  status: ('A' for Active; 'I' for Inactive)
REMARK       I    between atoms: N_6  and  C_7 
REMARK    1  A    between atoms: C_7  and  C_8 
REMARK    2  A    between atoms: N_11  and  C_12 
REMARK    3  A    between atoms: C_19  and  C_20 
REMARK    4  A    between atoms: C_20  and  N_21 
REMARK    5  A    between atoms: N_21  and  C_22 
ROOT
HETATM    1  C   UNL     1      40.297 -12.297   4.784  1.00  0.00     0.719 A 
HETATM    2  N   UNL     1      40.416 -13.631   5.155  1.00  0.00    -0.154 N 
HETATM    3  C   UNL     1      40.814 -14.307   3.998  1.00  0.00     0.083 A 
HETATM    4  C   UNL     1      41.051 -15.709   4.082  1.00  0.00     0.033 A 
HETATM    5  C   UNL     1      40.839 -16.348   5.247  1.00  0.00     0.004 A 
HETATM    6  C   UNL     1      40.360 -15.642   6.419  1.00  0.00     0.018 A 
HETATM    7  C   UNL     1      40.160 -14.316   6.349  1.00  0.00     0.115 A 
HETATM    8  C   UNL     1      40.822 -13.375   2.985  1.00  0.00     0.099 A 
HETATM    9  N   UNL     1      40.503 -12.118   3.481  1.00  0.00    -0.064 NA
ENDROOT
BRANCH   1  10
HETATM   10  N   UNL     1      39.976 -11.220   5.622  1.00  0.00    -0.147 N 
HETATM   11  C   UNL     1      38.696 -10.747   5.824  1.00  0.00     0.233 A 
HETATM   12  N   UNL     1      38.642  -9.743   6.668  1.00  0.00    -0.236 NA
HETATM   13  C   UNL     1      39.947  -9.516   7.049  1.00  0.00     0.142 A 
HETATM   14  C   UNL     1      40.777 -10.395   6.372  1.00  0.00     0.153 A 
BRANCH  13  15
HETATM   15  C   UNL     1      40.414  -8.474   7.980  1.00  0.00     0.273 C 
HETATM   16  N   UNL     1      40.045  -8.524   9.336  1.00  0.00    -0.345 N 
HETATM   17  C   UNL     1      40.329  -7.334  10.141  1.00  0.00     0.154 C 
HETATM   18  C   UNL     1      39.492  -9.706   9.988  1.00  0.00     0.128 C 
HETATM   19  C   UNL     1      41.729  -7.386  10.766  1.00  0.00     0.254 C 
HETATM   20  N   UNL     1      41.796  -8.330  11.964  1.00  0.00    -0.073 N 
HETATM   21  C   UNL     1      43.180  -8.291  12.574  1.00  0.00     0.269 C 
HETATM   22  H   UNL     1      41.166  -7.953  12.685  1.00  0.00     0.279 HD
HETATM   23  C   UNL     1      41.373  -9.760  11.692  1.00  0.00     0.236 C 
HETATM   24  C   UNL     1      39.869  -9.859  11.462  1.00  0.00     0.048 C 
HETATM   25  O   UNL     1      41.151  -7.570   7.582  1.00  0.00    -0.266 OA
ENDBRANCH  13  15
ENDBRANCH   1  10
BRANCH   8  26
HETATM   26  C   UNL     1      41.099 -13.567   1.521  1.00  0.00     0.183 C 
BRANCH  26  27
HETATM   27  N   UNL     1      40.249 -14.505   0.795  1.00  0.00    -0.371 N 
HETATM   28  H   UNL     1      40.413 -15.480   1.040  1.00  0.00     0.161 HD
BRANCH  27  29
HETATM   29  C   UNL     1      39.861 -14.324  -0.520  1.00  0.00     0.101 A 
HETATM   30  N   UNL     1      39.030 -15.176  -1.143  1.00  0.00    -0.353 N 
HETATM   31  H   UNL     1      38.598 -15.913  -0.579  1.00  0.00     0.166 HD
HETATM   32  C   UNL     1      38.685 -15.062  -2.433  1.00  0.00     0.089 A 
HETATM   33  C   UNL     1      39.192 -14.028  -3.203  1.00  0.00     0.017 A 
HETATM   34  C   UNL     1      40.049 -13.113  -2.609  1.00  0.00     0.005 A 
HETATM   35  C   UNL     1      40.385 -13.261  -1.264  1.00  0.00     0.048 A 
ENDBRANCH  27  29
ENDBRANCH  26  27
ENDBRANCH   8  26
TORSDOF 5
ENDMDL
