MODEL 1
REMARK VINA RESULT:      -8.6      0.000      0.000
REMARK  5 active torsions:
REMARK  status: ('A' for Active; 'I' for Inactive)
REMARK    1  A    between atoms: O_2  and  C_3 
REMARK    2  A    between atoms: C_6  and  N_7 
REMARK       I    between atoms: N_7  and  C_8 
REMARK    3  A    between atoms: C_8  and  C_9 
REMARK    4  A    between atoms: C_9  and  N_10 
REMARK    5  A    between atoms: N_10  and  C_11 
ROOT
HETATM    1  C   UNL     1      42.290 -13.612   4.521  1.00  0.00     0.195 C 
ENDROOT
BRANCH   1   2
HETATM    2  C   UNL     1      40.848 -14.003   4.834  1.00  0.00     0.235 C 
HETATM    3  N   UNL     1      39.922 -14.252   3.862  1.00  0.00    -0.326 N 
HETATM    4  H   UNL     1      39.069 -14.614   4.273  1.00  0.00     0.169 HD
HETATM    5  O   UNL     1      40.482 -14.121   6.011  1.00  0.00    -0.272 OA
BRANCH   3   6
HETATM    6  C   UNL     1      39.910 -14.101   2.464  1.00  0.00     0.034 A 
HETATM    7  C   UNL     1      39.786 -12.894   1.780  1.00  0.00     0.032 A 
HETATM    8  C   UNL     1      39.799 -12.855   0.376  1.00  0.00     0.039 A 
HETATM    9  C   UNL     1      39.920 -14.029  -0.363  1.00  0.00     0.068 A 
HETATM   10  C   UNL     1      39.998 -15.244   0.315  1.00  0.00     0.039 A 
HETATM   11  C   UNL     1      39.989 -15.280   1.713  1.00  0.00     0.032 A 
BRANCH   9  12
HETATM   12  O   UNL     1      39.952 -14.123  -1.725  1.00  0.00    -0.356 OA
HETATM   13  C   UNL     1      38.845 -14.763  -2.348  1.00  0.00     0.210 C 
ENDBRANCH   9  12
ENDBRANCH   3   6
ENDBRANCH   1   2
BRANCH   1  14
HETATM   14  N   UNL     1      43.196 -14.674   4.963  1.00  0.00    -0.284 NA
HETATM   15  H   UNL     1      43.182 -14.782   5.978  1.00  0.00     0.128 HD
BRANCH  14  16
HETATM   16  C   UNL     1      43.222 -15.908   4.308  1.00  0.00     0.009 A 
HETATM   17  C   UNL     1      43.504 -17.054   5.068  1.00  0.00     0.035 A 
HETATM   18  C   UNL     1      43.646 -18.325   4.484  1.00  0.00    -0.024 A 
HETATM   19  C   UNL     1      43.530 -18.455   3.084  1.00  0.00    -0.026 A 
HETATM   20  C   UNL     1      43.911 -19.467   5.259  1.00  0.00     0.012 A 
HETATM   21  C   UNL     1      43.281 -17.310   2.317  1.00  0.00     0.014 A 
HETATM   22  C   UNL     1      43.679 -19.721   2.494  1.00  0.00     0.012 A 
HETATM   23  C   UNL     1      43.144 -16.054   2.922  1.00  0.00     0.024 A 
HETATM   24  C   UNL     1      43.940 -20.846   3.279  1.00  0.00     0.001 A 
HETATM   25  C   UNL     1      44.056 -20.720   4.660  1.00  0.00     0.001 A 
ENDBRANCH  14  16
ENDBRANCH   1  14
TORSDOF 5
ENDMDL
MODEL 2
REMARK VINA RESULT:      -8.3      0.911      1.841
REMARK  5 active torsions:
REMARK  status: ('A' for Active; 'I' for Inactive)
REMARK    1  A    between atoms: O_2  and  C_3 
REMARK    2  A    between atoms: C_6  and  N_7 
REMARK       I    between atoms: N_7  and  C_8 
REMARK    3  A    between atoms: C_8  and  C_9 
REMARK    4  A    between atoms: C_9  and  N_10 
REMARK    5  A    between atoms: N_10  and  C_11 
ROOT
HETATM    1  C   UNL     1      41.844 -12.958   4.989  1.00  0.00     0.195 C 
ENDROOT
BRANCH   1   2
HETATM    2  C   UNL     1      40.383 -13.345   5.208  1.00  0.00     0.235 C 
HETATM    3  N   UNL     1      39.567 -13.757   4.195  1.00  0.00    -0.326 N 
HETATM    4  H   UNL     1      38.682 -14.084   4.565  1.00  0.00     0.169 HD
HETATM    5  O   UNL     1      39.899 -13.307   6.347  1.00  0.00    -0.272 OA
BRANCH   3   6
HETATM    6  C   UNL     1      39.698 -13.806   2.795  1.00  0.00     0.034 A 
HETATM    7  C   UNL     1      39.588 -12.717   1.932  1.00  0.00     0.032 A 
HETATM    8  C   UNL     1      39.750 -12.876   0.546  1.00  0.00     0.039 A 
HETATM    9  C   UNL     1      40.008 -14.131   0.003  1.00  0.00     0.068 A 
HETATM   10  C   UNL     1      40.073 -15.231   0.856  1.00  0.00     0.039 A 
HETATM   11  C   UNL     1      39.916 -15.071   2.236  1.00  0.00     0.032 A 
BRANCH   9  12
HETATM   12  O   UNL     1      40.191 -14.414  -1.321  1.00  0.00    -0.356 OA
HETATM   13  C   UNL     1      39.071 -14.220  -2.176  1.00  0.00     0.210 C 
ENDBRANCH   9  12
ENDBRANCH   3   6
ENDBRANCH   1   2
BRANCH   1  14
HETATM   14  N   UNL     1      42.697 -13.711   5.911  1.00  0.00    -0.284 NA
HETATM   15  H   UNL     1      42.322 -13.706   6.859  1.00  0.00     0.128 HD
BRANCH  14  16
HETATM   16  C   UNL     1      43.198 -14.965   5.554  1.00  0.00     0.009 A 
HETATM   17  C   UNL     1      42.820 -15.500   4.312  1.00  0.00     0.035 A 
HETATM   18  C   UNL     1      43.195 -16.793   3.906  1.00  0.00    -0.024 A 
HETATM   19  C   UNL     1      43.953 -17.596   4.784  1.00  0.00    -0.026 A 
HETATM   20  C   UNL     1      42.824 -17.308   2.653  1.00  0.00     0.012 A 
HETATM   21  C   UNL     1      44.307 -17.080   6.038  1.00  0.00     0.014 A 
HETATM   22  C   UNL     1      44.324 -18.891   4.387  1.00  0.00     0.012 A 
HETATM   23  C   UNL     1      43.921 -15.789   6.419  1.00  0.00     0.024 A 
HETATM   24  C   UNL     1      43.949 -19.388   3.137  1.00  0.00     0.001 A 
HETATM   25  C   UNL     1      43.200 -18.597   2.271  1.00  0.00     0.001 A 
ENDBRANCH  14  16
ENDBRANCH   1  14
TORSDOF 5
ENDMDL
MODEL 3
REMARK VINA RESULT:      -8.2      2.367      3.349
REMARK  5 active torsions:
REMARK  status: ('A' for Active; 'I' for Inactive)
REMARK    1  A    between atoms: O_2  and  C_3 
REMARK    2  A    between atoms: C_6  and  N_7 
REMARK       I    between atoms: N_7  and  C_8 
REMARK    3  A    between atoms: C_8  and  C_9 
REMARK    4  A    between atoms: C_9  and  N_10 
REMARK    5  A    between atoms: N_10  and  C_11 
ROOT
HETATM    1  C   UNL     1      41.435 -14.223   1.568  1.00  0.00     0.195 C 
ENDROOT
BRANCH   1   2
HETATM    2  C   UNL     1      40.224 -15.022   1.091  1.00  0.00     0.235 C 
HETATM    3  N   UNL     1      39.571 -14.749  -0.075  1.00  0.00    -0.326 N 
HETATM    4  H   UNL     1      38.881 -15.466  -0.269  1.00  0.00     0.169 HD
HETATM    5  O   UNL     1      39.808 -15.973   1.767  1.00  0.00    -0.272 OA
BRANCH   3   6
HETATM    6  C   UNL     1      39.651 -13.708  -1.018  1.00  0.00     0.034 A 
HETATM    7  C   UNL     1      40.419 -13.726  -2.181  1.00  0.00     0.032 A 
HETATM    8  C   UNL     1      40.417 -12.634  -3.063  1.00  0.00     0.039 A 
HETATM    9  C   UNL     1      39.657 -11.500  -2.785  1.00  0.00     0.068 A 
HETATM   10  C   UNL     1      38.923 -11.459  -1.602  1.00  0.00     0.039 A 
HETATM   11  C   UNL     1      38.923 -12.549  -0.726  1.00  0.00     0.032 A 
BRANCH   9  12
HETATM   12  O   UNL     1      39.566 -10.382  -3.563  1.00  0.00    -0.356 OA
HETATM   13  C   UNL     1      40.760  -9.631  -3.746  1.00  0.00     0.210 C 
ENDBRANCH   9  12
ENDBRANCH   3   6
ENDBRANCH   1   2
BRANCH   1  14
HETATM   14  N   UNL     1      42.657 -14.998   1.342  1.00  0.00    -0.284 NA
HETATM   15  H   UNL     1      43.425 -14.406   1.024  1.00  0.00     0.128 HD
BRANCH  14  16
HETATM   16  C   UNL     1      43.083 -15.947   2.274  1.00  0.00     0.009 A 
HETATM   17  C   UNL     1      43.113 -17.295   1.879  1.00  0.00     0.035 A 
HETATM   18  C   UNL     1      43.435 -18.331   2.774  1.00  0.00    -0.024 A 
HETATM   19  C   UNL     1      43.709 -18.016   4.120  1.00  0.00    -0.026 A 
HETATM   20  C   UNL     1      43.478 -19.673   2.360  1.00  0.00     0.012 A 
HETATM   21  C   UNL     1      43.649 -16.677   4.528  1.00  0.00     0.014 A 
HETATM   22  C   UNL     1      44.024 -19.048   5.020  1.00  0.00     0.012 A 
HETATM   23  C   UNL     1      43.326 -15.662   3.619  1.00  0.00     0.024 A 
HETATM   24  C   UNL     1      44.065 -20.377   4.593  1.00  0.00     0.001 A 
HETATM   25  C   UNL     1      43.793 -20.690   3.264  1.00  0.00     0.001 A 
ENDBRANCH  14  16
ENDBRANCH   1  14
TORSDOF 5
ENDMDL
MODEL 4
REMARK VINA RESULT:      -8.2      1.516      2.197
REMARK  5 active torsions:
REMARK  status: ('A' for Active; 'I' for Inactive)
REMARK    1  A    between atoms: O_2  and  C_3 
REMARK    2  A    between atoms: C_6  and  N_7 
REMARK       I    between atoms: N_7  and  C_8 
REMARK    3  A    between atoms: C_8  and  C_9 
REMARK    4  A    between atoms: C_9  and  N_10 
REMARK    5  A    between atoms: N_10  and  C_11 
ROOT
HETATM    1  C   UNL     1      43.182 -13.750   2.240  1.00  0.00     0.195 C 
ENDROOT
BRANCH   1   2
HETATM    2  C   UNL     1      41.939 -13.000   2.712  1.00  0.00     0.235 C 
HETATM    3  N   UNL     1      40.839 -12.823   1.923  1.00  0.00    -0.326 N 
HETATM    4  H   UNL     1      40.083 -12.413   2.460  1.00  0.00     0.169 HD
HETATM    5  O   UNL     1      41.896 -12.536   3.859  1.00  0.00    -0.272 OA
BRANCH   3   6
HETATM    6  C   UNL     1      40.559 -13.074   0.568  1.00  0.00     0.034 A 
HETATM    7  C   UNL     1      40.811 -12.199  -0.487  1.00  0.00     0.032 A 
HETATM    8  C   UNL     1      40.503 -12.556  -1.810  1.00  0.00     0.039 A 
HETATM    9  C   UNL     1      39.921 -13.790  -2.092  1.00  0.00     0.068 A 
HETATM   10  C   UNL     1      39.624 -14.649  -1.037  1.00  0.00     0.039 A 
HETATM   11  C   UNL     1      39.936 -14.294   0.279  1.00  0.00     0.032 A 
BRANCH   9  12
HETATM   12  O   UNL     1      39.583 -14.255  -3.331  1.00  0.00    -0.356 OA
HETATM   13  C   UNL     1      38.206 -14.536  -3.553  1.00  0.00     0.210 C 
ENDBRANCH   9  12
ENDBRANCH   3   6
ENDBRANCH   1   2
BRANCH   1  14
HETATM   14  N   UNL     1      42.832 -15.138   1.928  1.00  0.00    -0.284 NA
HETATM   15  H   UNL     1      43.009 -15.358   0.947  1.00  0.00     0.128 HD
BRANCH  14  16
HETATM   16  C   UNL     1      43.219 -16.179   2.775  1.00  0.00     0.009 A 
HETATM   17  C   UNL     1      43.250 -17.481   2.250  1.00  0.00     0.035 A 
HETATM   18  C   UNL     1      43.533 -18.604   3.048  1.00  0.00    -0.024 A 
HETATM   19  C   UNL     1      43.768 -18.427   4.426  1.00  0.00    -0.026 A 
HETATM   20  C   UNL     1      43.578 -19.900   2.505  1.00  0.00     0.012 A 
HETATM   21  C   UNL     1      43.708 -17.133   4.962  1.00  0.00     0.014 A 
HETATM   22  C   UNL     1      44.045 -19.546   5.229  1.00  0.00     0.012 A 
HETATM   23  C   UNL     1      43.423 -16.030   4.147  1.00  0.00     0.024 A 
HETATM   24  C   UNL     1      44.087 -20.826   4.675  1.00  0.00     0.001 A 
HETATM   25  C   UNL     1      43.854 -21.004   3.314  1.00  0.00     0.001 A 
ENDBRANCH  14  16
ENDBRANCH   1  14
TORSDOF 5
ENDMDL
MODEL 5
REMARK VINA RESULT:      -8.0      3.221      6.025
REMARK  5 active torsions:
REMARK  status: ('A' for Active; 'I' for Inactive)
REMARK    1  A    between atoms: O_2  and  C_3 
REMARK    2  A    between atoms: C_6  and  N_7 
REMARK       I    between atoms: N_7  and  C_8 
REMARK    3  A    between atoms: C_8  and  C_9 
REMARK    4  A    between atoms: C_9  and  N_10 
REMARK    5  A    between atoms: N_10  and  C_11 
ROOT
HETATM    1  C   UNL     1      42.182 -13.626   4.436  1.00  0.00     0.195 C 
ENDROOT
BRANCH   1   2
HETATM    2  C   UNL     1      42.759 -12.456   3.642  1.00  0.00     0.235 C 
HETATM    3  N   UNL     1      43.544 -11.494   4.209  1.00  0.00    -0.326 N 
HETATM    4  H   UNL     1      43.924 -10.883   3.495  1.00  0.00     0.169 HD
HETATM    5  O   UNL     1      42.533 -12.363   2.428  1.00  0.00    -0.272 OA
BRANCH   3   6
HETATM    6  C   UNL     1      43.906 -11.185   5.532  1.00  0.00     0.034 A 
HETATM    7  C   UNL     1      45.110 -11.529   6.144  1.00  0.00     0.032 A 
HETATM    8  C   UNL     1      45.376 -11.158   7.472  1.00  0.00     0.039 A 
HETATM    9  C   UNL     1      44.432 -10.451   8.212  1.00  0.00     0.068 A 
HETATM   10  C   UNL     1      43.208 -10.145   7.621  1.00  0.00     0.039 A 
HETATM   11  C   UNL     1      42.946 -10.511   6.297  1.00  0.00     0.032 A 
BRANCH   9  12
HETATM   12  O   UNL     1      44.573 -10.029   9.503  1.00  0.00    -0.356 OA
HETATM   13  C   UNL     1      43.713 -10.623  10.467  1.00  0.00     0.210 C 
ENDBRANCH   9  12
ENDBRANCH   3   6
ENDBRANCH   1   2
BRANCH   1  14
HETATM   14  N   UNL     1      43.233 -14.616   4.689  1.00  0.00    -0.284 NA
HETATM   15  H   UNL     1      43.447 -14.688   5.684  1.00  0.00     0.128 HD
BRANCH  14  16
HETATM   16  C   UNL     1      43.199 -15.867   4.070  1.00  0.00     0.009 A 
HETATM   17  C   UNL     1      43.581 -16.988   4.824  1.00  0.00     0.035 A 
HETATM   18  C   UNL     1      43.672 -18.274   4.262  1.00  0.00    -0.024 A 
HETATM   19  C   UNL     1      43.396 -18.446   2.890  1.00  0.00    -0.026 A 
HETATM   20  C   UNL     1      44.039 -19.390   5.032  1.00  0.00     0.012 A 
HETATM   21  C   UNL     1      43.044 -17.325   2.125  1.00  0.00     0.014 A 
HETATM   22  C   UNL     1      43.491 -19.727   2.321  1.00  0.00     0.012 A 
HETATM   23  C   UNL     1      42.962 -16.054   2.707  1.00  0.00     0.024 A 
HETATM   24  C   UNL     1      43.856 -20.826   3.101  1.00  0.00     0.001 A 
HETATM   25  C   UNL     1      44.129 -20.658   4.455  1.00  0.00     0.001 A 
ENDBRANCH  14  16
ENDBRANCH   1  14
TORSDOF 5
ENDMDL
MODEL 6
REMARK VINA RESULT:      -8.0      3.079      5.884
REMARK  5 active torsions:
REMARK  status: ('A' for Active; 'I' for Inactive)
REMARK    1  A    between atoms: O_2  and  C_3 
REMARK    2  A    between atoms: C_6  and  N_7 
REMARK       I    between atoms: N_7  and  C_8 
REMARK    3  A    between atoms: C_8  and  C_9 
REMARK    4  A    between atoms: C_9  and  N_10 
REMARK    5  A    between atoms: N_10  and  C_11 
ROOT
HETATM    1  C   UNL     1      41.980 -13.493   3.392  1.00  0.00     0.195 C 
ENDROOT
BRANCH   1   2
HETATM    2  C   UNL     1      42.296 -12.092   2.874  1.00  0.00     0.235 C 
HETATM    3  N   UNL     1      42.939 -11.152   3.627  1.00  0.00    -0.326 N 
HETATM    4  H   UNL     1      43.162 -10.341   3.062  1.00  0.00     0.169 HD
HETATM    5  O   UNL     1      41.980 -11.775   1.719  1.00  0.00    -0.272 OA
BRANCH   3   6
HETATM    6  C   UNL     1      43.328 -11.083   4.977  1.00  0.00     0.034 A 
HETATM    7  C   UNL     1      42.577 -10.524   6.009  1.00  0.00     0.032 A 
HETATM    8  C   UNL     1      43.056 -10.519   7.329  1.00  0.00     0.039 A 
HETATM    9  C   UNL     1      44.304 -11.059   7.631  1.00  0.00     0.068 A 
HETATM   10  C   UNL     1      45.079 -11.577   6.596  1.00  0.00     0.039 A 
HETATM   11  C   UNL     1      44.598 -11.586   5.283  1.00  0.00     0.032 A 
BRANCH   9  12
HETATM   12  O   UNL     1      44.876 -11.120   8.870  1.00  0.00    -0.356 OA
HETATM   13  C   UNL     1      45.281  -9.885   9.448  1.00  0.00     0.210 C 
ENDBRANCH   9  12
ENDBRANCH   3   6
ENDBRANCH   1   2
BRANCH   1  14
HETATM   14  N   UNL     1      42.714 -14.487   2.605  1.00  0.00    -0.284 NA
HETATM   15  H   UNL     1      43.445 -14.053   2.040  1.00  0.00     0.128 HD
BRANCH  14  16
HETATM   16  C   UNL     1      43.145 -15.681   3.187  1.00  0.00     0.009 A 
HETATM   17  C   UNL     1      43.067 -16.856   2.421  1.00  0.00     0.035 A 
HETATM   18  C   UNL     1      43.386 -18.119   2.951  1.00  0.00    -0.024 A 
HETATM   19  C   UNL     1      43.771 -18.220   4.303  1.00  0.00    -0.026 A 
HETATM   20  C   UNL     1      43.320 -19.283   2.167  1.00  0.00     0.012 A 
HETATM   21  C   UNL     1      43.820 -17.056   5.082  1.00  0.00     0.014 A 
HETATM   22  C   UNL     1      44.084 -19.480   4.839  1.00  0.00     0.012 A 
HETATM   23  C   UNL     1      43.497 -15.808   4.531  1.00  0.00     0.024 A 
HETATM   24  C   UNL     1      44.015 -20.628   4.047  1.00  0.00     0.001 A 
HETATM   25  C   UNL     1      43.634 -20.530   2.712  1.00  0.00     0.001 A 
ENDBRANCH  14  16
ENDBRANCH   1  14
TORSDOF 5
ENDMDL
MODEL 7
REMARK VINA RESULT:      -8.0      2.046      4.426
REMARK  5 active torsions:
REMARK  status: ('A' for Active; 'I' for Inactive)
REMARK    1  A    between atoms: O_2  and  C_3 
REMARK    2  A    between atoms: C_6  and  N_7 
REMARK       I    between atoms: N_7  and  C_8 
REMARK    3  A    between atoms: C_8  and  C_9 
REMARK    4  A    between atoms: C_9  and  N_10 
REMARK    5  A    between atoms: N_10  and  C_11 
ROOT
HETATM    1  C   UNL     1      41.729 -14.386   1.383  1.00  0.00     0.195 C 
ENDROOT
BRANCH   1   2
HETATM    2  C   UNL     1      40.356 -14.950   1.740  1.00  0.00     0.235 C 
HETATM    3  N   UNL     1      39.610 -14.478   2.780  1.00  0.00    -0.326 N 
HETATM    4  H   UNL     1      38.687 -14.896   2.771  1.00  0.00     0.169 HD
HETATM    5  O   UNL     1      39.869 -15.865   1.061  1.00  0.00    -0.272 OA
BRANCH   3   6
HETATM    6  C   UNL     1      39.860 -13.573   3.828  1.00  0.00     0.034 A 
HETATM    7  C   UNL     1      40.475 -13.885   5.039  1.00  0.00     0.032 A 
HETATM    8  C   UNL     1      40.687 -12.899   6.015  1.00  0.00     0.039 A 
HETATM    9  C   UNL     1      40.270 -11.588   5.799  1.00  0.00     0.068 A 
HETATM   10  C   UNL     1      39.613 -11.280   4.610  1.00  0.00     0.039 A 
HETATM   11  C   UNL     1      39.407 -12.262   3.637  1.00  0.00     0.032 A 
BRANCH   9  12
HETATM   12  O   UNL     1      40.425 -10.541   6.663  1.00  0.00    -0.356 OA
HETATM   13  C   UNL     1      39.340 -10.274   7.543  1.00  0.00     0.210 C 
ENDBRANCH   9  12
ENDBRANCH   3   6
ENDBRANCH   1   2
BRANCH   1  14
HETATM   14  N   UNL     1      42.662 -15.486   1.122  1.00  0.00    -0.284 NA
HETATM   15  H   UNL     1      43.438 -15.187   0.531  1.00  0.00     0.128 HD
BRANCH  14  16
HETATM   16  C   UNL     1      43.085 -16.323   2.157  1.00  0.00     0.009 A 
HETATM   17  C   UNL     1      43.161 -17.702   1.903  1.00  0.00     0.035 A 
HETATM   18  C   UNL     1      43.483 -18.633   2.907  1.00  0.00    -0.024 A 
HETATM   19  C   UNL     1      43.712 -18.175   4.220  1.00  0.00    -0.026 A 
HETATM   20  C   UNL     1      43.573 -20.008   2.634  1.00  0.00     0.012 A 
HETATM   21  C   UNL     1      43.607 -16.803   4.488  1.00  0.00     0.014 A 
HETATM   22  C   UNL     1      44.028 -19.101   5.228  1.00  0.00     0.012 A 
HETATM   23  C   UNL     1      43.283 -15.895   3.471  1.00  0.00     0.024 A 
HETATM   24  C   UNL     1      44.115 -20.464   4.941  1.00  0.00     0.001 A 
HETATM   25  C   UNL     1      43.888 -20.918   3.645  1.00  0.00     0.001 A 
ENDBRANCH  14  16
ENDBRANCH   1  14
TORSDOF 5
ENDMDL
MODEL 8
REMARK VINA RESULT:      -7.7      2.362      4.989
REMARK  5 active torsions:
REMARK  status: ('A' for Active; 'I' for Inactive)
REMARK    1  A    between atoms: O_2  and  C_3 
REMARK    2  A    between atoms: C_6  and  N_7 
REMARK       I    between atoms: N_7  and  C_8 
REMARK    3  A    between atoms: C_8  and  C_9 
REMARK    4  A    between atoms: C_9  and  N_10 
REMARK    5  A    between atoms: N_10  and  C_11 
ROOT
HETATM    1  C   UNL     1      39.421 -13.962   2.206  1.00  0.00     0.195 C 
ENDROOT
BRANCH   1   2
HETATM    2  C   UNL     1      40.422 -13.569   1.121  1.00  0.00     0.235 C 
HETATM    3  N   UNL     1      41.592 -12.921   1.395  1.00  0.00    -0.326 N 
HETATM    4  H   UNL     1      42.166 -12.865   0.562  1.00  0.00     0.169 HD
HETATM    5  O   UNL     1      40.192 -13.852  -0.062  1.00  0.00    -0.272 OA
BRANCH   3   6
HETATM    6  C   UNL     1      42.133 -12.331   2.551  1.00  0.00     0.034 A 
HETATM    7  C   UNL     1      41.962 -11.003   2.939  1.00  0.00     0.032 A 
HETATM    8  C   UNL     1      42.538 -10.518   4.124  1.00  0.00     0.039 A 
HETATM    9  C   UNL     1      43.309 -11.352   4.929  1.00  0.00     0.068 A 
HETATM   10  C   UNL     1      43.522 -12.668   4.523  1.00  0.00     0.039 A 
HETATM   11  C   UNL     1      42.943 -13.151   3.345  1.00  0.00     0.032 A 
BRANCH   9  12
HETATM   12  O   UNL     1      43.914 -11.004   6.103  1.00  0.00    -0.356 OA
HETATM   13  C   UNL     1      44.697 -12.006   6.740  1.00  0.00     0.210 C 
ENDBRANCH   9  12
ENDBRANCH   3   6
ENDBRANCH   1   2
BRANCH   1  14
HETATM   14  N   UNL     1      39.492 -15.406   2.442  1.00  0.00    -0.284 NA
HETATM   15  H   UNL     1      39.245 -15.936   1.606  1.00  0.00     0.128 HD
BRANCH  14  16
HETATM   16  C   UNL     1      40.582 -15.966   3.111  1.00  0.00     0.009 A 
HETATM   17  C   UNL     1      40.706 -15.727   4.489  1.00  0.00     0.035 A 
HETATM   18  C   UNL     1      41.818 -16.167   5.230  1.00  0.00    -0.024 A 
HETATM   19  C   UNL     1      42.859 -16.849   4.567  1.00  0.00    -0.026 A 
HETATM   20  C   UNL     1      41.920 -15.935   6.612  1.00  0.00     0.012 A 
HETATM   21  C   UNL     1      42.756 -17.064   3.186  1.00  0.00     0.014 A 
HETATM   22  C   UNL     1      43.975 -17.285   5.301  1.00  0.00     0.012 A 
HETATM   23  C   UNL     1      41.639 -16.614   2.470  1.00  0.00     0.024 A 
HETATM   24  C   UNL     1      44.060 -17.048   6.674  1.00  0.00     0.001 A 
HETATM   25  C   UNL     1      43.034 -16.374   7.329  1.00  0.00     0.001 A 
ENDBRANCH  14  16
ENDBRANCH   1  14
TORSDOF 5
ENDMDL
MODEL 9
REMARK VINA RESULT:      -7.6      3.275      6.109
REMARK  5 active torsions:
REMARK  status: ('A' for Active; 'I' for Inactive)
REMARK    1  A    between atoms: O_2  and  C_3 
REMARK    2  A    between atoms: C_6  and  N_7 
REMARK       I    between atoms: N_7  and  C_8 
REMARK    3  A    between atoms: C_8  and  C_9 
REMARK    4  A    between atoms: C_9  and  N_10 
REMARK    5  A    between atoms: N_10  and  C_11 
ROOT
HETATM    1  C   UNL     1      40.542 -13.044   5.208  1.00  0.00     0.195 C 
ENDROOT
BRANCH   1   2
HETATM    2  C   UNL     1      41.169 -12.036   4.248  1.00  0.00     0.235 C 
HETATM    3  N   UNL     1      42.272 -11.298   4.568  1.00  0.00    -0.326 N 
HETATM    4  H   UNL     1      42.601 -10.787   3.757  1.00  0.00     0.169 HD
HETATM    5  O   UNL     1      40.685 -11.874   3.120  1.00  0.00    -0.272 OA
BRANCH   3   6
HETATM    6  C   UNL     1      43.006 -11.103   5.752  1.00  0.00     0.034 A 
HETATM    7  C   UNL     1      42.630 -10.283   6.813  1.00  0.00     0.032 A 
HETATM    8  C   UNL     1      43.434 -10.170   7.959  1.00  0.00     0.039 A 
HETATM    9  C   UNL     1      44.637 -10.866   8.050  1.00  0.00     0.068 A 
HETATM   10  C   UNL     1      45.041 -11.652   6.973  1.00  0.00     0.039 A 
HETATM   11  C   UNL     1      44.236 -11.766   5.835  1.00  0.00     0.032 A 
BRANCH   9  12
HETATM   12  O   UNL     1      45.500 -10.846   9.108  1.00  0.00    -0.356 OA
HETATM   13  C   UNL     1      45.433  -9.713   9.966  1.00  0.00     0.210 C 
ENDBRANCH   9  12
ENDBRANCH   3   6
ENDBRANCH   1   2
BRANCH   1  14
HETATM   14  N   UNL     1      39.868 -14.097   4.445  1.00  0.00    -0.284 NA
HETATM   15  H   UNL     1      39.189 -13.710   3.789  1.00  0.00     0.128 HD
BRANCH  14  16
HETATM   16  C   UNL     1      40.596 -15.148   3.883  1.00  0.00     0.009 A 
HETATM   17  C   UNL     1      41.598 -15.749   4.662  1.00  0.00     0.035 A 
HETATM   18  C   UNL     1      42.447 -16.748   4.151  1.00  0.00    -0.024 A 
HETATM   19  C   UNL     1      42.311 -17.143   2.805  1.00  0.00    -0.026 A 
HETATM   20  C   UNL     1      43.433 -17.353   4.948  1.00  0.00     0.012 A 
HETATM   21  C   UNL     1      41.334 -16.524   2.013  1.00  0.00     0.014 A 
HETATM   22  C   UNL     1      43.161 -18.135   2.288  1.00  0.00     0.012 A 
HETATM   23  C   UNL     1      40.501 -15.531   2.544  1.00  0.00     0.024 A 
HETATM   24  C   UNL     1      44.135 -18.728   3.093  1.00  0.00     0.001 A 
HETATM   25  C   UNL     1      44.272 -18.338   4.422  1.00  0.00     0.001 A 
ENDBRANCH  14  16
ENDBRANCH   1  14
TORSDOF 5
ENDMDL
MODEL 10
REMARK VINA RESULT:      -7.5      5.396      8.207
REMARK  5 active torsions:
REMARK  status: ('A' for Active; 'I' for Inactive)
REMARK    1  A    between atoms: O_2  and  C_3 
REMARK    2  A    between atoms: C_6  and  N_7 
REMARK       I    between atoms: N_7  and  C_8 
REMARK    3  A    between atoms: C_8  and  C_9 
REMARK    4  A    between atoms: C_9  and  N_10 
REMARK    5  A    between atoms: N_10  and  C_11 
ROOT
HETATM    1  C   UNL     1      43.598 -11.605   6.917  1.00  0.00     0.195 C 
ENDROOT
BRANCH   1   2
HETATM    2  C   UNL     1      45.046 -11.165   7.119  1.00  0.00     0.235 C 
HETATM    3  N   UNL     1      45.426 -10.300   8.105  1.00  0.00    -0.326 N 
HETATM    4  H   UNL     1      46.437 -10.237   8.147  1.00  0.00     0.169 HD
HETATM    5  O   UNL     1      45.935 -11.610   6.380  1.00  0.00    -0.272 OA
BRANCH   3   6
HETATM    6  C   UNL     1      44.724  -9.504   9.028  1.00  0.00     0.034 A 
HETATM    7  C   UNL     1      44.064  -8.313   8.733  1.00  0.00     0.032 A 
HETATM    8  C   UNL     1      43.381  -7.600   9.732  1.00  0.00     0.039 A 
HETATM    9  C   UNL     1      43.364  -8.063  11.045  1.00  0.00     0.068 A 
HETATM   10  C   UNL     1      44.060  -9.229  11.355  1.00  0.00     0.039 A 
HETATM   11  C   UNL     1      44.736  -9.940  10.358  1.00  0.00     0.032 A 
BRANCH   9  12
HETATM   12  O   UNL     1      42.733  -7.468  12.100  1.00  0.00    -0.356 OA
HETATM   13  C   UNL     1      42.726  -8.186  13.328  1.00  0.00     0.210 C 
ENDBRANCH   9  12
ENDBRANCH   3   6
ENDBRANCH   1   2
BRANCH   1  14
HETATM   14  N   UNL     1      43.478 -13.042   7.175  1.00  0.00    -0.284 NA
HETATM   15  H   UNL     1      42.844 -13.233   7.951  1.00  0.00     0.128 HD
BRANCH  14  16
HETATM   16  C   UNL     1      43.301 -13.942   6.122  1.00  0.00     0.009 A 
HETATM   17  C   UNL     1      43.749 -15.262   6.298  1.00  0.00     0.035 A 
HETATM   18  C   UNL     1      43.701 -16.214   5.264  1.00  0.00    -0.024 A 
HETATM   19  C   UNL     1      43.214 -15.830   3.998  1.00  0.00    -0.026 A 
HETATM   20  C   UNL     1      44.138 -17.535   5.460  1.00  0.00     0.012 A 
HETATM   21  C   UNL     1      42.794 -14.507   3.807  1.00  0.00     0.014 A 
HETATM   22  C   UNL     1      43.170 -16.775   2.960  1.00  0.00     0.012 A 
HETATM   23  C   UNL     1      42.852 -13.576   4.852  1.00  0.00     0.024 A 
HETATM   24  C   UNL     1      43.606 -18.085   3.171  1.00  0.00     0.001 A 
HETATM   25  C   UNL     1      44.089 -18.465   4.419  1.00  0.00     0.001 A 
ENDBRANCH  14  16
ENDBRANCH   1  14
TORSDOF 5
ENDMDL
