MODEL 1
REMARK VINA RESULT:      -9.4      0.000      0.000
REMARK  3 active torsions:
REMARK  status: ('A' for Active; 'I' for Inactive)
REMARK    1  A    between atoms: C_3  and  N_4 
REMARK       I    between atoms: N_4  and  C_5 
REMARK    2  A    between atoms: C_5  and  C_6 
REMARK    3  A    between atoms: N_20  and  C_21 
ROOT
HETATM    1  N   UNL     1      43.207 -13.366   5.057  1.00  0.00    -0.305 N 
HETATM    2  C   UNL     1      42.122 -14.195   4.855  1.00  0.00     0.257 C 
HETATM    3  O   UNL     1      40.946 -13.982   5.124  1.00  0.00    -0.267 OA
HETATM    4  H   UNL     1      44.098 -13.622   4.667  1.00  0.00     0.170 HD
ENDROOT
BRANCH   2   5
HETATM    5  C   UNL     1      42.448 -15.483   4.178  1.00  0.00     0.034 A 
HETATM    6  C   UNL     1      42.998 -16.516   4.949  1.00  0.00     0.049 A 
HETATM    7  C   UNL     1      43.305 -17.736   4.349  1.00  0.00     0.063 A 
HETATM    8  C   UNL     1      43.075 -17.928   2.983  1.00  0.00     0.062 A 
HETATM    9  N   UNL     1      43.843 -18.771   5.118  1.00  0.00    -0.317 N 
HETATM   10  N   UNL     1      43.378 -19.156   2.392  1.00  0.00    -0.317 N 
HETATM   11  C   UNL     1      42.551 -16.896   2.206  1.00  0.00     0.033 A 
HETATM   12  C   UNL     1      43.903 -20.222   3.090  1.00  0.00     0.314 A 
HETATM   13  H   UNL     1      43.219 -19.315   1.406  1.00  0.00     0.169 HD
HETATM   14  O   UNL     1      44.147 -21.288   2.541  1.00  0.00    -0.262 OA
HETATM   15  C   UNL     1      44.166 -20.007   4.601  1.00  0.00     0.314 A 
HETATM   16  O   UNL     1      44.635 -20.896   5.300  1.00  0.00    -0.262 OA
HETATM   17  C   UNL     1      42.242 -15.670   2.802  1.00  0.00     0.019 A 
HETATM   18  H   UNL     1      44.025 -18.644   6.104  1.00  0.00     0.169 HD
ENDBRANCH   2   5
BRANCH   1  19
HETATM   19  C   UNL     1      43.169 -12.145   5.703  1.00  0.00     0.158 A 
HETATM   20  C   UNL     1      42.803 -10.924   5.081  1.00  0.00     0.003 A 
HETATM   21  C   UNL     1      42.370 -10.665   3.688  1.00  0.00     0.054 C 
HETATM   22  C   UNL     1      42.897  -9.987   6.090  1.00  0.00     0.129 A 
HETATM   23  N   UNL     1      43.344 -10.631   7.221  1.00  0.00    -0.241 N 
HETATM   24  N   UNL     1      43.464 -11.959   6.984  1.00  0.00    -0.149 NA
BRANCH  23  25
HETATM   25  C   UNL     1      43.608 -10.118   8.526  1.00  0.00     0.079 A 
HETATM   26  C   UNL     1      42.652  -9.519   9.364  1.00  0.00     0.062 A 
HETATM   27 CL   UNL     1      41.033  -9.111   8.910  1.00  0.00    -0.082 Cl
HETATM   28  C   UNL     1      43.020  -9.101  10.654  1.00  0.00     0.026 A 
HETATM   29  C   UNL     1      44.326  -9.254  11.117  1.00  0.00     0.002 A 
HETATM   30  C   UNL     1      45.286  -9.812  10.285  1.00  0.00     0.002 A 
HETATM   31  C   UNL     1      44.934 -10.233   9.001  1.00  0.00     0.033 A 
ENDBRANCH  23  25
ENDBRANCH   1  19
TORSDOF 3
ENDMDL
MODEL 2
REMARK VINA RESULT:      -9.2      1.736      2.030
REMARK  3 active torsions:
REMARK  status: ('A' for Active; 'I' for Inactive)
REMARK    1  A    between atoms: C_3  and  N_4 
REMARK       I    between atoms: N_4  and  C_5 
REMARK    2  A    between atoms: C_5  and  C_6 
REMARK    3  A    between atoms: N_20  and  C_21 
ROOT
HETATM    1  N   UNL     1      42.397 -13.690   5.174  1.00  0.00    -0.305 N 
HETATM    2  C   UNL     1      42.865 -13.841   3.884  1.00  0.00     0.257 C 
HETATM    3  O   UNL     1      43.177 -12.967   3.084  1.00  0.00    -0.267 OA
HETATM    4  H   UNL     1      42.305 -14.502   5.759  1.00  0.00     0.170 HD
ENDROOT
BRANCH   2   5
HETATM    5  C   UNL     1      43.049 -15.258   3.458  1.00  0.00     0.034 A 
HETATM    6  C   UNL     1      43.386 -16.206   4.433  1.00  0.00     0.049 A 
HETATM    7  C   UNL     1      43.555 -17.540   4.069  1.00  0.00     0.063 A 
HETATM    8  C   UNL     1      43.400 -17.933   2.736  1.00  0.00     0.062 A 
HETATM    9  N   UNL     1      43.879 -18.489   5.042  1.00  0.00    -0.317 N 
HETATM   10  N   UNL     1      43.563 -19.273   2.381  1.00  0.00    -0.317 N 
HETATM   11  C   UNL     1      43.090 -16.991   1.756  1.00  0.00     0.033 A 
HETATM   12  C   UNL     1      43.875 -20.263   3.288  1.00  0.00     0.314 A 
HETATM   13  H   UNL     1      43.455 -19.578   1.423  1.00  0.00     0.169 HD
HETATM   14  O   UNL     1      44.001 -21.430   2.943  1.00  0.00    -0.262 OA
HETATM   15  C   UNL     1      44.056 -19.827   4.764  1.00  0.00     0.314 A 
HETATM   16  O   UNL     1      44.338 -20.636   5.638  1.00  0.00    -0.262 OA
HETATM   17  C   UNL     1      42.919 -15.650   2.115  1.00  0.00     0.019 A 
HETATM   18  H   UNL     1      44.005 -18.219   6.008  1.00  0.00     0.169 HD
ENDBRANCH   2   5
BRANCH   1  19
HETATM   19  C   UNL     1      42.103 -12.483   5.780  1.00  0.00     0.158 A 
HETATM   20  C   UNL     1      40.814 -11.891   5.796  1.00  0.00     0.003 A 
HETATM   21  C   UNL     1      39.537 -12.390   5.236  1.00  0.00     0.054 C 
HETATM   22  C   UNL     1      40.987 -10.721   6.507  1.00  0.00     0.129 A 
HETATM   23  N   UNL     1      42.320 -10.622   6.838  1.00  0.00    -0.241 N 
HETATM   24  N   UNL     1      42.985 -11.728   6.425  1.00  0.00    -0.149 NA
BRANCH  23  25
HETATM   25  C   UNL     1      43.014  -9.608   7.563  1.00  0.00     0.079 A 
HETATM   26  C   UNL     1      44.355  -9.688   7.973  1.00  0.00     0.062 A 
HETATM   27 CL   UNL     1      45.360 -11.092   7.857  1.00  0.00    -0.082 Cl
HETATM   28  C   UNL     1      44.948  -8.599   8.635  1.00  0.00     0.026 A 
HETATM   29  C   UNL     1      44.223  -7.441   8.910  1.00  0.00     0.002 A 
HETATM   30  C   UNL     1      42.887  -7.365   8.540  1.00  0.00     0.002 A 
HETATM   31  C   UNL     1      42.286  -8.439   7.881  1.00  0.00     0.033 A 
ENDBRANCH  23  25
ENDBRANCH   1  19
TORSDOF 3
ENDMDL
MODEL 3
REMARK VINA RESULT:      -9.1      5.499      9.609
REMARK  3 active torsions:
REMARK  status: ('A' for Active; 'I' for Inactive)
REMARK    1  A    between atoms: C_3  and  N_4 
REMARK       I    between atoms: N_4  and  C_5 
REMARK    2  A    between atoms: C_5  and  C_6 
REMARK    3  A    between atoms: N_20  and  C_21 
ROOT
HETATM    1  N   UNL     1      41.580 -14.622   1.062  1.00  0.00    -0.305 N 
HETATM    2  C   UNL     1      40.371 -14.999   0.516  1.00  0.00     0.257 C 
HETATM    3  O   UNL     1      39.662 -15.948   0.828  1.00  0.00    -0.267 OA
HETATM    4  H   UNL     1      41.988 -13.743   0.790  1.00  0.00     0.170 HD
ENDROOT
BRANCH   2   5
HETATM    5  C   UNL     1      39.868 -14.091  -0.555  1.00  0.00     0.034 A 
HETATM    6  C   UNL     1      40.073 -12.713  -0.405  1.00  0.00     0.049 A 
HETATM    7  C   UNL     1      39.624 -11.837  -1.393  1.00  0.00     0.063 A 
HETATM    8  C   UNL     1      38.964 -12.328  -2.523  1.00  0.00     0.062 A 
HETATM    9  N   UNL     1      39.838 -10.464  -1.251  1.00  0.00    -0.317 N 
HETATM   10  N   UNL     1      38.525 -11.445  -3.511  1.00  0.00    -0.317 N 
HETATM   11  C   UNL     1      38.735 -13.696  -2.667  1.00  0.00     0.033 A 
HETATM   12  C   UNL     1      38.708 -10.081  -3.442  1.00  0.00     0.314 A 
HETATM   13  H   UNL     1      38.046 -11.780  -4.337  1.00  0.00     0.169 HD
HETATM   14  O   UNL     1      38.319  -9.337  -4.332  1.00  0.00    -0.262 OA
HETATM   15  C   UNL     1      39.431  -9.536  -2.186  1.00  0.00     0.314 A 
HETATM   16  O   UNL     1      39.634  -8.338  -2.035  1.00  0.00    -0.262 OA
HETATM   17  C   UNL     1      39.182 -14.579  -1.679  1.00  0.00     0.019 A 
HETATM   18  H   UNL     1      40.304 -10.093  -0.434  1.00  0.00     0.169 HD
ENDBRANCH   2   5
BRANCH   1  19
HETATM   19  C   UNL     1      42.271 -15.323   2.032  1.00  0.00     0.158 A 
HETATM   20  C   UNL     1      42.937 -14.722   3.131  1.00  0.00     0.003 A 
HETATM   21  C   UNL     1      43.031 -13.294   3.513  1.00  0.00     0.054 C 
HETATM   22  C   UNL     1      43.470 -15.786   3.829  1.00  0.00     0.129 A 
HETATM   23  N   UNL     1      43.169 -16.937   3.136  1.00  0.00    -0.241 N 
HETATM   24  N   UNL     1      42.397 -16.645   2.062  1.00  0.00    -0.149 NA
BRANCH  23  25
HETATM   25  C   UNL     1      43.489 -18.296   3.429  1.00  0.00     0.079 A 
HETATM   26  C   UNL     1      43.802 -18.791   4.706  1.00  0.00     0.062 A 
HETATM   27 CL   UNL     1      44.054 -17.831   6.123  1.00  0.00    -0.082 Cl
HETATM   28  C   UNL     1      44.046 -20.165   4.880  1.00  0.00     0.026 A 
HETATM   29  C   UNL     1      44.000 -21.048   3.803  1.00  0.00     0.002 A 
HETATM   30  C   UNL     1      43.726 -20.564   2.532  1.00  0.00     0.002 A 
HETATM   31  C   UNL     1      43.480 -19.202   2.344  1.00  0.00     0.033 A 
ENDBRANCH  23  25
ENDBRANCH   1  19
TORSDOF 3
ENDMDL
MODEL 4
REMARK VINA RESULT:      -9.0      3.826      9.636
REMARK  3 active torsions:
REMARK  status: ('A' for Active; 'I' for Inactive)
REMARK    1  A    between atoms: C_3  and  N_4 
REMARK       I    between atoms: N_4  and  C_5 
REMARK    2  A    between atoms: C_5  and  C_6 
REMARK    3  A    between atoms: N_20  and  C_21 
ROOT
HETATM    1  N   UNL     1      43.374 -12.333   6.897  1.00  0.00    -0.305 N 
HETATM    2  C   UNL     1      44.508 -11.612   7.212  1.00  0.00     0.257 C 
HETATM    3  O   UNL     1      45.547 -11.516   6.571  1.00  0.00    -0.267 OA
HETATM    4  H   UNL     1      42.547 -12.215   7.458  1.00  0.00     0.170 HD
ENDROOT
BRANCH   2   5
HETATM    5  C   UNL     1      44.406 -10.824   8.475  1.00  0.00     0.034 A 
HETATM    6  C   UNL     1      43.169 -10.783   9.133  1.00  0.00     0.049 A 
HETATM    7  C   UNL     1      43.043 -10.064  10.320  1.00  0.00     0.063 A 
HETATM    8  C   UNL     1      44.141  -9.378  10.849  1.00  0.00     0.062 A 
HETATM    9  N   UNL     1      41.815 -10.032  10.984  1.00  0.00    -0.317 N 
HETATM   10  N   UNL     1      44.008  -8.667  12.043  1.00  0.00    -0.317 N 
HETATM   11  C   UNL     1      45.367  -9.394  10.186  1.00  0.00     0.033 A 
HETATM   12  C   UNL     1      42.830  -8.598  12.755  1.00  0.00     0.314 A 
HETATM   13  H   UNL     1      44.790  -8.164  12.442  1.00  0.00     0.169 HD
HETATM   14  O   UNL     1      42.753  -7.973  13.804  1.00  0.00    -0.262 OA
HETATM   15  C   UNL     1      41.612  -9.350  12.165  1.00  0.00     0.314 A 
HETATM   16  O   UNL     1      40.524  -9.341  12.725  1.00  0.00    -0.262 OA
HETATM   17  C   UNL     1      45.500 -10.113   8.994  1.00  0.00     0.019 A 
HETATM   18  H   UNL     1      41.009 -10.514  10.609  1.00  0.00     0.169 HD
ENDBRANCH   2   5
BRANCH   1  19
HETATM   19  C   UNL     1      43.240 -13.174   5.809  1.00  0.00     0.158 A 
HETATM   20  C   UNL     1      42.778 -12.760   4.533  1.00  0.00     0.003 A 
HETATM   21  C   UNL     1      42.378 -11.413   4.063  1.00  0.00     0.054 C 
HETATM   22  C   UNL     1      42.816 -13.909   3.769  1.00  0.00     0.129 A 
HETATM   23  N   UNL     1      43.230 -14.941   4.581  1.00  0.00    -0.241 N 
HETATM   24  N   UNL     1      43.529 -14.470   5.816  1.00  0.00    -0.149 NA
BRANCH  23  25
HETATM   25  C   UNL     1      43.430 -16.322   4.283  1.00  0.00     0.079 A 
HETATM   26  C   UNL     1      43.408 -16.877   2.993  1.00  0.00     0.062 A 
HETATM   27 CL   UNL     1      42.944 -16.045   1.548  1.00  0.00    -0.082 Cl
HETATM   28  C   UNL     1      43.676 -18.245   2.818  1.00  0.00     0.026 A 
HETATM   29  C   UNL     1      43.947 -19.072   3.907  1.00  0.00     0.002 A 
HETATM   30  C   UNL     1      43.937 -18.541   5.189  1.00  0.00     0.002 A 
HETATM   31  C   UNL     1      43.674 -17.182   5.377  1.00  0.00     0.033 A 
ENDBRANCH  23  25
ENDBRANCH   1  19
TORSDOF 3
ENDMDL
MODEL 5
REMARK VINA RESULT:      -8.7      5.623      9.784
REMARK  3 active torsions:
REMARK  status: ('A' for Active; 'I' for Inactive)
REMARK    1  A    between atoms: C_3  and  N_4 
REMARK       I    between atoms: N_4  and  C_5 
REMARK    2  A    between atoms: C_5  and  C_6 
REMARK    3  A    between atoms: N_20  and  C_21 
ROOT
HETATM    1  N   UNL     1      41.469 -13.908   0.906  1.00  0.00    -0.305 N 
HETATM    2  C   UNL     1      40.558 -14.055  -0.121  1.00  0.00     0.257 C 
HETATM    3  O   UNL     1      39.737 -14.949  -0.283  1.00  0.00    -0.267 OA
HETATM    4  H   UNL     1      41.994 -13.052   0.975  1.00  0.00     0.170 HD
ENDROOT
BRANCH   2   5
HETATM    5  C   UNL     1      40.568 -12.945  -1.117  1.00  0.00     0.034 A 
HETATM    6  C   UNL     1      41.229 -11.757  -0.780  1.00  0.00     0.049 A 
HETATM    7  C   UNL     1      41.266 -10.704  -1.692  1.00  0.00     0.063 A 
HETATM    8  C   UNL     1      40.637 -10.826  -2.936  1.00  0.00     0.062 A 
HETATM    9  N   UNL     1      41.935  -9.523  -1.362  1.00  0.00    -0.317 N 
HETATM   10  N   UNL     1      40.685  -9.770  -3.847  1.00  0.00    -0.317 N 
HETATM   11  C   UNL     1      39.956 -11.996  -3.268  1.00  0.00     0.033 A 
HETATM   12  C   UNL     1      41.333  -8.581  -3.592  1.00  0.00     0.314 A 
HETATM   13  H   UNL     1      40.238  -9.839  -4.751  1.00  0.00     0.169 HD
HETATM   14  O   UNL     1      41.363  -7.679  -4.419  1.00  0.00    -0.262 OA
HETATM   15  C   UNL     1      42.021  -8.441  -2.212  1.00  0.00     0.314 A 
HETATM   16  O   UNL     1      42.616  -7.419  -1.896  1.00  0.00    -0.262 OA
HETATM   17  C   UNL     1      39.916 -13.056  -2.356  1.00  0.00     0.019 A 
HETATM   18  H   UNL     1      42.385  -9.415  -0.464  1.00  0.00     0.169 HD
ENDBRANCH   2   5
BRANCH   1  19
HETATM   19  C   UNL     1      41.682 -14.821   1.920  1.00  0.00     0.158 A 
HETATM   20  C   UNL     1      41.249 -14.644   3.259  1.00  0.00     0.003 A 
HETATM   21  C   UNL     1      40.485 -13.528   3.866  1.00  0.00     0.054 C 
HETATM   22  C   UNL     1      41.665 -15.790   3.906  1.00  0.00     0.129 A 
HETATM   23  N   UNL     1      42.348 -16.563   2.994  1.00  0.00    -0.241 N 
HETATM   24  N   UNL     1      42.313 -15.980   1.771  1.00  0.00    -0.149 NA
BRANCH  23  25
HETATM   25  C   UNL     1      42.977 -17.833   3.155  1.00  0.00     0.079 A 
HETATM   26  C   UNL     1      43.772 -18.203   4.253  1.00  0.00     0.062 A 
HETATM   27 CL   UNL     1      44.302 -17.143   5.512  1.00  0.00    -0.082 Cl
HETATM   28  C   UNL     1      44.294 -19.506   4.327  1.00  0.00     0.026 A 
HETATM   29  C   UNL     1      44.051 -20.439   3.321  1.00  0.00     0.002 A 
HETATM   30  C   UNL     1      43.297 -20.073   2.215  1.00  0.00     0.002 A 
HETATM   31  C   UNL     1      42.771 -18.782   2.129  1.00  0.00     0.033 A 
ENDBRANCH  23  25
ENDBRANCH   1  19
TORSDOF 3
ENDMDL
MODEL 6
REMARK VINA RESULT:      -8.7      4.682      6.282
REMARK  3 active torsions:
REMARK  status: ('A' for Active; 'I' for Inactive)
REMARK    1  A    between atoms: C_3  and  N_4 
REMARK       I    between atoms: N_4  and  C_5 
REMARK    2  A    between atoms: C_5  and  C_6 
REMARK    3  A    between atoms: N_20  and  C_21 
ROOT
HETATM    1  N   UNL     1      41.673 -14.230   1.716  1.00  0.00    -0.305 N 
HETATM    2  C   UNL     1      42.811 -14.175   2.495  1.00  0.00     0.257 C 
HETATM    3  O   UNL     1      43.577 -13.232   2.652  1.00  0.00    -0.267 OA
HETATM    4  H   UNL     1      41.070 -15.032   1.786  1.00  0.00     0.170 HD
ENDROOT
BRANCH   2   5
HETATM    5  C   UNL     1      43.089 -15.420   3.268  1.00  0.00     0.034 A 
HETATM    6  C   UNL     1      43.201 -16.626   2.564  1.00  0.00     0.049 A 
HETATM    7  C   UNL     1      43.471 -17.806   3.255  1.00  0.00     0.063 A 
HETATM    8  C   UNL     1      43.620 -17.791   4.645  1.00  0.00     0.062 A 
HETATM    9  N   UNL     1      43.595 -19.008   2.553  1.00  0.00    -0.317 N 
HETATM   10  N   UNL     1      43.898 -18.976   5.328  1.00  0.00    -0.317 N 
HETATM   11  C   UNL     1      43.486 -16.598   5.354  1.00  0.00     0.033 A 
HETATM   12  C   UNL     1      44.041 -20.195   4.702  1.00  0.00     0.314 A 
HETATM   13  H   UNL     1      44.010 -18.986   6.334  1.00  0.00     0.169 HD
HETATM   14  O   UNL     1      44.295 -21.213   5.332  1.00  0.00    -0.262 OA
HETATM   15  C   UNL     1      43.867 -20.214   3.163  1.00  0.00     0.314 A 
HETATM   16  O   UNL     1      43.971 -21.251   2.521  1.00  0.00    -0.262 OA
HETATM   17  C   UNL     1      43.214 -15.412   4.667  1.00  0.00     0.019 A 
HETATM   18  H   UNL     1      43.479 -19.037   1.549  1.00  0.00     0.169 HD
ENDBRANCH   2   5
BRANCH   1  19
HETATM   19  C   UNL     1      41.231 -13.225   0.878  1.00  0.00     0.158 A 
HETATM   20  C   UNL     1      40.346 -13.425  -0.212  1.00  0.00     0.003 A 
HETATM   21  C   UNL     1      39.691 -14.668  -0.682  1.00  0.00     0.054 C 
HETATM   22  C   UNL     1      40.178 -12.165  -0.750  1.00  0.00     0.129 A 
HETATM   23  N   UNL     1      40.967 -11.293  -0.034  1.00  0.00    -0.241 N 
HETATM   24  N   UNL     1      41.573 -11.945   0.987  1.00  0.00    -0.149 NA
BRANCH  23  25
HETATM   25  C   UNL     1      41.155  -9.887  -0.187  1.00  0.00     0.079 A 
HETATM   26  C   UNL     1      40.543  -8.904   0.608  1.00  0.00     0.062 A 
HETATM   27 CL   UNL     1      39.304  -9.187   1.782  1.00  0.00    -0.082 Cl
HETATM   28  C   UNL     1      40.849  -7.548   0.398  1.00  0.00     0.026 A 
HETATM   29  C   UNL     1      41.741  -7.156  -0.599  1.00  0.00     0.002 A 
HETATM   30  C   UNL     1      42.325  -8.117  -1.412  1.00  0.00     0.002 A 
HETATM   31  C   UNL     1      42.030  -9.468  -1.214  1.00  0.00     0.033 A 
ENDBRANCH  23  25
ENDBRANCH   1  19
TORSDOF 3
ENDMDL
MODEL 7
REMARK VINA RESULT:      -8.5      4.221      6.184
REMARK  3 active torsions:
REMARK  status: ('A' for Active; 'I' for Inactive)
REMARK    1  A    between atoms: C_3  and  N_4 
REMARK       I    between atoms: N_4  and  C_5 
REMARK    2  A    between atoms: C_5  and  C_6 
REMARK    3  A    between atoms: N_20  and  C_21 
ROOT
HETATM    1  N   UNL     1      41.903 -13.220   3.806  1.00  0.00    -0.305 N 
HETATM    2  C   UNL     1      42.394 -13.605   2.574  1.00  0.00     0.257 C 
HETATM    3  O   UNL     1      43.548 -13.880   2.270  1.00  0.00    -0.267 OA
HETATM    4  H   UNL     1      40.908 -13.151   3.937  1.00  0.00     0.170 HD
ENDROOT
BRANCH   2   5
HETATM    5  C   UNL     1      41.355 -13.741   1.513  1.00  0.00     0.034 A 
HETATM    6  C   UNL     1      40.749 -12.576   1.025  1.00  0.00     0.049 A 
HETATM    7  C   UNL     1      39.782 -12.668   0.025  1.00  0.00     0.063 A 
HETATM    8  C   UNL     1      39.408 -13.916  -0.482  1.00  0.00     0.062 A 
HETATM    9  N   UNL     1      39.185 -11.506  -0.471  1.00  0.00    -0.317 N 
HETATM   10  N   UNL     1      38.444 -13.998  -1.489  1.00  0.00    -0.317 N 
HETATM   11  C   UNL     1      39.989 -15.081   0.017  1.00  0.00     0.033 A 
HETATM   12  C   UNL     1      37.821 -12.896  -2.030  1.00  0.00     0.314 A 
HETATM   13  H   UNL     1      38.161 -14.891  -1.869  1.00  0.00     0.169 HD
HETATM   14  O   UNL     1      36.987 -13.004  -2.919  1.00  0.00    -0.262 OA
HETATM   15  C   UNL     1      38.227 -11.513  -1.462  1.00  0.00     0.314 A 
HETATM   16  O   UNL     1      37.722 -10.479  -1.878  1.00  0.00    -0.262 OA
HETATM   17  C   UNL     1      40.960 -14.995   1.019  1.00  0.00     0.019 A 
HETATM   18  H   UNL     1      39.436 -10.597  -0.107  1.00  0.00     0.169 HD
ENDBRANCH   2   5
BRANCH   1  19
HETATM   19  C   UNL     1      42.670 -12.982   4.931  1.00  0.00     0.158 A 
HETATM   20  C   UNL     1      43.144 -13.995   5.803  1.00  0.00     0.003 A 
HETATM   21  C   UNL     1      42.978 -15.465   5.724  1.00  0.00     0.054 C 
HETATM   22  C   UNL     1      43.859 -13.308   6.764  1.00  0.00     0.129 A 
HETATM   23  N   UNL     1      43.757 -11.964   6.484  1.00  0.00    -0.241 N 
HETATM   24  N   UNL     1      43.064 -11.779   5.335  1.00  0.00    -0.149 NA
BRANCH  23  25
HETATM   25  C   UNL     1      44.307 -10.839   7.168  1.00  0.00     0.079 A 
HETATM   26  C   UNL     1      43.555  -9.847   7.817  1.00  0.00     0.062 A 
HETATM   27 CL   UNL     1      41.834  -9.683   7.749  1.00  0.00    -0.082 Cl
HETATM   28  C   UNL     1      44.212  -8.813   8.507  1.00  0.00     0.026 A 
HETATM   29  C   UNL     1      45.604  -8.744   8.546  1.00  0.00     0.002 A 
HETATM   30  C   UNL     1      46.356  -9.700   7.879  1.00  0.00     0.002 A 
HETATM   31  C   UNL     1      45.716 -10.733   7.190  1.00  0.00     0.033 A 
ENDBRANCH  23  25
ENDBRANCH   1  19
TORSDOF 3
ENDMDL
MODEL 8
REMARK VINA RESULT:      -8.4      4.495      7.136
REMARK  3 active torsions:
REMARK  status: ('A' for Active; 'I' for Inactive)
REMARK    1  A    between atoms: C_3  and  N_4 
REMARK       I    between atoms: N_4  and  C_5 
REMARK    2  A    between atoms: C_5  and  C_6 
REMARK    3  A    between atoms: N_20  and  C_21 
ROOT
HETATM    1  N   UNL     1      41.233 -13.766   2.472  1.00  0.00    -0.305 N 
HETATM    2  C   UNL     1      42.562 -13.883   2.824  1.00  0.00     0.257 C 
HETATM    3  O   UNL     1      43.447 -13.041   2.732  1.00  0.00    -0.267 OA
HETATM    4  H   UNL     1      40.593 -14.500   2.725  1.00  0.00     0.170 HD
ENDROOT
BRANCH   2   5
HETATM    5  C   UNL     1      42.925 -15.194   3.435  1.00  0.00     0.034 A 
HETATM    6  C   UNL     1      42.977 -16.321   2.604  1.00  0.00     0.049 A 
HETATM    7  C   UNL     1      43.323 -17.560   3.141  1.00  0.00     0.063 A 
HETATM    8  C   UNL     1      43.608 -17.682   4.505  1.00  0.00     0.062 A 
HETATM    9  N   UNL     1      43.387 -18.682   2.312  1.00  0.00    -0.317 N 
HETATM   10  N   UNL     1      43.961 -18.924   5.033  1.00  0.00    -0.317 N 
HETATM   11  C   UNL     1      43.534 -16.569   5.342  1.00  0.00     0.033 A 
HETATM   12  C   UNL     1      44.051 -20.071   4.275  1.00  0.00     0.314 A 
HETATM   13  H   UNL     1      44.171 -19.034   6.017  1.00  0.00     0.169 HD
HETATM   14  O   UNL     1      44.374 -21.143   4.770  1.00  0.00    -0.262 OA
HETATM   15  C   UNL     1      43.727 -19.938   2.766  1.00  0.00     0.314 A 
HETATM   16  O   UNL     1      43.776 -20.904   2.015  1.00  0.00    -0.262 OA
HETATM   17  C   UNL     1      43.187 -15.324   4.808  1.00  0.00     0.019 A 
HETATM   18  H   UNL     1      43.173 -18.612   1.327  1.00  0.00     0.169 HD
ENDBRANCH   2   5
BRANCH   1  19
HETATM   19  C   UNL     1      40.665 -12.671   1.849  1.00  0.00     0.158 A 
HETATM   20  C   UNL     1      40.008 -11.616   2.532  1.00  0.00     0.003 A 
HETATM   21  C   UNL     1      39.801 -11.414   3.985  1.00  0.00     0.054 C 
HETATM   22  C   UNL     1      39.616 -10.753   1.528  1.00  0.00     0.129 A 
HETATM   23  N   UNL     1      39.986 -11.312   0.326  1.00  0.00    -0.241 N 
HETATM   24  N   UNL     1      40.666 -12.464   0.537  1.00  0.00    -0.149 NA
BRANCH  23  25
HETATM   25  C   UNL     1      39.812 -10.827  -1.005  1.00  0.00     0.079 A 
HETATM   26  C   UNL     1      40.735 -10.024  -1.695  1.00  0.00     0.062 A 
HETATM   27 CL   UNL     1      42.153  -9.308  -1.011  1.00  0.00    -0.082 Cl
HETATM   28  C   UNL     1      40.477  -9.653  -3.026  1.00  0.00     0.026 A 
HETATM   29  C   UNL     1      39.310 -10.055  -3.674  1.00  0.00     0.002 A 
HETATM   30  C   UNL     1      38.376 -10.819  -2.990  1.00  0.00     0.002 A 
HETATM   31  C   UNL     1      38.619 -11.195  -1.667  1.00  0.00     0.033 A 
ENDBRANCH  23  25
ENDBRANCH   1  19
TORSDOF 3
ENDMDL
MODEL 9
REMARK VINA RESULT:      -8.3      2.443      4.247
REMARK  3 active torsions:
REMARK  status: ('A' for Active; 'I' for Inactive)
REMARK    1  A    between atoms: C_3  and  N_4 
REMARK       I    between atoms: N_4  and  C_5 
REMARK    2  A    between atoms: C_5  and  C_6 
REMARK    3  A    between atoms: N_20  and  C_21 
ROOT
HETATM    1  N   UNL     1      43.942 -11.586   8.004  1.00  0.00    -0.305 N 
HETATM    2  C   UNL     1      43.406 -11.546   6.733  1.00  0.00     0.257 C 
HETATM    3  O   UNL     1      43.081 -10.563   6.078  1.00  0.00    -0.267 OA
HETATM    4  H   UNL     1      44.280 -12.462   8.366  1.00  0.00     0.170 HD
ENDROOT
BRANCH   2   5
HETATM    5  C   UNL     1      43.260 -12.881   6.083  1.00  0.00     0.034 A 
HETATM    6  C   UNL     1      42.745 -12.932   4.781  1.00  0.00     0.049 A 
HETATM    7  C   UNL     1      42.606 -14.163   4.142  1.00  0.00     0.063 A 
HETATM    8  C   UNL     1      42.969 -15.343   4.798  1.00  0.00     0.062 A 
HETATM    9  N   UNL     1      42.104 -14.215   2.840  1.00  0.00    -0.317 N 
HETATM   10  N   UNL     1      42.835 -16.571   4.148  1.00  0.00    -0.317 N 
HETATM   11  C   UNL     1      43.459 -15.301   6.103  1.00  0.00     0.033 A 
HETATM   12  C   UNL     1      42.354 -16.697   2.863  1.00  0.00     0.314 A 
HETATM   13  H   UNL     1      43.092 -17.436   4.605  1.00  0.00     0.169 HD
HETATM   14  O   UNL     1      42.259 -17.789   2.319  1.00  0.00    -0.262 OA
HETATM   15  C   UNL     1      41.943 -15.391   2.138  1.00  0.00     0.314 A 
HETATM   16  O   UNL     1      41.501 -15.405   0.997  1.00  0.00    -0.262 OA
HETATM   17  C   UNL     1      43.600 -14.070   6.749  1.00  0.00     0.019 A 
HETATM   18  H   UNL     1      41.827 -13.372   2.356  1.00  0.00     0.169 HD
ENDBRANCH   2   5
BRANCH   1  19
HETATM   19  C   UNL     1      44.130 -10.491   8.826  1.00  0.00     0.158 A 
HETATM   20  C   UNL     1      45.254  -9.628   8.760  1.00  0.00     0.003 A 
HETATM   21  C   UNL     1      46.417  -9.657   7.843  1.00  0.00     0.054 C 
HETATM   22  C   UNL     1      45.018  -8.687   9.742  1.00  0.00     0.129 A 
HETATM   23  N   UNL     1      43.841  -9.025  10.373  1.00  0.00    -0.241 N 
HETATM   24  N   UNL     1      43.285 -10.105   9.775  1.00  0.00    -0.149 NA
BRANCH  23  25
HETATM   25  C   UNL     1      43.160  -8.383  11.451  1.00  0.00     0.079 A 
HETATM   26  C   UNL     1      42.593  -7.100  11.393  1.00  0.00     0.062 A 
HETATM   27 CL   UNL     1      42.777  -5.977  10.090  1.00  0.00    -0.082 Cl
HETATM   28  C   UNL     1      41.896  -6.595  12.505  1.00  0.00     0.026 A 
HETATM   29  C   UNL     1      41.770  -7.340  13.676  1.00  0.00     0.002 A 
HETATM   30  C   UNL     1      42.357  -8.595  13.756  1.00  0.00     0.002 A 
HETATM   31  C   UNL     1      43.051  -9.109  12.659  1.00  0.00     0.033 A 
ENDBRANCH  23  25
ENDBRANCH   1  19
TORSDOF 3
ENDMDL
MODEL 10
REMARK VINA RESULT:      -8.1      3.683      4.832
REMARK  3 active torsions:
REMARK  status: ('A' for Active; 'I' for Inactive)
REMARK    1  A    between atoms: C_3  and  N_4 
REMARK       I    between atoms: N_4  and  C_5 
REMARK    2  A    between atoms: C_5  and  C_6 
REMARK    3  A    between atoms: N_20  and  C_21 
ROOT
HETATM    1  N   UNL     1      43.411 -10.541   7.088  1.00  0.00    -0.305 N 
HETATM    2  C   UNL     1      43.547 -11.875   6.758  1.00  0.00     0.257 C 
HETATM    3  O   UNL     1      43.932 -12.795   7.469  1.00  0.00    -0.267 OA
HETATM    4  H   UNL     1      42.959  -9.920   6.438  1.00  0.00     0.170 HD
ENDROOT
BRANCH   2   5
HETATM    5  C   UNL     1      43.119 -12.213   5.370  1.00  0.00     0.034 A 
HETATM    6  C   UNL     1      42.166 -13.226   5.198  1.00  0.00     0.049 A 
HETATM    7  C   UNL     1      41.737 -13.559   3.915  1.00  0.00     0.063 A 
HETATM    8  C   UNL     1      42.261 -12.895   2.801  1.00  0.00     0.062 A 
HETATM    9  N   UNL     1      40.779 -14.561   3.742  1.00  0.00    -0.317 N 
HETATM   10  N   UNL     1      41.819 -13.229   1.520  1.00  0.00    -0.317 N 
HETATM   11  C   UNL     1      43.227 -11.903   2.964  1.00  0.00     0.033 A 
HETATM   12  C   UNL     1      40.872 -14.200   1.276  1.00  0.00     0.314 A 
HETATM   13  H   UNL     1      42.185 -12.760   0.702  1.00  0.00     0.169 HD
HETATM   14  O   UNL     1      40.502 -14.460   0.139  1.00  0.00    -0.262 OA
HETATM   15  C   UNL     1      40.299 -14.943   2.507  1.00  0.00     0.314 A 
HETATM   16  O   UNL     1      39.457 -15.823   2.387  1.00  0.00    -0.262 OA
HETATM   17  C   UNL     1      43.662 -11.565   4.249  1.00  0.00     0.019 A 
HETATM   18  H   UNL     1      40.398 -15.058   4.536  1.00  0.00     0.169 HD
ENDBRANCH   2   5
BRANCH   1  19
HETATM   19  C   UNL     1      43.781  -9.975   8.292  1.00  0.00     0.158 A 
HETATM   20  C   UNL     1      45.124  -9.748   8.689  1.00  0.00     0.003 A 
HETATM   21  C   UNL     1      46.384 -10.011   7.955  1.00  0.00     0.054 C 
HETATM   22  C   UNL     1      45.017  -9.168   9.936  1.00  0.00     0.129 A 
HETATM   23  N   UNL     1      43.680  -9.112  10.261  1.00  0.00    -0.241 N 
HETATM   24  N   UNL     1      42.931  -9.569   9.229  1.00  0.00    -0.149 NA
BRANCH  23  25
HETATM   25  C   UNL     1      43.039  -8.609  11.432  1.00  0.00     0.079 A 
HETATM   26  C   UNL     1      42.542  -7.304  11.579  1.00  0.00     0.062 A 
HETATM   27 CL   UNL     1      42.781  -6.006  10.461  1.00  0.00    -0.082 Cl
HETATM   28  C   UNL     1      41.878  -6.940  12.764  1.00  0.00     0.026 A 
HETATM   29  C   UNL     1      41.717  -7.849  13.808  1.00  0.00     0.002 A 
HETATM   30  C   UNL     1      42.234  -9.130  13.687  1.00  0.00     0.002 A 
HETATM   31  C   UNL     1      42.895  -9.506  12.516  1.00  0.00     0.033 A 
ENDBRANCH  23  25
ENDBRANCH   1  19
TORSDOF 3
ENDMDL
