MODEL 1
REMARK VINA RESULT:     -10.1      0.000      0.000
REMARK  7 active torsions:
REMARK  status: ('A' for Active; 'I' for Inactive)
REMARK    1  A    between atoms: C_4  and  C_5 
REMARK    2  A    between atoms: C_5  and  N_6 
REMARK    3  A    between atoms: C_14  and  C_15 
REMARK    4  A    between atoms: C_18  and  O_19 
REMARK    5  A    between atoms: O_19  and  C_20 
REMARK    6  A    between atoms: C_20  and  C_21 
REMARK    7  A    between atoms: C_22  and  C_23 
ROOT
HETATM    1  N   UNL     1      42.638 -15.795   2.746  1.00  0.00    -0.063 N 
HETATM    2  H   UNL     1      43.026 -15.863   3.694  1.00  0.00     0.280 HD
HETATM    3  C   UNL     1      43.052 -14.417   2.246  1.00  0.00     0.282 C 
HETATM    4  C   UNL     1      42.378 -13.361   3.054  1.00  0.00     0.018 A 
HETATM    5  C   UNL     1      41.281 -13.567   3.871  1.00  0.00    -0.023 A 
HETATM    6  C   UNL     1      40.887 -12.354   4.520  1.00  0.00     0.073 A 
HETATM    7  C   UNL     1      41.639 -11.284   4.099  1.00  0.00     0.088 A 
HETATM    8  N   UNL     1      41.426 -10.019   4.510  1.00  0.00    -0.358 N 
HETATM    9  C   UNL     1      40.602  -9.763   5.676  1.00  0.00     0.219 C 
HETATM   10  N   UNL     1      39.711 -10.858   5.957  1.00  0.00    -0.332 N 
HETATM   11  C   UNL     1      39.839 -12.137   5.500  1.00  0.00     0.256 C 
HETATM   12  O   UNL     1      39.117 -13.043   5.901  1.00  0.00    -0.267 OA
HETATM   13  S   UNL     1      42.867 -11.732   3.012  1.00  0.00    -0.074 SA
HETATM   14  C   UNL     1      40.656 -14.924   4.023  1.00  0.00     0.068 C 
HETATM   15  C   UNL     1      41.125 -15.886   2.913  1.00  0.00     0.240 C 
HETATM   16  H   UNL     1      42.128  -9.309   4.327  1.00  0.00     0.162 HD
HETATM   17  H   UNL     1      39.021 -10.729   6.682  1.00  0.00     0.165 HD
ENDROOT
BRANCH   9  18
HETATM   18  C   UNL     1      41.485  -9.397   6.854  1.00  0.00    -0.016 A 
HETATM   19  C   UNL     1      42.762  -9.976   6.972  1.00  0.00     0.014 A 
HETATM   20  C   UNL     1      43.553  -9.736   8.098  1.00  0.00     0.038 A 
HETATM   21  C   UNL     1      43.075  -8.910   9.113  1.00  0.00     0.079 A 
HETATM   22  C   UNL     1      41.819  -8.318   9.017  1.00  0.00     0.038 A 
HETATM   23  C   UNL     1      41.033  -8.556   7.887  1.00  0.00     0.014 A 
BRANCH  21  24
HETATM   24  O   UNL     1      43.872  -8.845  10.275  1.00  0.00    -0.276 OA
BRANCH  24  25
HETATM   25  C   UNL     1      43.875  -9.855  11.224  1.00  0.00     0.288 C 
HETATM   26  O   UNL     1      44.409 -10.951  11.131  1.00  0.00    -0.260 OA
BRANCH  25  27
HETATM   27  C   UNL     1      43.166  -9.422  12.448  1.00  0.00     0.085 C 
HETATM   28  C   UNL     1      43.270  -8.196  12.982  1.00  0.00     0.043 C 
BRANCH  28  29
HETATM   29  C   UNL     1      42.619  -7.875  14.204  1.00  0.00     0.075 A 
HETATM   30  O   UNL     1      42.894  -6.755  14.957  1.00  0.00    -0.323 OA
HETATM   31  C   UNL     1      42.074  -6.751  16.035  1.00  0.00     0.142 A 
HETATM   32  C   UNL     1      41.257  -7.851  16.019  1.00  0.00     0.027 A 
HETATM   33  C   UNL     1      41.605  -8.572  14.852  1.00  0.00     0.039 A 
ENDBRANCH  28  29
ENDBRANCH  25  27
ENDBRANCH  24  25
ENDBRANCH  21  24
ENDBRANCH   9  18
BRANCH   1  34
HETATM   34  C   UNL     1      43.255 -16.936   1.977  1.00  0.00     0.273 C 
BRANCH  34  35
HETATM   35  C   UNL     1      43.540 -18.183   2.767  1.00  0.00    -0.033 A 
HETATM   36  C   UNL     1      43.398 -19.447   2.167  1.00  0.00     0.009 A 
HETATM   37  C   UNL     1      43.631 -20.610   2.900  1.00  0.00     0.001 A 
HETATM   38  C   UNL     1      44.011 -20.527   4.237  1.00  0.00     0.000 A 
HETATM   39  C   UNL     1      44.168 -19.283   4.841  1.00  0.00     0.001 A 
HETATM   40  C   UNL     1      43.937 -18.115   4.110  1.00  0.00     0.009 A 
ENDBRANCH  34  35
ENDBRANCH   1  34
TORSDOF 7
ENDMDL
MODEL 2
REMARK VINA RESULT:      -9.5      3.475      9.336
REMARK  7 active torsions:
REMARK  status: ('A' for Active; 'I' for Inactive)
REMARK    1  A    between atoms: C_4  and  C_5 
REMARK    2  A    between atoms: C_5  and  N_6 
REMARK    3  A    between atoms: C_14  and  C_15 
REMARK    4  A    between atoms: C_18  and  O_19 
REMARK    5  A    between atoms: O_19  and  C_20 
REMARK    6  A    between atoms: C_20  and  C_21 
REMARK    7  A    between atoms: C_22  and  C_23 
ROOT
HETATM    1  N   UNL     1      41.539  -9.385   6.892  1.00  0.00    -0.063 N 
HETATM    2  H   UNL     1      42.427  -9.897   6.838  1.00  0.00     0.280 HD
HETATM    3  C   UNL     1      40.461 -10.462   6.902  1.00  0.00     0.282 C 
HETATM    4  C   UNL     1      40.454 -11.184   5.598  1.00  0.00     0.018 A 
HETATM    5  C   UNL     1      41.053 -10.728   4.436  1.00  0.00    -0.023 A 
HETATM    6  C   UNL     1      40.877 -11.663   3.366  1.00  0.00     0.073 A 
HETATM    7  C   UNL     1      40.088 -12.723   3.740  1.00  0.00     0.088 A 
HETATM    8  N   UNL     1      39.718 -13.707   2.898  1.00  0.00    -0.358 N 
HETATM    9  C   UNL     1      40.407 -13.877   1.633  1.00  0.00     0.219 C 
HETATM   10  N   UNL     1      41.070 -12.670   1.214  1.00  0.00    -0.332 N 
HETATM   11  C   UNL     1      41.394 -11.611   2.012  1.00  0.00     0.256 C 
HETATM   12  O   UNL     1      42.085 -10.683   1.607  1.00  0.00    -0.267 OA
HETATM   13  S   UNL     1      39.635 -12.659   5.378  1.00  0.00    -0.074 SA
HETATM   14  C   UNL     1      41.793  -9.423   4.392  1.00  0.00     0.068 C 
HETATM   15  C   UNL     1      41.465  -8.549   5.620  1.00  0.00     0.240 C 
HETATM   16  H   UNL     1      39.309 -14.558   3.272  1.00  0.00     0.162 HD
HETATM   17  H   UNL     1      41.484 -12.656   0.293  1.00  0.00     0.165 HD
ENDROOT
BRANCH   9  18
HETATM   18  C   UNL     1      41.341 -15.070   1.717  1.00  0.00    -0.016 A 
HETATM   19  C   UNL     1      40.827 -16.331   2.070  1.00  0.00     0.014 A 
HETATM   20  C   UNL     1      41.679 -17.422   2.254  1.00  0.00     0.038 A 
HETATM   21  C   UNL     1      43.053 -17.262   2.080  1.00  0.00     0.079 A 
HETATM   22  C   UNL     1      43.585 -16.027   1.722  1.00  0.00     0.038 A 
HETATM   23  C   UNL     1      42.730 -14.939   1.534  1.00  0.00     0.014 A 
BRANCH  21  24
HETATM   24  O   UNL     1      43.847 -18.373   2.432  1.00  0.00    -0.276 OA
BRANCH  24  25
HETATM   25  C   UNL     1      44.028 -18.762   3.750  1.00  0.00     0.288 C 
HETATM   26  O   UNL     1      44.204 -19.899   4.165  1.00  0.00    -0.260 OA
BRANCH  25  27
HETATM   27  C   UNL     1      44.033 -17.585   4.645  1.00  0.00     0.085 C 
HETATM   28  C   UNL     1      42.971 -17.176   5.356  1.00  0.00     0.043 C 
BRANCH  28  29
HETATM   29  C   UNL     1      43.027 -15.989   6.136  1.00  0.00     0.075 A 
HETATM   30  O   UNL     1      43.082 -15.968   7.511  1.00  0.00    -0.323 OA
HETATM   31  C   UNL     1      43.155 -14.678   7.918  1.00  0.00     0.142 A 
HETATM   32  C   UNL     1      43.144 -13.834   6.838  1.00  0.00     0.027 A 
HETATM   33  C   UNL     1      43.060 -14.669   5.699  1.00  0.00     0.039 A 
ENDBRANCH  28  29
ENDBRANCH  25  27
ENDBRANCH  24  25
ENDBRANCH  21  24
ENDBRANCH   9  18
BRANCH   1  34
HETATM   34  C   UNL     1      41.614  -8.585   8.167  1.00  0.00     0.273 C 
BRANCH  34  35
HETATM   35  C   UNL     1      42.766  -8.907   9.079  1.00  0.00    -0.033 A 
HETATM   36  C   UNL     1      43.866  -9.637   8.596  1.00  0.00     0.009 A 
HETATM   37  C   UNL     1      44.924  -9.968   9.442  1.00  0.00     0.001 A 
HETATM   38  C   UNL     1      44.900  -9.570  10.777  1.00  0.00     0.000 A 
HETATM   39  C   UNL     1      43.823  -8.836  11.266  1.00  0.00     0.001 A 
HETATM   40  C   UNL     1      42.761  -8.503  10.422  1.00  0.00     0.009 A 
ENDBRANCH  34  35
ENDBRANCH   1  34
TORSDOF 7
ENDMDL
MODEL 3
REMARK VINA RESULT:      -9.3      2.996     12.262
REMARK  7 active torsions:
REMARK  status: ('A' for Active; 'I' for Inactive)
REMARK    1  A    between atoms: C_4  and  C_5 
REMARK    2  A    between atoms: C_5  and  N_6 
REMARK    3  A    between atoms: C_14  and  C_15 
REMARK    4  A    between atoms: C_18  and  O_19 
REMARK    5  A    between atoms: O_19  and  C_20 
REMARK    6  A    between atoms: C_20  and  C_21 
REMARK    7  A    between atoms: C_22  and  C_23 
ROOT
HETATM    1  N   UNL     1      41.361  -7.133  12.784  1.00  0.00    -0.063 N 
HETATM    2  H   UNL     1      40.920  -8.059  12.813  1.00  0.00     0.280 HD
HETATM    3  C   UNL     1      41.241  -6.683  11.333  1.00  0.00     0.282 C 
HETATM    4  C   UNL     1      42.063  -7.569  10.460  1.00  0.00     0.018 A 
HETATM    5  C   UNL     1      43.060  -8.419  10.905  1.00  0.00    -0.023 A 
HETATM    6  C   UNL     1      43.646  -9.141   9.817  1.00  0.00     0.073 A 
HETATM    7  C   UNL     1      43.132  -8.742   8.607  1.00  0.00     0.088 A 
HETATM    8  N   UNL     1      43.562  -9.221   7.423  1.00  0.00    -0.358 N 
HETATM    9  C   UNL     1      44.361 -10.430   7.377  1.00  0.00     0.219 C 
HETATM   10  N   UNL     1      45.013 -10.694   8.633  1.00  0.00    -0.332 N 
HETATM   11  C   UNL     1      44.666 -10.171   9.845  1.00  0.00     0.256 C 
HETATM   12  O   UNL     1      45.182 -10.557  10.888  1.00  0.00    -0.267 OA
HETATM   13  S   UNL     1      41.896  -7.585   8.766  1.00  0.00    -0.074 SA
HETATM   14  C   UNL     1      43.407  -8.529  12.362  1.00  0.00     0.068 C 
HETATM   15  C   UNL     1      42.818  -7.356  13.171  1.00  0.00     0.240 C 
HETATM   16  H   UNL     1      43.018  -9.044   6.585  1.00  0.00     0.162 HD
HETATM   17  H   UNL     1      45.678 -11.452   8.668  1.00  0.00     0.165 HD
ENDROOT
BRANCH   9  18
HETATM   18  C   UNL     1      43.507 -11.588   6.895  1.00  0.00    -0.016 A 
HETATM   19  C   UNL     1      44.021 -12.897   6.942  1.00  0.00     0.014 A 
HETATM   20  C   UNL     1      43.297 -13.967   6.411  1.00  0.00     0.038 A 
HETATM   21  C   UNL     1      42.049 -13.737   5.834  1.00  0.00     0.079 A 
HETATM   22  C   UNL     1      41.515 -12.453   5.784  1.00  0.00     0.038 A 
HETATM   23  C   UNL     1      42.239 -11.386   6.320  1.00  0.00     0.014 A 
BRANCH  21  24
HETATM   24  O   UNL     1      41.459 -14.845   5.192  1.00  0.00    -0.276 OA
BRANCH  24  25
HETATM   25  C   UNL     1      41.783 -15.202   3.891  1.00  0.00     0.288 C 
HETATM   26  O   UNL     1      41.835 -14.466   2.917  1.00  0.00    -0.260 OA
BRANCH  25  27
HETATM   27  C   UNL     1      42.126 -16.639   3.816  1.00  0.00     0.085 C 
HETATM   28  C   UNL     1      43.280 -17.111   3.320  1.00  0.00     0.043 C 
BRANCH  28  29
HETATM   29  C   UNL     1      43.509 -18.509   3.208  1.00  0.00     0.075 A 
HETATM   30  O   UNL     1      43.930 -19.311   4.245  1.00  0.00    -0.323 OA
HETATM   31  C   UNL     1      44.017 -20.586   3.795  1.00  0.00     0.142 A 
HETATM   32  C   UNL     1      43.665 -20.650   2.471  1.00  0.00     0.027 A 
HETATM   33  C   UNL     1      43.343 -19.325   2.094  1.00  0.00     0.039 A 
ENDBRANCH  28  29
ENDBRANCH  25  27
ENDBRANCH  24  25
ENDBRANCH  21  24
ENDBRANCH   9  18
BRANCH   1  34
HETATM   34  C   UNL     1      40.576  -6.285  13.753  1.00  0.00     0.273 C 
BRANCH  34  35
HETATM   35  C   UNL     1      40.941  -6.436  15.204  1.00  0.00    -0.033 A 
HETATM   36  C   UNL     1      41.342  -5.314  15.951  1.00  0.00     0.009 A 
HETATM   37  C   UNL     1      41.712  -5.449  17.289  1.00  0.00     0.001 A 
HETATM   38  C   UNL     1      41.683  -6.701  17.898  1.00  0.00     0.000 A 
HETATM   39  C   UNL     1      41.276  -7.818  17.174  1.00  0.00     0.001 A 
HETATM   40  C   UNL     1      40.904  -7.688  15.834  1.00  0.00     0.009 A 
ENDBRANCH  34  35
ENDBRANCH   1  34
TORSDOF 7
ENDMDL
MODEL 4
REMARK VINA RESULT:      -9.2      4.811      8.371
REMARK  7 active torsions:
REMARK  status: ('A' for Active; 'I' for Inactive)
REMARK    1  A    between atoms: C_4  and  C_5 
REMARK    2  A    between atoms: C_5  and  N_6 
REMARK    3  A    between atoms: C_14  and  C_15 
REMARK    4  A    between atoms: C_18  and  O_19 
REMARK    5  A    between atoms: O_19  and  C_20 
REMARK    6  A    between atoms: C_20  and  C_21 
REMARK    7  A    between atoms: C_22  and  C_23 
ROOT
HETATM    1  N   UNL     1      43.489 -16.708   5.912  1.00  0.00    -0.063 N 
HETATM    2  H   UNL     1      43.620 -16.443   4.929  1.00  0.00     0.280 HD
HETATM    3  C   UNL     1      42.014 -16.460   6.197  1.00  0.00     0.282 C 
HETATM    4  C   UNL     1      41.720 -15.001   6.111  1.00  0.00     0.018 A 
HETATM    5  C   UNL     1      42.672 -13.997   6.140  1.00  0.00    -0.023 A 
HETATM    6  C   UNL     1      42.063 -12.706   6.020  1.00  0.00     0.073 A 
HETATM    7  C   UNL     1      40.692 -12.790   5.998  1.00  0.00     0.088 A 
HETATM    8  N   UNL     1      39.883 -11.714   5.957  1.00  0.00    -0.358 N 
HETATM    9  C   UNL     1      40.420 -10.416   5.597  1.00  0.00     0.219 C 
HETATM   10  N   UNL     1      41.841 -10.342   5.812  1.00  0.00    -0.332 N 
HETATM   11  C   UNL     1      42.691 -11.402   5.941  1.00  0.00     0.256 C 
HETATM   12  O   UNL     1      43.908 -11.255   5.978  1.00  0.00    -0.267 OA
HETATM   13  S   UNL     1      40.132 -14.396   6.023  1.00  0.00    -0.074 SA
HETATM   14  C   UNL     1      44.136 -14.304   6.259  1.00  0.00     0.068 C 
HETATM   15  C   UNL     1      44.370 -15.758   6.716  1.00  0.00     0.240 C 
HETATM   16  H   UNL     1      38.899 -11.837   5.741  1.00  0.00     0.162 HD
HETATM   17  H   UNL     1      42.289  -9.445   5.695  1.00  0.00     0.165 HD
ENDROOT
BRANCH   9  18
HETATM   18  C   UNL     1      40.014 -10.071   4.176  1.00  0.00    -0.016 A 
HETATM   19  C   UNL     1      38.694 -10.311   3.753  1.00  0.00     0.014 A 
HETATM   20  C   UNL     1      38.322 -10.099   2.424  1.00  0.00     0.038 A 
HETATM   21  C   UNL     1      39.266  -9.640   1.507  1.00  0.00     0.079 A 
HETATM   22  C   UNL     1      40.576  -9.386   1.903  1.00  0.00     0.038 A 
HETATM   23  C   UNL     1      40.944  -9.595   3.234  1.00  0.00     0.014 A 
BRANCH  21  24
HETATM   24  O   UNL     1      38.844  -9.598   0.163  1.00  0.00    -0.276 OA
BRANCH  24  25
HETATM   25  C   UNL     1      39.079 -10.644  -0.717  1.00  0.00     0.288 C 
HETATM   26  O   UNL     1      39.262 -10.565  -1.922  1.00  0.00    -0.260 OA
BRANCH  25  27
HETATM   27  C   UNL     1      39.137 -11.931   0.009  1.00  0.00     0.085 C 
HETATM   28  C   UNL     1      40.268 -12.617   0.235  1.00  0.00     0.043 C 
BRANCH  28  29
HETATM   29  C   UNL     1      40.238 -13.886   0.872  1.00  0.00     0.075 A 
HETATM   30  O   UNL     1      39.823 -15.050   0.263  1.00  0.00    -0.323 OA
HETATM   31  C   UNL     1      39.952 -16.067   1.149  1.00  0.00     0.142 A 
HETATM   32  C   UNL     1      40.442 -15.604   2.342  1.00  0.00     0.027 A 
HETATM   33  C   UNL     1      40.623 -14.211   2.169  1.00  0.00     0.039 A 
ENDBRANCH  28  29
ENDBRANCH  25  27
ENDBRANCH  24  25
ENDBRANCH  21  24
ENDBRANCH   9  18
BRANCH   1  34
HETATM   34  C   UNL     1      43.892 -18.159   5.993  1.00  0.00     0.273 C 
BRANCH  34  35
HETATM   35  C   UNL     1      43.840 -18.929   4.702  1.00  0.00    -0.033 A 
HETATM   36  C   UNL     1      43.582 -18.261   3.492  1.00  0.00     0.009 A 
HETATM   37  C   UNL     1      43.502 -18.971   2.293  1.00  0.00     0.001 A 
HETATM   38  C   UNL     1      43.681 -20.351   2.288  1.00  0.00     0.000 A 
HETATM   39  C   UNL     1      43.949 -21.024   3.477  1.00  0.00     0.001 A 
HETATM   40  C   UNL     1      44.031 -20.318   4.679  1.00  0.00     0.009 A 
ENDBRANCH  34  35
ENDBRANCH   1  34
TORSDOF 7
ENDMDL
MODEL 5
REMARK VINA RESULT:      -9.1      4.181      6.233
REMARK  7 active torsions:
REMARK  status: ('A' for Active; 'I' for Inactive)
REMARK    1  A    between atoms: C_4  and  C_5 
REMARK    2  A    between atoms: C_5  and  N_6 
REMARK    3  A    between atoms: C_14  and  C_15 
REMARK    4  A    between atoms: C_18  and  O_19 
REMARK    5  A    between atoms: O_19  and  C_20 
REMARK    6  A    between atoms: C_20  and  C_21 
REMARK    7  A    between atoms: C_22  and  C_23 
ROOT
HETATM    1  N   UNL     1      39.636 -12.954  -1.217  1.00  0.00    -0.063 N 
HETATM    2  H   UNL     1      40.641 -12.753  -1.153  1.00  0.00     0.280 HD
HETATM    3  C   UNL     1      38.984 -12.049  -0.179  1.00  0.00     0.282 C 
HETATM    4  C   UNL     1      39.410 -12.460   1.189  1.00  0.00     0.018 A 
HETATM    5  C   UNL     1      39.992 -13.674   1.508  1.00  0.00    -0.023 A 
HETATM    6  C   UNL     1      40.296 -13.749   2.905  1.00  0.00     0.073 A 
HETATM    7  C   UNL     1      39.852 -12.639   3.582  1.00  0.00     0.088 A 
HETATM    8  N   UNL     1      39.957 -12.493   4.917  1.00  0.00    -0.358 N 
HETATM    9  C   UNL     1      40.845 -13.354   5.674  1.00  0.00     0.219 C 
HETATM   10  N   UNL     1      41.128 -14.581   4.977  1.00  0.00    -0.332 N 
HETATM   11  C   UNL     1      40.963 -14.805   3.641  1.00  0.00     0.256 C 
HETATM   12  O   UNL     1      41.363 -15.831   3.102  1.00  0.00    -0.267 OA
HETATM   13  S   UNL     1      39.165 -11.472   2.553  1.00  0.00    -0.074 SA
HETATM   14  C   UNL     1      40.260 -14.717   0.461  1.00  0.00     0.068 C 
HETATM   15  C   UNL     1      39.484 -14.422  -0.838  1.00  0.00     0.240 C 
HETATM   16  H   UNL     1      39.799 -11.580   5.334  1.00  0.00     0.162 HD
HETATM   17  H   UNL     1      41.648 -15.293   5.470  1.00  0.00     0.165 HD
ENDROOT
BRANCH   9  18
HETATM   18  C   UNL     1      42.095 -12.586   6.060  1.00  0.00    -0.016 A 
HETATM   19  C   UNL     1      43.273 -13.289   6.372  1.00  0.00     0.014 A 
HETATM   20  C   UNL     1      44.407 -12.613   6.827  1.00  0.00     0.038 A 
HETATM   21  C   UNL     1      44.374 -11.227   6.970  1.00  0.00     0.079 A 
HETATM   22  C   UNL     1      43.224 -10.508   6.660  1.00  0.00     0.038 A 
HETATM   23  C   UNL     1      42.093 -11.186   6.199  1.00  0.00     0.014 A 
BRANCH  21  24
HETATM   24  O   UNL     1      45.507 -10.647   7.577  1.00  0.00    -0.276 OA
BRANCH  24  25
HETATM   25  C   UNL     1      45.433  -9.466   8.299  1.00  0.00     0.288 C 
HETATM   26  O   UNL     1      45.878  -8.375   7.974  1.00  0.00    -0.260 OA
BRANCH  25  27
HETATM   27  C   UNL     1      44.673  -9.668   9.552  1.00  0.00     0.085 C 
HETATM   28  C   UNL     1      43.687  -8.860   9.972  1.00  0.00     0.043 C 
BRANCH  28  29
HETATM   29  C   UNL     1      43.053  -9.073  11.225  1.00  0.00     0.075 A 
HETATM   30  O   UNL     1      42.001  -9.939  11.424  1.00  0.00    -0.323 OA
HETATM   31  C   UNL     1      41.666  -9.913  12.737  1.00  0.00     0.142 A 
HETATM   32  C   UNL     1      42.473  -9.040  13.419  1.00  0.00     0.027 A 
HETATM   33  C   UNL     1      43.357  -8.501  12.456  1.00  0.00     0.039 A 
ENDBRANCH  28  29
ENDBRANCH  25  27
ENDBRANCH  24  25
ENDBRANCH  21  24
ENDBRANCH   9  18
BRANCH   1  34
HETATM   34  C   UNL     1      39.253 -12.628  -2.639  1.00  0.00     0.273 C 
BRANCH  34  35
HETATM   35  C   UNL     1      39.473 -11.204  -3.069  1.00  0.00    -0.033 A 
HETATM   36  C   UNL     1      40.775 -10.679  -3.132  1.00  0.00     0.009 A 
HETATM   37  C   UNL     1      40.987  -9.350  -3.502  1.00  0.00     0.001 A 
HETATM   38  C   UNL     1      39.904  -8.533  -3.815  1.00  0.00     0.000 A 
HETATM   39  C   UNL     1      38.610  -9.043  -3.769  1.00  0.00     0.001 A 
HETATM   40  C   UNL     1      38.392 -10.373  -3.401  1.00  0.00     0.009 A 
ENDBRANCH  34  35
ENDBRANCH   1  34
TORSDOF 7
ENDMDL
MODEL 6
REMARK VINA RESULT:      -9.0      2.724     11.762
REMARK  7 active torsions:
REMARK  status: ('A' for Active; 'I' for Inactive)
REMARK    1  A    between atoms: C_4  and  C_5 
REMARK    2  A    between atoms: C_5  and  N_6 
REMARK    3  A    between atoms: C_14  and  C_15 
REMARK    4  A    between atoms: C_18  and  O_19 
REMARK    5  A    between atoms: O_19  and  C_20 
REMARK    6  A    between atoms: C_20  and  C_21 
REMARK    7  A    between atoms: C_22  and  C_23 
ROOT
HETATM    1  N   UNL     1      41.428  -9.678  12.476  1.00  0.00    -0.063 N 
HETATM    2  H   UNL     1      41.244 -10.673  12.307  1.00  0.00     0.280 HD
HETATM    3  C   UNL     1      40.772  -8.950  11.309  1.00  0.00     0.282 C 
HETATM    4  C   UNL     1      41.471  -9.298  10.039  1.00  0.00     0.018 A 
HETATM    5  C   UNL     1      42.724  -9.879   9.956  1.00  0.00    -0.023 A 
HETATM    6  C   UNL     1      43.102 -10.098   8.593  1.00  0.00     0.073 A 
HETATM    7  C   UNL     1      42.167  -9.597   7.719  1.00  0.00     0.088 A 
HETATM    8  N   UNL     1      42.316  -9.618   6.381  1.00  0.00    -0.358 N 
HETATM    9  C   UNL     1      43.319 -10.471   5.775  1.00  0.00     0.219 C 
HETATM   10  N   UNL     1      44.364 -10.816   6.703  1.00  0.00    -0.332 N 
HETATM   11  C   UNL     1      44.291 -10.736   8.063  1.00  0.00     0.256 C 
HETATM   12  O   UNL     1      45.175 -11.184   8.787  1.00  0.00    -0.267 OA
HETATM   13  S   UNL     1      40.806  -8.955   8.511  1.00  0.00    -0.074 SA
HETATM   14  C   UNL     1      43.513 -10.226  11.185  1.00  0.00     0.068 C 
HETATM   15  C   UNL     1      42.944  -9.526  12.435  1.00  0.00     0.240 C 
HETATM   16  H   UNL     1      41.516  -9.421   5.786  1.00  0.00     0.162 HD
HETATM   17  H   UNL     1      45.166 -11.315   6.345  1.00  0.00     0.165 HD
ENDROOT
BRANCH   9  18
HETATM   18  C   UNL     1      42.652 -11.684   5.154  1.00  0.00    -0.016 A 
HETATM   19  C   UNL     1      43.053 -12.121   3.879  1.00  0.00     0.014 A 
HETATM   20  C   UNL     1      42.387 -13.170   3.242  1.00  0.00     0.038 A 
HETATM   21  C   UNL     1      41.315 -13.795   3.878  1.00  0.00     0.079 A 
HETATM   22  C   UNL     1      40.905 -13.387   5.143  1.00  0.00     0.038 A 
HETATM   23  C   UNL     1      41.577 -12.341   5.780  1.00  0.00     0.014 A 
BRANCH  21  24
HETATM   24  O   UNL     1      40.609 -14.737   3.103  1.00  0.00    -0.276 OA
BRANCH  24  25
HETATM   25  C   UNL     1      41.222 -15.480   2.106  1.00  0.00     0.288 C 
HETATM   26  O   UNL     1      41.350 -15.171   0.931  1.00  0.00    -0.260 OA
BRANCH  25  27
HETATM   27  C   UNL     1      41.778 -16.735   2.658  1.00  0.00     0.085 C 
HETATM   28  C   UNL     1      42.920 -17.300   2.239  1.00  0.00     0.043 C 
BRANCH  28  29
HETATM   29  C   UNL     1      43.353 -18.548   2.763  1.00  0.00     0.075 A 
HETATM   30  O   UNL     1      43.907 -18.713   4.013  1.00  0.00    -0.323 OA
HETATM   31  C   UNL     1      44.175 -20.029   4.193  1.00  0.00     0.142 A 
HETATM   32  C   UNL     1      43.814 -20.747   3.082  1.00  0.00     0.027 A 
HETATM   33  C   UNL     1      43.291 -19.803   2.167  1.00  0.00     0.039 A 
ENDBRANCH  28  29
ENDBRANCH  25  27
ENDBRANCH  24  25
ENDBRANCH  21  24
ENDBRANCH   9  18
BRANCH   1  34
HETATM   34  C   UNL     1      40.801  -9.376  13.814  1.00  0.00     0.273 C 
BRANCH  34  35
HETATM   35  C   UNL     1      40.815  -7.933  14.236  1.00  0.00    -0.033 A 
HETATM   36  C   UNL     1      39.769  -7.075  13.852  1.00  0.00     0.009 A 
HETATM   37  C   UNL     1      39.789  -5.727  14.213  1.00  0.00     0.001 A 
HETATM   38  C   UNL     1      40.848  -5.222  14.963  1.00  0.00     0.000 A 
HETATM   39  C   UNL     1      41.884  -6.064  15.361  1.00  0.00     0.001 A 
HETATM   40  C   UNL     1      41.868  -7.414  15.003  1.00  0.00     0.009 A 
ENDBRANCH  34  35
ENDBRANCH   1  34
TORSDOF 7
ENDMDL
MODEL 7
REMARK VINA RESULT:      -9.0      3.578     12.073
REMARK  7 active torsions:
REMARK  status: ('A' for Active; 'I' for Inactive)
REMARK    1  A    between atoms: C_4  and  C_5 
REMARK    2  A    between atoms: C_5  and  N_6 
REMARK    3  A    between atoms: C_14  and  C_15 
REMARK    4  A    between atoms: C_18  and  O_19 
REMARK    5  A    between atoms: O_19  and  C_20 
REMARK    6  A    between atoms: C_20  and  C_21 
REMARK    7  A    between atoms: C_22  and  C_23 
ROOT
HETATM    1  N   UNL     1      41.557  -7.361  12.949  1.00  0.00    -0.063 N 
HETATM    2  H   UNL     1      41.093  -8.276  12.914  1.00  0.00     0.280 HD
HETATM    3  C   UNL     1      41.473  -6.820  11.527  1.00  0.00     0.282 C 
HETATM    4  C   UNL     1      42.287  -7.671  10.613  1.00  0.00     0.018 A 
HETATM    5  C   UNL     1      43.254  -8.572  11.020  1.00  0.00    -0.023 A 
HETATM    6  C   UNL     1      43.840  -9.241   9.898  1.00  0.00     0.073 A 
HETATM    7  C   UNL     1      43.357  -8.755   8.707  1.00  0.00     0.088 A 
HETATM    8  N   UNL     1      43.794  -9.171   7.503  1.00  0.00    -0.358 N 
HETATM    9  C   UNL     1      44.563 -10.396   7.394  1.00  0.00     0.219 C 
HETATM   10  N   UNL     1      45.187 -10.753   8.641  1.00  0.00    -0.332 N 
HETATM   11  C   UNL     1      44.833 -10.297   9.877  1.00  0.00     0.256 C 
HETATM   12  O   UNL     1      45.322 -10.760  10.903  1.00  0.00    -0.267 OA
HETATM   13  S   UNL     1      42.147  -7.579   8.920  1.00  0.00    -0.074 SA
HETATM   14  C   UNL     1      43.574  -8.781  12.472  1.00  0.00     0.068 C 
HETATM   15  C   UNL     1      43.001  -7.645  13.343  1.00  0.00     0.240 C 
HETATM   16  H   UNL     1      43.268  -8.929   6.669  1.00  0.00     0.162 HD
HETATM   17  H   UNL     1      45.833 -11.529   8.639  1.00  0.00     0.165 HD
ENDROOT
BRANCH   9  18
HETATM   18  C   UNL     1      43.689 -11.500   6.829  1.00  0.00    -0.016 A 
HETATM   19  C   UNL     1      44.111 -12.838   6.923  1.00  0.00     0.014 A 
HETATM   20  C   UNL     1      43.376 -13.862   6.322  1.00  0.00     0.038 A 
HETATM   21  C   UNL     1      42.209 -13.557   5.625  1.00  0.00     0.079 A 
HETATM   22  C   UNL     1      41.764 -12.241   5.525  1.00  0.00     0.038 A 
HETATM   23  C   UNL     1      42.499 -11.220   6.132  1.00  0.00     0.014 A 
BRANCH  21  24
HETATM   24  O   UNL     1      41.615 -14.627   4.926  1.00  0.00    -0.276 OA
BRANCH  24  25
HETATM   25  C   UNL     1      41.907 -14.892   3.597  1.00  0.00     0.288 C 
HETATM   26  O   UNL     1      42.008 -14.079   2.689  1.00  0.00    -0.260 OA
BRANCH  25  27
HETATM   27  C   UNL     1      42.146 -16.337   3.394  1.00  0.00     0.085 C 
HETATM   28  C   UNL     1      43.314 -16.949   3.643  1.00  0.00     0.043 C 
BRANCH  28  29
HETATM   29  C   UNL     1      43.493 -18.328   3.350  1.00  0.00     0.075 A 
HETATM   30  O   UNL     1      44.011 -19.247   4.236  1.00  0.00    -0.323 OA
HETATM   31  C   UNL     1      44.013 -20.464   3.640  1.00  0.00     0.142 A 
HETATM   32  C   UNL     1      43.508 -20.374   2.368  1.00  0.00     0.027 A 
HETATM   33  C   UNL     1      43.178 -19.011   2.180  1.00  0.00     0.039 A 
ENDBRANCH  28  29
ENDBRANCH  25  27
ENDBRANCH  24  25
ENDBRANCH  21  24
ENDBRANCH   9  18
BRANCH   1  34
HETATM   34  C   UNL     1      40.777  -6.554  13.957  1.00  0.00     0.273 C 
BRANCH  34  35
HETATM   35  C   UNL     1      39.488  -5.955  13.464  1.00  0.00    -0.033 A 
HETATM   36  C   UNL     1      38.416  -6.789  13.099  1.00  0.00     0.009 A 
HETATM   37  C   UNL     1      37.228  -6.244  12.612  1.00  0.00     0.001 A 
HETATM   38  C   UNL     1      37.094  -4.863  12.488  1.00  0.00     0.000 A 
HETATM   39  C   UNL     1      38.143  -4.026  12.858  1.00  0.00     0.001 A 
HETATM   40  C   UNL     1      39.334  -4.567  13.346  1.00  0.00     0.009 A 
ENDBRANCH  34  35
ENDBRANCH   1  34
TORSDOF 7
ENDMDL
MODEL 8
REMARK VINA RESULT:      -8.9      2.170      3.351
REMARK  7 active torsions:
REMARK  status: ('A' for Active; 'I' for Inactive)
REMARK    1  A    between atoms: C_4  and  C_5 
REMARK    2  A    between atoms: C_5  and  N_6 
REMARK    3  A    between atoms: C_14  and  C_15 
REMARK    4  A    between atoms: C_18  and  O_19 
REMARK    5  A    between atoms: O_19  and  C_20 
REMARK    6  A    between atoms: C_20  and  C_21 
REMARK    7  A    between atoms: C_22  and  C_23 
ROOT
HETATM    1  N   UNL     1      41.086 -14.658   5.361  1.00  0.00    -0.063 N 
HETATM    2  H   UNL     1      40.561 -14.563   6.238  1.00  0.00     0.280 HD
HETATM    3  C   UNL     1      42.537 -14.386   5.736  1.00  0.00     0.282 C 
HETATM    4  C   UNL     1      42.691 -12.968   6.169  1.00  0.00     0.018 A 
HETATM    5  C   UNL     1      41.775 -11.960   5.924  1.00  0.00    -0.023 A 
HETATM    6  C   UNL     1      42.214 -10.718   6.485  1.00  0.00     0.073 A 
HETATM    7  C   UNL     1      43.465 -10.824   7.041  1.00  0.00     0.088 A 
HETATM    8  N   UNL     1      44.131  -9.783   7.577  1.00  0.00    -0.358 N 
HETATM    9  C   UNL     1      43.424  -8.558   7.897  1.00  0.00     0.219 C 
HETATM   10  N   UNL     1      42.203  -8.428   7.146  1.00  0.00    -0.332 N 
HETATM   11  C   UNL     1      41.534  -9.437   6.517  1.00  0.00     0.256 C 
HETATM   12  O   UNL     1      40.426  -9.268   6.019  1.00  0.00    -0.267 OA
HETATM   13  S   UNL     1      44.078 -12.410   6.982  1.00  0.00    -0.074 SA
HETATM   14  C   UNL     1      40.498 -12.221   5.179  1.00  0.00     0.068 C 
HETATM   15  C   UNL     1      40.546 -13.572   4.438  1.00  0.00     0.240 C 
HETATM   16  H   UNL     1      44.953  -9.956   8.147  1.00  0.00     0.162 HD
HETATM   17  H   UNL     1      41.697  -7.557   7.217  1.00  0.00     0.165 HD
ENDROOT
BRANCH   9  18
HETATM   18  C   UNL     1      43.212  -8.467   9.397  1.00  0.00    -0.016 A 
HETATM   19  C   UNL     1      44.135  -9.075  10.267  1.00  0.00     0.014 A 
HETATM   20  C   UNL     1      43.910  -9.095  11.645  1.00  0.00     0.038 A 
HETATM   21  C   UNL     1      42.762  -8.501  12.166  1.00  0.00     0.079 A 
HETATM   22  C   UNL     1      41.838  -7.885  11.327  1.00  0.00     0.038 A 
HETATM   23  C   UNL     1      42.069  -7.862   9.949  1.00  0.00     0.014 A 
BRANCH  21  24
HETATM   24  O   UNL     1      42.541  -8.698  13.544  1.00  0.00    -0.276 OA
BRANCH  24  25
HETATM   25  C   UNL     1      41.280  -8.952  14.060  1.00  0.00     0.288 C 
HETATM   26  O   UNL     1      40.520  -9.853  13.737  1.00  0.00    -0.260 OA
BRANCH  25  27
HETATM   27  C   UNL     1      40.955  -7.991  15.136  1.00  0.00     0.085 C 
HETATM   28  C   UNL     1      41.865  -7.451  15.961  1.00  0.00     0.043 C 
BRANCH  28  29
HETATM   29  C   UNL     1      41.469  -6.593  17.024  1.00  0.00     0.075 A 
HETATM   30  O   UNL     1      42.211  -6.381  18.165  1.00  0.00    -0.323 OA
HETATM   31  C   UNL     1      41.552  -5.490  18.945  1.00  0.00     0.142 A 
HETATM   32  C   UNL     1      40.380  -5.105  18.347  1.00  0.00     0.027 A 
HETATM   33  C   UNL     1      40.324  -5.811  17.121  1.00  0.00     0.039 A 
ENDBRANCH  28  29
ENDBRANCH  25  27
ENDBRANCH  24  25
ENDBRANCH  21  24
ENDBRANCH   9  18
BRANCH   1  34
HETATM   34  C   UNL     1      40.830 -16.068   4.891  1.00  0.00     0.273 C 
BRANCH  34  35
HETATM   35  C   UNL     1      41.984 -16.755   4.215  1.00  0.00    -0.033 A 
HETATM   36  C   UNL     1      42.096 -16.734   2.813  1.00  0.00     0.009 A 
HETATM   37  C   UNL     1      43.146 -17.394   2.176  1.00  0.00     0.001 A 
HETATM   38  C   UNL     1      44.098 -18.078   2.927  1.00  0.00     0.000 A 
HETATM   39  C   UNL     1      44.007 -18.097   4.317  1.00  0.00     0.001 A 
HETATM   40  C   UNL     1      42.957 -17.437   4.960  1.00  0.00     0.009 A 
ENDBRANCH  34  35
ENDBRANCH   1  34
TORSDOF 7
ENDMDL
MODEL 9
REMARK VINA RESULT:      -8.7      2.924     11.912
REMARK  7 active torsions:
REMARK  status: ('A' for Active; 'I' for Inactive)
REMARK    1  A    between atoms: C_4  and  C_5 
REMARK    2  A    between atoms: C_5  and  N_6 
REMARK    3  A    between atoms: C_14  and  C_15 
REMARK    4  A    between atoms: C_18  and  O_19 
REMARK    5  A    between atoms: O_19  and  C_20 
REMARK    6  A    between atoms: C_20  and  C_21 
REMARK    7  A    between atoms: C_22  and  C_23 
ROOT
HETATM    1  N   UNL     1      41.816  -8.752  13.223  1.00  0.00    -0.063 N 
HETATM    2  H   UNL     1      42.417  -9.545  12.968  1.00  0.00     0.280 HD
HETATM    3  C   UNL     1      40.479  -9.037  12.550  1.00  0.00     0.282 C 
HETATM    4  C   UNL     1      40.637  -8.987  11.068  1.00  0.00     0.018 A 
HETATM    5  C   UNL     1      41.709  -8.417  10.404  1.00  0.00    -0.023 A 
HETATM    6  C   UNL     1      41.564  -8.550   8.986  1.00  0.00     0.073 A 
HETATM    7  C   UNL     1      40.364  -9.126   8.648  1.00  0.00     0.088 A 
HETATM    8  N   UNL     1      39.957  -9.303   7.376  1.00  0.00    -0.358 N 
HETATM    9  C   UNL     1      40.911  -9.199   6.288  1.00  0.00     0.219 C 
HETATM   10  N   UNL     1      42.070  -8.431   6.659  1.00  0.00    -0.332 N 
HETATM   11  C   UNL     1      42.479  -8.156   7.932  1.00  0.00     0.256 C 
HETATM   12  O   UNL     1      43.556  -7.617   8.163  1.00  0.00    -0.267 OA
HETATM   13  S   UNL     1      39.454  -9.593  10.006  1.00  0.00    -0.074 SA
HETATM   14  C   UNL     1      42.848  -7.782  11.147  1.00  0.00     0.068 C 
HETATM   15  C   UNL     1      42.481  -7.520  12.621  1.00  0.00     0.240 C 
HETATM   16  H   UNL     1      39.165  -9.908   7.184  1.00  0.00     0.162 HD
HETATM   17  H   UNL     1      42.739  -8.210   5.936  1.00  0.00     0.165 HD
ENDROOT
BRANCH   9  18
HETATM   18  C   UNL     1      41.254 -10.585   5.776  1.00  0.00    -0.016 A 
HETATM   19  C   UNL     1      40.363 -11.650   6.000  1.00  0.00     0.014 A 
HETATM   20  C   UNL     1      40.700 -12.954   5.630  1.00  0.00     0.038 A 
HETATM   21  C   UNL     1      41.931 -13.202   5.026  1.00  0.00     0.079 A 
HETATM   22  C   UNL     1      42.827 -12.165   4.785  1.00  0.00     0.038 A 
HETATM   23  C   UNL     1      42.484 -10.862   5.152  1.00  0.00     0.014 A 
BRANCH  21  24
HETATM   24  O   UNL     1      42.250 -14.561   4.825  1.00  0.00    -0.276 OA
BRANCH  24  25
HETATM   25  C   UNL     1      43.135 -15.241   5.648  1.00  0.00     0.288 C 
HETATM   26  O   UNL     1      43.672 -14.816   6.661  1.00  0.00    -0.260 OA
BRANCH  25  27
HETATM   27  C   UNL     1      43.331 -16.626   5.171  1.00  0.00     0.085 C 
HETATM   28  C   UNL     1      43.432 -16.968   3.877  1.00  0.00     0.043 C 
BRANCH  28  29
HETATM   29  C   UNL     1      43.542 -18.331   3.488  1.00  0.00     0.075 A 
HETATM   30  O   UNL     1      44.004 -19.336   4.308  1.00  0.00    -0.323 OA
HETATM   31  C   UNL     1      43.948 -20.506   3.627  1.00  0.00     0.142 A 
HETATM   32  C   UNL     1      43.460 -20.300   2.363  1.00  0.00     0.027 A 
HETATM   33  C   UNL     1      43.202 -18.911   2.271  1.00  0.00     0.039 A 
ENDBRANCH  28  29
ENDBRANCH  25  27
ENDBRANCH  24  25
ENDBRANCH  21  24
ENDBRANCH   9  18
BRANCH   1  34
HETATM   34  C   UNL     1      41.756  -8.763  14.729  1.00  0.00     0.273 C 
BRANCH  34  35
HETATM   35  C   UNL     1      41.276  -7.493  15.377  1.00  0.00    -0.033 A 
HETATM   36  C   UNL     1      42.145  -6.742  16.189  1.00  0.00     0.009 A 
HETATM   37  C   UNL     1      41.699  -5.579  16.818  1.00  0.00     0.001 A 
HETATM   38  C   UNL     1      40.386  -5.151  16.642  1.00  0.00     0.000 A 
HETATM   39  C   UNL     1      39.519  -5.878  15.831  1.00  0.00     0.001 A 
HETATM   40  C   UNL     1      39.960  -7.043  15.199  1.00  0.00     0.009 A 
ENDBRANCH  34  35
ENDBRANCH   1  34
TORSDOF 7
ENDMDL
MODEL 10
REMARK VINA RESULT:      -8.6      3.073     11.967
REMARK  7 active torsions:
REMARK  status: ('A' for Active; 'I' for Inactive)
REMARK    1  A    between atoms: C_4  and  C_5 
REMARK    2  A    between atoms: C_5  and  N_6 
REMARK    3  A    between atoms: C_14  and  C_15 
REMARK    4  A    between atoms: C_18  and  O_19 
REMARK    5  A    between atoms: O_19  and  C_20 
REMARK    6  A    between atoms: C_20  and  C_21 
REMARK    7  A    between atoms: C_22  and  C_23 
ROOT
HETATM    1  N   UNL     1      40.800  -8.520  12.853  1.00  0.00    -0.063 N 
HETATM    2  H   UNL     1      40.602  -9.527  12.828  1.00  0.00     0.280 HD
HETATM    3  C   UNL     1      40.485  -8.019  11.450  1.00  0.00     0.282 C 
HETATM    4  C   UNL     1      41.442  -8.612  10.473  1.00  0.00     0.018 A 
HETATM    5  C   UNL     1      42.642  -9.215  10.806  1.00  0.00    -0.023 A 
HETATM    6  C   UNL     1      43.318  -9.695   9.638  1.00  0.00     0.073 A 
HETATM    7  C   UNL     1      42.649  -9.357   8.488  1.00  0.00     0.088 A 
HETATM    8  N   UNL     1      43.108  -9.635   7.252  1.00  0.00    -0.358 N 
HETATM    9  C   UNL     1      44.174 -10.602   7.075  1.00  0.00     0.219 C 
HETATM   10  N   UNL     1      44.947 -10.778   8.276  1.00  0.00    -0.332 N 
HETATM   11  C   UNL     1      44.559 -10.439   9.540  1.00  0.00     0.256 C 
HETATM   12  O   UNL     1      45.217 -10.753  10.526  1.00  0.00    -0.267 OA
HETATM   13  S   UNL     1      41.179  -8.557   8.793  1.00  0.00    -0.074 SA
HETATM   14  C   UNL     1      43.096  -9.333  12.232  1.00  0.00     0.068 C 
HETATM   15  C   UNL     1      42.289  -8.399  13.157  1.00  0.00     0.240 C 
HETATM   16  H   UNL     1      42.486  -9.543   6.455  1.00  0.00     0.162 HD
HETATM   17  H   UNL     1      45.779 -11.347   8.221  1.00  0.00     0.165 HD
ENDROOT
BRANCH   9  18
HETATM   18  C   UNL     1      43.602 -11.901   6.540  1.00  0.00    -0.016 A 
HETATM   19  C   UNL     1      42.355 -11.895   5.888  1.00  0.00     0.014 A 
HETATM   20  C   UNL     1      41.759 -13.089   5.478  1.00  0.00     0.038 A 
HETATM   21  C   UNL     1      42.407 -14.300   5.712  1.00  0.00     0.079 A 
HETATM   22  C   UNL     1      43.645 -14.332   6.347  1.00  0.00     0.038 A 
HETATM   23  C   UNL     1      44.242 -13.136   6.751  1.00  0.00     0.014 A 
BRANCH  21  24
HETATM   24  O   UNL     1      41.668 -15.460   5.402  1.00  0.00    -0.276 OA
BRANCH  24  25
HETATM   25  C   UNL     1      41.988 -16.273   4.325  1.00  0.00     0.288 C 
HETATM   26  O   UNL     1      42.695 -17.269   4.340  1.00  0.00    -0.260 OA
BRANCH  25  27
HETATM   27  C   UNL     1      41.304 -15.806   3.100  1.00  0.00     0.085 C 
HETATM   28  C   UNL     1      41.845 -14.955   2.215  1.00  0.00     0.043 C 
BRANCH  28  29
HETATM   29  C   UNL     1      41.099 -14.490   1.098  1.00  0.00     0.075 A 
HETATM   30  O   UNL     1      41.262 -13.251   0.520  1.00  0.00    -0.323 OA
HETATM   31  C   UNL     1      40.413 -13.153  -0.532  1.00  0.00     0.142 A 
HETATM   32  C   UNL     1      39.681 -14.305  -0.664  1.00  0.00     0.027 A 
HETATM   33  C   UNL     1      40.116 -15.159   0.377  1.00  0.00     0.039 A 
ENDBRANCH  28  29
ENDBRANCH  25  27
ENDBRANCH  24  25
ENDBRANCH  21  24
ENDBRANCH   9  18
BRANCH   1  34
HETATM   34  C   UNL     1      39.893  -7.961  13.920  1.00  0.00     0.273 C 
BRANCH  34  35
HETATM   35  C   UNL     1      40.565  -7.153  14.997  1.00  0.00    -0.033 A 
HETATM   36  C   UNL     1      41.020  -7.781  16.170  1.00  0.00     0.009 A 
HETATM   37  C   UNL     1      41.617  -7.036  17.187  1.00  0.00     0.001 A 
HETATM   38  C   UNL     1      41.770  -5.660  17.045  1.00  0.00     0.000 A 
HETATM   39  C   UNL     1      41.335  -5.027  15.884  1.00  0.00     0.001 A 
HETATM   40  C   UNL     1      40.737  -5.768  14.862  1.00  0.00     0.009 A 
ENDBRANCH  34  35
ENDBRANCH   1  34
TORSDOF 7
ENDMDL
