MODEL 1
REMARK VINA RESULT:      -8.7      0.000      0.000
REMARK  3 active torsions:
REMARK  status: ('A' for Active; 'I' for Inactive)
REMARK    1  A    between atoms: C_9  and  C_10 
REMARK    2  A    between atoms: C_16  and  C_17 
REMARK       I    between atoms: C_17  and  N_18 
REMARK    3  A    between atoms: N_18  and  C_19 
ROOT
HETATM    1  C   UNL     1      42.958 -15.660   8.026  1.00  0.00     0.070 C 
HETATM    2  C   UNL     1      43.015 -14.604   6.948  1.00  0.00     0.037 C 
HETATM    3  N   UNL     1      43.393 -13.333   7.376  1.00  0.00    -0.191 N 
HETATM    4  C   UNL     1      43.733 -12.345   6.521  1.00  0.00     0.735 A 
HETATM    5  N   UNL     1      43.558 -12.535   5.180  1.00  0.00    -0.092 N 
HETATM    6  N   UNL     1      44.019 -11.477   4.496  1.00  0.00     0.012 NA
HETATM    7  N   UNL     1      44.436 -10.632   5.435  1.00  0.00     0.033 NA
HETATM    8  N   UNL     1      44.264 -11.161   6.701  1.00  0.00     0.030 NA
HETATM    9  C   UNL     1      42.992 -13.739   4.577  1.00  0.00     0.199 C 
HETATM   10  C   UNL     1      42.796 -14.830   5.628  1.00  0.00     0.062 C 
HETATM   11  H   UNL     1      43.631 -13.220   8.359  1.00  0.00     0.184 HD
ENDROOT
BRANCH  10  12
HETATM   12  C   UNL     1      42.472 -16.164   5.051  1.00  0.00     0.256 C 
HETATM   13  N   UNL     1      43.580 -16.878   4.656  1.00  0.00    -0.323 N 
HETATM   14  H   UNL     1      44.487 -16.462   4.826  1.00  0.00     0.169 HD
HETATM   15  O   UNL     1      41.300 -16.518   5.026  1.00  0.00    -0.267 OA
BRANCH  13  16
HETATM   16  C   UNL     1      43.601 -18.132   4.009  1.00  0.00     0.035 A 
HETATM   17  C   UNL     1      43.265 -18.326   2.668  1.00  0.00     0.029 A 
HETATM   18  C   UNL     1      43.333 -19.601   2.095  1.00  0.00     0.002 A 
HETATM   19  C   UNL     1      43.745 -20.691   2.857  1.00  0.00     0.000 A 
HETATM   20  C   UNL     1      44.082 -20.510   4.196  1.00  0.00     0.002 A 
HETATM   21  C   UNL     1      44.005 -19.238   4.770  1.00  0.00     0.029 A 
ENDBRANCH  13  16
ENDBRANCH  10  12
BRANCH   9  22
HETATM   22  C   UNL     1      41.700 -13.409   3.850  1.00  0.00    -0.011 A 
HETATM   23  C   UNL     1      41.571 -13.539   2.468  1.00  0.00     0.125 A 
HETATM   24  N   UNL     1      40.453 -13.226   1.776  1.00  0.00    -0.272 NA
HETATM   25  C   UNL     1      39.400 -12.777   2.490  1.00  0.00     0.116 A 
HETATM   26  C   UNL     1      39.420 -12.608   3.864  1.00  0.00     0.020 A 
HETATM   27  C   UNL     1      40.589 -12.922   4.550  1.00  0.00     0.012 A 
ENDBRANCH   9  22
TORSDOF 3
ENDMDL
MODEL 2
REMARK VINA RESULT:      -8.1      1.937      4.526
REMARK  3 active torsions:
REMARK  status: ('A' for Active; 'I' for Inactive)
REMARK    1  A    between atoms: C_9  and  C_10 
REMARK    2  A    between atoms: C_16  and  C_17 
REMARK       I    between atoms: C_17  and  N_18 
REMARK    3  A    between atoms: N_18  and  C_19 
ROOT
HETATM    1  C   UNL     1      39.893 -15.360   0.573  1.00  0.00     0.070 C 
HETATM    2  C   UNL     1      39.911 -14.222   1.564  1.00  0.00     0.037 C 
HETATM    3  N   UNL     1      39.327 -13.036   1.122  1.00  0.00    -0.191 N 
HETATM    4  C   UNL     1      39.036 -12.012   1.952  1.00  0.00     0.735 A 
HETATM    5  N   UNL     1      39.462 -12.062   3.248  1.00  0.00    -0.092 N 
HETATM    6  N   UNL     1      39.015 -10.995   3.927  1.00  0.00     0.012 NA
HETATM    7  N   UNL     1      38.352 -10.281   3.022  1.00  0.00     0.033 NA
HETATM    8  N   UNL     1      38.357 -10.904   1.787  1.00  0.00     0.030 NA
HETATM    9  C   UNL     1      40.253 -13.148   3.822  1.00  0.00     0.199 C 
HETATM   10  C   UNL     1      40.380 -14.307   2.835  1.00  0.00     0.062 C 
HETATM   11  H   UNL     1      38.911 -13.035   0.193  1.00  0.00     0.184 HD
ENDROOT
BRANCH  10  12
HETATM   12  C   UNL     1      40.942 -15.546   3.438  1.00  0.00     0.256 C 
HETATM   13  N   UNL     1      42.192 -15.873   2.964  1.00  0.00    -0.323 N 
HETATM   14  H   UNL     1      42.618 -15.238   2.300  1.00  0.00     0.169 HD
HETATM   15  O   UNL     1      40.294 -16.115   4.307  1.00  0.00    -0.267 OA
BRANCH  13  16
HETATM   16  C   UNL     1      42.953 -17.018   3.281  1.00  0.00     0.035 A 
HETATM   17  C   UNL     1      43.706 -17.157   4.448  1.00  0.00     0.029 A 
HETATM   18  C   UNL     1      44.416 -18.336   4.699  1.00  0.00     0.002 A 
HETATM   19  C   UNL     1      44.374 -19.388   3.789  1.00  0.00     0.000 A 
HETATM   20  C   UNL     1      43.626 -19.261   2.620  1.00  0.00     0.002 A 
HETATM   21  C   UNL     1      42.924 -18.079   2.366  1.00  0.00     0.029 A 
ENDBRANCH  13  16
ENDBRANCH  10  12
BRANCH   9  22
HETATM   22  C   UNL     1      41.607 -12.634   4.276  1.00  0.00    -0.011 A 
HETATM   23  C   UNL     1      41.980 -12.604   5.619  1.00  0.00     0.125 A 
HETATM   24  N   UNL     1      43.160 -12.125   6.070  1.00  0.00    -0.272 NA
HETATM   25  C   UNL     1      44.027 -11.667   5.142  1.00  0.00     0.116 A 
HETATM   26  C   UNL     1      43.758 -11.647   3.785  1.00  0.00     0.020 A 
HETATM   27  C   UNL     1      42.528 -12.130   3.348  1.00  0.00     0.012 A 
ENDBRANCH   9  22
TORSDOF 3
ENDMDL
MODEL 3
REMARK VINA RESULT:      -8.0      2.103      4.246
REMARK  3 active torsions:
REMARK  status: ('A' for Active; 'I' for Inactive)
REMARK    1  A    between atoms: C_9  and  C_10 
REMARK    2  A    between atoms: C_16  and  C_17 
REMARK       I    between atoms: C_17  and  N_18 
REMARK    3  A    between atoms: N_18  and  C_19 
ROOT
HETATM    1  C   UNL     1      40.972 -13.305   0.522  1.00  0.00     0.070 C 
HETATM    2  C   UNL     1      40.953 -12.897   1.975  1.00  0.00     0.037 C 
HETATM    3  N   UNL     1      40.075 -11.863   2.295  1.00  0.00    -0.191 N 
HETATM    4  C   UNL     1      39.751 -11.547   3.567  1.00  0.00     0.735 A 
HETATM    5  N   UNL     1      40.417 -12.152   4.594  1.00  0.00    -0.092 N 
HETATM    6  N   UNL     1      39.906 -11.765   5.772  1.00  0.00     0.012 NA
HETATM    7  N   UNL     1      38.956 -10.891   5.450  1.00  0.00     0.033 NA
HETATM    8  N   UNL     1      38.849 -10.748   4.079  1.00  0.00     0.030 NA
HETATM    9  C   UNL     1      41.500 -13.119   4.430  1.00  0.00     0.199 C 
HETATM   10  C   UNL     1      41.662 -13.505   2.960  1.00  0.00     0.062 C 
HETATM   11  H   UNL     1      39.499 -11.488   1.545  1.00  0.00     0.184 HD
ENDROOT
BRANCH  10  12
HETATM   12  C   UNL     1      42.561 -14.672   2.746  1.00  0.00     0.256 C 
HETATM   13  N   UNL     1      42.073 -15.848   3.267  1.00  0.00    -0.323 N 
HETATM   14  H   UNL     1      41.158 -15.821   3.699  1.00  0.00     0.169 HD
HETATM   15  O   UNL     1      43.590 -14.502   2.105  1.00  0.00    -0.267 OA
BRANCH  13  16
HETATM   16  C   UNL     1      42.718 -17.103   3.292  1.00  0.00     0.035 A 
HETATM   17  C   UNL     1      42.647 -18.039   2.259  1.00  0.00     0.029 A 
HETATM   18  C   UNL     1      43.335 -19.254   2.352  1.00  0.00     0.002 A 
HETATM   19  C   UNL     1      44.104 -19.540   3.476  1.00  0.00     0.000 A 
HETATM   20  C   UNL     1      44.182 -18.614   4.514  1.00  0.00     0.002 A 
HETATM   21  C   UNL     1      43.488 -17.405   4.424  1.00  0.00     0.029 A 
ENDBRANCH  13  16
ENDBRANCH  10  12
BRANCH   9  22
HETATM   22  C   UNL     1      42.788 -12.577   5.022  1.00  0.00    -0.011 A 
HETATM   23  C   UNL     1      43.568 -11.627   4.364  1.00  0.00     0.125 A 
HETATM   24  N   UNL     1      44.737 -11.142   4.837  1.00  0.00    -0.272 NA
HETATM   25  C   UNL     1      45.149 -11.608   6.035  1.00  0.00     0.116 A 
HETATM   26  C   UNL     1      44.456 -12.552   6.772  1.00  0.00     0.020 A 
HETATM   27  C   UNL     1      43.263 -13.047   6.253  1.00  0.00     0.012 A 
ENDBRANCH   9  22
TORSDOF 3
ENDMDL
MODEL 4
REMARK VINA RESULT:      -7.3      2.662      5.791
REMARK  3 active torsions:
REMARK  status: ('A' for Active; 'I' for Inactive)
REMARK    1  A    between atoms: C_9  and  C_10 
REMARK    2  A    between atoms: C_16  and  C_17 
REMARK       I    between atoms: C_17  and  N_18 
REMARK    3  A    between atoms: N_18  and  C_19 
ROOT
HETATM    1  C   UNL     1      41.343 -10.056   2.658  1.00  0.00     0.070 C 
HETATM    2  C   UNL     1      41.754 -11.307   3.396  1.00  0.00     0.037 C 
HETATM    3  N   UNL     1      42.764 -11.140   4.342  1.00  0.00    -0.191 N 
HETATM    4  C   UNL     1      43.074 -12.085   5.255  1.00  0.00     0.735 A 
HETATM    5  N   UNL     1      42.491 -13.316   5.165  1.00  0.00    -0.092 N 
HETATM    6  N   UNL     1      42.867 -14.086   6.196  1.00  0.00     0.012 NA
HETATM    7  N   UNL     1      43.712 -13.326   6.886  1.00  0.00     0.033 NA
HETATM    8  N   UNL     1      43.849 -12.076   6.310  1.00  0.00     0.030 NA
HETATM    9  C   UNL     1      41.554 -13.718   4.118  1.00  0.00     0.199 C 
HETATM   10  C   UNL     1      41.168 -12.523   3.247  1.00  0.00     0.062 C 
HETATM   11  H   UNL     1      43.120 -10.198   4.485  1.00  0.00     0.184 HD
ENDROOT
BRANCH  10  12
HETATM   12  C   UNL     1      40.026 -12.795   2.332  1.00  0.00     0.256 C 
HETATM   13  N   UNL     1      40.394 -12.924   1.013  1.00  0.00    -0.323 N 
HETATM   14  H   UNL     1      41.382 -12.864   0.797  1.00  0.00     0.169 HD
HETATM   15  O   UNL     1      38.911 -12.929   2.819  1.00  0.00    -0.267 OA
BRANCH  13  16
HETATM   16  C   UNL     1      39.543 -13.109  -0.097  1.00  0.00     0.035 A 
HETATM   17  C   UNL     1      38.588 -12.180  -0.513  1.00  0.00     0.029 A 
HETATM   18  C   UNL     1      37.796 -12.429  -1.639  1.00  0.00     0.002 A 
HETATM   19  C   UNL     1      37.957 -13.607  -2.363  1.00  0.00     0.000 A 
HETATM   20  C   UNL     1      38.906 -14.543  -1.957  1.00  0.00     0.002 A 
HETATM   21  C   UNL     1      39.691 -14.297  -0.827  1.00  0.00     0.029 A 
ENDBRANCH  13  16
ENDBRANCH  10  12
BRANCH   9  22
HETATM   22  C   UNL     1      42.133 -14.857   3.298  1.00  0.00    -0.011 A 
HETATM   23  C   UNL     1      43.196 -14.673   2.415  1.00  0.00     0.125 A 
HETATM   24  N   UNL     1      43.721 -15.649   1.642  1.00  0.00    -0.272 NA
HETATM   25  C   UNL     1      43.177 -16.878   1.761  1.00  0.00     0.116 A 
HETATM   26  C   UNL     1      42.119 -17.172   2.603  1.00  0.00     0.020 A 
HETATM   27  C   UNL     1      41.586 -16.144   3.376  1.00  0.00     0.012 A 
ENDBRANCH   9  22
TORSDOF 3
ENDMDL
MODEL 5
REMARK VINA RESULT:      -7.3      2.690      5.429
REMARK  3 active torsions:
REMARK  status: ('A' for Active; 'I' for Inactive)
REMARK    1  A    between atoms: C_9  and  C_10 
REMARK    2  A    between atoms: C_16  and  C_17 
REMARK       I    between atoms: C_17  and  N_18 
REMARK    3  A    between atoms: N_18  and  C_19 
ROOT
HETATM    1  C   UNL     1      42.451 -17.766   2.305  1.00  0.00     0.070 C 
HETATM    2  C   UNL     1      42.628 -16.938   3.554  1.00  0.00     0.037 C 
HETATM    3  N   UNL     1      42.800 -17.662   4.732  1.00  0.00    -0.191 N 
HETATM    4  C   UNL     1      43.216 -17.095   5.884  1.00  0.00     0.735 A 
HETATM    5  N   UNL     1      43.330 -15.736   5.955  1.00  0.00    -0.092 N 
HETATM    6  N   UNL     1      43.823 -15.371   7.148  1.00  0.00     0.012 NA
HETATM    7  N   UNL     1      43.967 -16.516   7.810  1.00  0.00     0.033 NA
HETATM    8  N   UNL     1      43.593 -17.597   7.033  1.00  0.00     0.030 NA
HETATM    9  C   UNL     1      43.004 -14.816   4.868  1.00  0.00     0.199 C 
HETATM   10  C   UNL     1      42.699 -15.583   3.582  1.00  0.00     0.062 C 
HETATM   11  H   UNL     1      42.825 -18.677   4.660  1.00  0.00     0.184 HD
ENDROOT
BRANCH  10  12
HETATM   12  C   UNL     1      42.617 -14.715   2.375  1.00  0.00     0.256 C 
HETATM   13  N   UNL     1      41.330 -14.497   1.939  1.00  0.00    -0.323 N 
HETATM   14  H   UNL     1      40.579 -14.901   2.484  1.00  0.00     0.169 HD
HETATM   15  O   UNL     1      43.654 -14.246   1.925  1.00  0.00    -0.267 OA
BRANCH  13  16
HETATM   16  C   UNL     1      40.928 -13.787   0.788  1.00  0.00     0.035 A 
HETATM   17  C   UNL     1      41.157 -12.424   0.592  1.00  0.00     0.029 A 
HETATM   18  C   UNL     1      40.746 -11.797  -0.590  1.00  0.00     0.002 A 
HETATM   19  C   UNL     1      40.108 -12.529  -1.587  1.00  0.00     0.000 A 
HETATM   20  C   UNL     1      39.873 -13.890  -1.403  1.00  0.00     0.002 A 
HETATM   21  C   UNL     1      40.277 -14.513  -0.219  1.00  0.00     0.029 A 
ENDBRANCH  13  16
ENDBRANCH  10  12
BRANCH   9  22
HETATM   22  C   UNL     1      41.860 -13.903   5.272  1.00  0.00    -0.011 A 
HETATM   23  C   UNL     1      40.674 -14.393   5.816  1.00  0.00     0.125 A 
HETATM   24  N   UNL     1      39.618 -13.622   6.158  1.00  0.00    -0.272 NA
HETATM   25  C   UNL     1      39.748 -12.292   5.969  1.00  0.00     0.116 A 
HETATM   26  C   UNL     1      40.879 -11.700   5.434  1.00  0.00     0.020 A 
HETATM   27  C   UNL     1      41.945 -12.519   5.074  1.00  0.00     0.012 A 
ENDBRANCH   9  22
TORSDOF 3
ENDMDL
MODEL 6
REMARK VINA RESULT:      -7.2      3.604      5.782
REMARK  3 active torsions:
REMARK  status: ('A' for Active; 'I' for Inactive)
REMARK    1  A    between atoms: C_9  and  C_10 
REMARK    2  A    between atoms: C_16  and  C_17 
REMARK       I    between atoms: C_17  and  N_18 
REMARK    3  A    between atoms: N_18  and  C_19 
ROOT
HETATM    1  C   UNL     1      40.274 -11.011   3.380  1.00  0.00     0.070 C 
HETATM    2  C   UNL     1      40.446 -11.003   1.880  1.00  0.00     0.037 C 
HETATM    3  N   UNL     1      40.425  -9.744   1.282  1.00  0.00    -0.191 N 
HETATM    4  C   UNL     1      40.809  -9.536   0.005  1.00  0.00     0.735 A 
HETATM    5  N   UNL     1      41.084 -10.609  -0.792  1.00  0.00    -0.092 N 
HETATM    6  N   UNL     1      41.516 -10.199  -1.994  1.00  0.00     0.012 NA
HETATM    7  N   UNL     1      41.459  -8.871  -1.929  1.00  0.00     0.033 NA
HETATM    8  N   UNL     1      41.021  -8.445  -0.689  1.00  0.00     0.030 NA
HETATM    9  C   UNL     1      40.970 -12.005  -0.377  1.00  0.00     0.199 C 
HETATM   10  C   UNL     1      40.682 -12.103   1.121  1.00  0.00     0.062 C 
HETATM   11  H   UNL     1      40.330  -8.936   1.894  1.00  0.00     0.184 HD
ENDROOT
BRANCH  10  12
HETATM   12  C   UNL     1      40.812 -13.483   1.664  1.00  0.00     0.256 C 
HETATM   13  N   UNL     1      42.102 -13.827   1.995  1.00  0.00    -0.323 N 
HETATM   14  H   UNL     1      42.817 -13.119   1.881  1.00  0.00     0.169 HD
HETATM   15  O   UNL     1      39.793 -14.146   1.813  1.00  0.00    -0.267 OA
BRANCH  13  16
HETATM   16  C   UNL     1      42.559 -15.079   2.461  1.00  0.00     0.035 A 
HETATM   17  C   UNL     1      42.742 -16.196   1.645  1.00  0.00     0.029 A 
HETATM   18  C   UNL     1      43.221 -17.397   2.181  1.00  0.00     0.002 A 
HETATM   19  C   UNL     1      43.526 -17.488   3.536  1.00  0.00     0.000 A 
HETATM   20  C   UNL     1      43.347 -16.379   4.360  1.00  0.00     0.002 A 
HETATM   21  C   UNL     1      42.860 -15.183   3.826  1.00  0.00     0.029 A 
ENDBRANCH  13  16
ENDBRANCH  10  12
BRANCH   9  22
HETATM   22  C   UNL     1      39.918 -12.720  -1.207  1.00  0.00    -0.011 A 
HETATM   23  C   UNL     1      38.574 -12.349  -1.184  1.00  0.00     0.125 A 
HETATM   24  N   UNL     1      37.600 -12.976  -1.879  1.00  0.00    -0.272 NA
HETATM   25  C   UNL     1      37.977 -14.016  -2.653  1.00  0.00     0.116 A 
HETATM   26  C   UNL     1      39.281 -14.469  -2.748  1.00  0.00     0.020 A 
HETATM   27  C   UNL     1      40.262 -13.816  -2.008  1.00  0.00     0.012 A 
ENDBRANCH   9  22
TORSDOF 3
ENDMDL
MODEL 7
REMARK VINA RESULT:      -7.2      2.807      6.941
REMARK  3 active torsions:
REMARK  status: ('A' for Active; 'I' for Inactive)
REMARK    1  A    between atoms: C_9  and  C_10 
REMARK    2  A    between atoms: C_16  and  C_17 
REMARK       I    between atoms: C_17  and  N_18 
REMARK    3  A    between atoms: N_18  and  C_19 
ROOT
HETATM    1  C   UNL     1      40.537 -10.763   3.998  1.00  0.00     0.070 C 
HETATM    2  C   UNL     1      40.966 -12.204   3.870  1.00  0.00     0.037 C 
HETATM    3  N   UNL     1      40.031 -13.057   3.287  1.00  0.00    -0.191 N 
HETATM    4  C   UNL     1      40.338 -14.304   2.872  1.00  0.00     0.735 A 
HETATM    5  N   UNL     1      41.567 -14.821   3.166  1.00  0.00    -0.092 N 
HETATM    6  N   UNL     1      41.709 -16.033   2.610  1.00  0.00     0.012 NA
HETATM    7  N   UNL     1      40.542 -16.261   2.014  1.00  0.00     0.033 NA
HETATM    8  N   UNL     1      39.679 -15.191   2.169  1.00  0.00     0.030 NA
HETATM    9  C   UNL     1      42.598 -14.129   3.937  1.00  0.00     0.199 C 
HETATM   10  C   UNL     1      42.190 -12.682   4.210  1.00  0.00     0.062 C 
HETATM   11  H   UNL     1      39.156 -12.646   2.968  1.00  0.00     0.184 HD
ENDROOT
BRANCH  10  12
HETATM   12  C   UNL     1      43.293 -11.845   4.758  1.00  0.00     0.256 C 
HETATM   13  N   UNL     1      43.217 -11.653   6.118  1.00  0.00    -0.323 N 
HETATM   14  H   UNL     1      42.466 -12.118   6.613  1.00  0.00     0.169 HD
HETATM   15  O   UNL     1      44.165 -11.458   3.990  1.00  0.00    -0.267 OA
BRANCH  13  16
HETATM   16  C   UNL     1      44.063 -10.854   6.916  1.00  0.00     0.035 A 
HETATM   17  C   UNL     1      43.634  -9.734   7.631  1.00  0.00     0.029 A 
HETATM   18  C   UNL     1      44.533  -9.006   8.418  1.00  0.00     0.002 A 
HETATM   19  C   UNL     1      45.867  -9.395   8.502  1.00  0.00     0.000 A 
HETATM   20  C   UNL     1      46.307 -10.510   7.792  1.00  0.00     0.002 A 
HETATM   21  C   UNL     1      45.410 -11.232   6.999  1.00  0.00     0.029 A 
ENDBRANCH  13  16
ENDBRANCH  10  12
BRANCH   9  22
HETATM   22  C   UNL     1      42.900 -14.887   5.217  1.00  0.00    -0.011 A 
HETATM   23  C   UNL     1      44.083 -15.603   5.396  1.00  0.00     0.125 A 
HETATM   24  N   UNL     1      44.378 -16.319   6.504  1.00  0.00    -0.272 NA
HETATM   25  C   UNL     1      43.463 -16.313   7.495  1.00  0.00     0.116 A 
HETATM   26  C   UNL     1      42.256 -15.640   7.422  1.00  0.00     0.020 A 
HETATM   27  C   UNL     1      41.969 -14.925   6.263  1.00  0.00     0.012 A 
ENDBRANCH   9  22
TORSDOF 3
ENDMDL
MODEL 8
REMARK VINA RESULT:      -7.1      2.409      6.368
REMARK  3 active torsions:
REMARK  status: ('A' for Active; 'I' for Inactive)
REMARK    1  A    between atoms: C_9  and  C_10 
REMARK    2  A    between atoms: C_16  and  C_17 
REMARK       I    between atoms: C_17  and  N_18 
REMARK    3  A    between atoms: N_18  and  C_19 
ROOT
HETATM    1  C   UNL     1      39.103 -11.850   5.468  1.00  0.00     0.070 C 
HETATM    2  C   UNL     1      39.721 -12.264   4.155  1.00  0.00     0.037 C 
HETATM    3  N   UNL     1      38.884 -12.171   3.044  1.00  0.00    -0.191 N 
HETATM    4  C   UNL     1      39.340 -12.260   1.777  1.00  0.00     0.735 A 
HETATM    5  N   UNL     1      40.642 -12.607   1.559  1.00  0.00    -0.092 N 
HETATM    6  N   UNL     1      40.922 -12.571   0.248  1.00  0.00     0.012 NA
HETATM    7  N   UNL     1      39.769 -12.239  -0.327  1.00  0.00     0.033 NA
HETATM    8  N   UNL     1      38.775 -12.043   0.615  1.00  0.00     0.030 NA
HETATM    9  C   UNL     1      41.605 -12.927   2.611  1.00  0.00     0.199 C 
HETATM   10  C   UNL     1      41.015 -12.639   3.991  1.00  0.00     0.062 C 
HETATM   11  H   UNL     1      37.946 -11.807   3.193  1.00  0.00     0.184 HD
ENDROOT
BRANCH  10  12
HETATM   12  C   UNL     1      42.017 -12.690   5.090  1.00  0.00     0.256 C 
HETATM   13  N   UNL     1      42.729 -11.522   5.242  1.00  0.00    -0.323 N 
HETATM   14  H   UNL     1      42.486 -10.746   4.638  1.00  0.00     0.169 HD
HETATM   15  O   UNL     1      42.082 -13.705   5.771  1.00  0.00    -0.267 OA
BRANCH  13  16
HETATM   16  C   UNL     1      43.792 -11.281   6.139  1.00  0.00     0.035 A 
HETATM   17  C   UNL     1      45.140 -11.423   5.809  1.00  0.00     0.029 A 
HETATM   18  C   UNL     1      46.136 -11.143   6.750  1.00  0.00     0.002 A 
HETATM   19  C   UNL     1      45.792 -10.711   8.028  1.00  0.00     0.000 A 
HETATM   20  C   UNL     1      44.449 -10.566   8.370  1.00  0.00     0.002 A 
HETATM   21  C   UNL     1      43.455 -10.855   7.431  1.00  0.00     0.029 A 
ENDBRANCH  13  16
ENDBRANCH  10  12
BRANCH   9  22
HETATM   22  C   UNL     1      42.074 -14.365   2.480  1.00  0.00    -0.011 A 
HETATM   23  C   UNL     1      43.310 -14.696   1.925  1.00  0.00     0.125 A 
HETATM   24  N   UNL     1      43.753 -15.962   1.758  1.00  0.00    -0.272 NA
HETATM   25  C   UNL     1      42.940 -16.953   2.178  1.00  0.00     0.116 A 
HETATM   26  C   UNL     1      41.693 -16.737   2.740  1.00  0.00     0.020 A 
HETATM   27  C   UNL     1      41.253 -15.425   2.884  1.00  0.00     0.012 A 
ENDBRANCH   9  22
TORSDOF 3
ENDMDL
MODEL 9
REMARK VINA RESULT:      -7.0      3.035      6.985
REMARK  3 active torsions:
REMARK  status: ('A' for Active; 'I' for Inactive)
REMARK    1  A    between atoms: C_9  and  C_10 
REMARK    2  A    between atoms: C_16  and  C_17 
REMARK       I    between atoms: C_17  and  N_18 
REMARK    3  A    between atoms: N_18  and  C_19 
ROOT
HETATM    1  C   UNL     1      39.013 -10.442   2.562  1.00  0.00     0.070 C 
HETATM    2  C   UNL     1      39.500 -11.573   1.690  1.00  0.00     0.037 C 
HETATM    3  N   UNL     1      38.616 -11.983   0.693  1.00  0.00    -0.191 N 
HETATM    4  C   UNL     1      38.983 -12.798  -0.319  1.00  0.00     0.735 A 
HETATM    5  N   UNL     1      40.220 -13.374  -0.296  1.00  0.00    -0.092 N 
HETATM    6  N   UNL     1      40.425 -14.085  -1.415  1.00  0.00     0.012 NA
HETATM    7  N   UNL     1      39.287 -13.967  -2.093  1.00  0.00     0.033 NA
HETATM    8  N   UNL     1      38.381 -13.167  -1.422  1.00  0.00     0.030 NA
HETATM    9  C   UNL     1      41.199 -13.201   0.775  1.00  0.00     0.199 C 
HETATM   10  C   UNL     1      40.729 -12.143   1.773  1.00  0.00     0.062 C 
HETATM   11  H   UNL     1      37.737 -11.477   0.608  1.00  0.00     0.184 HD
ENDROOT
BRANCH  10  12
HETATM   12  C   UNL     1      41.781 -11.725   2.739  1.00  0.00     0.256 C 
HETATM   13  N   UNL     1      41.670 -12.327   3.971  1.00  0.00    -0.323 N 
HETATM   14  H   UNL     1      40.930 -13.008   4.091  1.00  0.00     0.169 HD
HETATM   15  O   UNL     1      42.651 -10.954   2.354  1.00  0.00    -0.267 OA
BRANCH  13  16
HETATM   16  C   UNL     1      42.462 -12.087   5.114  1.00  0.00     0.035 A 
HETATM   17  C   UNL     1      43.502 -12.919   5.533  1.00  0.00     0.029 A 
HETATM   18  C   UNL     1      44.256 -12.597   6.667  1.00  0.00     0.002 A 
HETATM   19  C   UNL     1      43.981 -11.438   7.387  1.00  0.00     0.000 A 
HETATM   20  C   UNL     1      42.946 -10.601   6.979  1.00  0.00     0.002 A 
HETATM   21  C   UNL     1      42.187 -10.927   5.851  1.00  0.00     0.029 A 
ENDBRANCH  13  16
ENDBRANCH  10  12
BRANCH   9  22
HETATM   22  C   UNL     1      41.487 -14.531   1.449  1.00  0.00    -0.011 A 
HETATM   23  C   UNL     1      40.497 -15.265   2.099  1.00  0.00     0.125 A 
HETATM   24  N   UNL     1      40.714 -16.435   2.740  1.00  0.00    -0.272 NA
HETATM   25  C   UNL     1      41.976 -16.914   2.722  1.00  0.00     0.116 A 
HETATM   26  C   UNL     1      43.035 -16.266   2.110  1.00  0.00     0.020 A 
HETATM   27  C   UNL     1      42.786 -15.054   1.472  1.00  0.00     0.012 A 
ENDBRANCH   9  22
TORSDOF 3
ENDMDL
MODEL 10
REMARK VINA RESULT:      -7.0     15.692     17.083
REMARK  3 active torsions:
REMARK  status: ('A' for Active; 'I' for Inactive)
REMARK    1  A    between atoms: C_9  and  C_10 
REMARK    2  A    between atoms: C_16  and  C_17 
REMARK       I    between atoms: C_17  and  N_18 
REMARK    3  A    between atoms: N_18  and  C_19 
ROOT
HETATM    1  C   UNL     1      44.165 -29.907   1.723  1.00  0.00     0.070 C 
HETATM    2  C   UNL     1      44.818 -29.651   0.387  1.00  0.00     0.037 C 
HETATM    3  N   UNL     1      43.972 -29.731  -0.718  1.00  0.00    -0.191 N 
HETATM    4  C   UNL     1      44.327 -29.292  -1.944  1.00  0.00     0.735 A 
HETATM    5  N   UNL     1      45.614 -28.893  -2.162  1.00  0.00    -0.092 N 
HETATM    6  N   UNL     1      45.752 -28.426  -3.412  1.00  0.00     0.012 NA
HETATM    7  N   UNL     1      44.550 -28.584  -3.958  1.00  0.00     0.033 NA
HETATM    8  N   UNL     1      43.653 -29.122  -3.054  1.00  0.00     0.030 NA
HETATM    9  C   UNL     1      46.677 -28.928  -1.160  1.00  0.00     0.199 C 
HETATM   10  C   UNL     1      46.115 -29.292   0.213  1.00  0.00     0.062 C 
HETATM   11  H   UNL     1      42.987 -29.920  -0.542  1.00  0.00     0.184 HD
ENDROOT
BRANCH  10  12
HETATM   12  C   UNL     1      47.084 -29.092   1.326  1.00  0.00     0.256 C 
HETATM   13  N   UNL     1      47.826 -30.213   1.620  1.00  0.00    -0.323 N 
HETATM   14  H   UNL     1      47.679 -31.033   1.044  1.00  0.00     0.169 HD
HETATM   15  O   UNL     1      47.171 -27.979   1.828  1.00  0.00    -0.267 OA
BRANCH  13  16
HETATM   16  C   UNL     1      48.766 -30.365   2.661  1.00  0.00     0.035 A 
HETATM   17  C   UNL     1      48.444 -30.803   3.947  1.00  0.00     0.029 A 
HETATM   18  C   UNL     1      49.441 -30.949   4.918  1.00  0.00     0.002 A 
HETATM   19  C   UNL     1      50.768 -30.664   4.610  1.00  0.00     0.000 A 
HETATM   20  C   UNL     1      51.101 -30.226   3.331  1.00  0.00     0.002 A 
HETATM   21  C   UNL     1      50.104 -30.072   2.364  1.00  0.00     0.029 A 
ENDBRANCH  13  16
ENDBRANCH  10  12
BRANCH   9  22
HETATM   22  C   UNL     1      47.782 -29.876  -1.593  1.00  0.00    -0.011 A 
HETATM   23  C   UNL     1      47.527 -31.194  -1.969  1.00  0.00     0.125 A 
HETATM   24  N   UNL     1      48.481 -32.081  -2.328  1.00  0.00    -0.272 NA
HETATM   25  C   UNL     1      49.755 -31.636  -2.334  1.00  0.00     0.116 A 
HETATM   26  C   UNL     1      50.121 -30.349  -1.978  1.00  0.00     0.020 A 
HETATM   27  C   UNL     1      49.120 -29.461  -1.595  1.00  0.00     0.012 A 
ENDBRANCH   9  22
TORSDOF 3
ENDMDL
