MODEL 1
REMARK VINA RESULT:      -8.0      0.000      0.000
REMARK  9 active torsions:
REMARK  status: ('A' for Active; 'I' for Inactive)
REMARK    1  A    between atoms: C_3  and  C_4 
REMARK    2  A    between atoms: C_4  and  O_5 
REMARK    3  A    between atoms: C_8  and  N_9 
REMARK       I    between atoms: N_9  and  C_10 
REMARK    4  A    between atoms: C_10  and  C_11 
REMARK    5  A    between atoms: C_11  and  N_12 
REMARK    6  A    between atoms: C_14  and  C_15 
REMARK    7  A    between atoms: C_16  and  O_17 
REMARK    8  A    between atoms: C_21  and  O_22 
REMARK    9  A    between atoms: C_26  and  O_27 
ROOT
HETATM    1  N   UNL     1      40.376 -12.750   1.339  1.00  0.00    -0.054 N 
HETATM    2  H   UNL     1      40.984 -11.999   1.691  1.00  0.00     0.281 HD
HETATM    3  C   UNL     1      39.410 -11.972   0.431  1.00  0.00     0.231 C 
HETATM    4  C   UNL     1      38.837 -12.880  -0.697  1.00  0.00     0.055 C 
HETATM    5  C   UNL     1      39.801 -13.885  -1.357  1.00  0.00     0.065 C 
HETATM    6  C   UNL     1      40.596 -14.635  -0.293  1.00  0.00     0.066 C 
HETATM    7  C   UNL     1      41.319 -13.672   0.631  1.00  0.00     0.239 C 
HETATM    8  C   UNL     1      38.023 -12.112  -1.753  1.00  0.00     0.010 C 
HETATM    9  C   UNL     1      37.236 -13.081  -2.637  1.00  0.00     0.001 C 
HETATM   10  C   UNL     1      38.127 -14.148  -3.268  1.00  0.00     0.003 C 
HETATM   11  C   UNL     1      38.997 -14.870  -2.234  1.00  0.00     0.038 C 
ENDROOT
BRANCH   1  12
HETATM   12  C   UNL     1      39.764 -13.273   2.645  1.00  0.00     0.338 C 
BRANCH  12  13
HETATM   13  C   UNL     1      40.425 -14.500   3.265  1.00  0.00     0.248 C 
HETATM   14  N   UNL     1      41.718 -14.280   3.717  1.00  0.00    -0.319 N 
HETATM   15  H   UNL     1      42.310 -13.616   3.233  1.00  0.00     0.169 HD
HETATM   16  O   UNL     1      39.853 -15.588   3.258  1.00  0.00    -0.271 OA
BRANCH  14  17
HETATM   17  C   UNL     1      42.389 -15.288   4.378  1.00  0.00     0.094 C 
HETATM   18  C   UNL     1      43.082 -16.403   3.945  1.00  0.00     0.080 C 
HETATM   19  C   UNL     1      43.740 -17.042   5.084  1.00  0.00    -0.030 C 
HETATM   20  C   UNL     1      44.636 -18.243   4.995  1.00  0.00     0.050 C 
HETATM   21  C   UNL     1      43.410 -16.418   6.283  1.00  0.00    -0.012 C 
HETATM   22  S   UNL     1      42.302 -15.140   6.060  1.00  0.00    -0.076 SA
HETATM   23  C   UNL     1      43.868 -16.759   7.667  1.00  0.00     0.057 C 
BRANCH  18  24
HETATM   24  C   UNL     1      43.047 -16.860   2.544  1.00  0.00     0.296 C 
HETATM   25  O   UNL     1      43.538 -16.223   1.616  1.00  0.00    -0.259 OA
BRANCH  24  26
HETATM   26  O   UNL     1      42.344 -18.015   2.374  1.00  0.00    -0.322 OA
HETATM   27  C   UNL     1      43.129 -19.169   2.064  1.00  0.00     0.213 C 
ENDBRANCH  24  26
ENDBRANCH  18  24
ENDBRANCH  14  17
ENDBRANCH  12  13
ENDBRANCH   1  12
BRANCH   3  28
HETATM   28  C   UNL     1      39.988 -10.587   0.126  1.00  0.00     0.009 A 
HETATM   29  C   UNL     1      39.227  -9.432   0.433  1.00  0.00     0.076 A 
HETATM   30  C   UNL     1      39.756  -8.157   0.216  1.00  0.00     0.040 A 
HETATM   31  C   UNL     1      41.040  -8.009  -0.306  1.00  0.00     0.039 A 
HETATM   32  C   UNL     1      41.806  -9.127  -0.614  1.00  0.00     0.069 A 
HETATM   33  C   UNL     1      41.286 -10.401  -0.379  1.00  0.00     0.048 A 
BRANCH  29  34
HETATM   34  O   UNL     1      38.000  -9.648   1.007  1.00  0.00    -0.355 OA
HETATM   35  C   UNL     1      36.862  -9.209   0.263  1.00  0.00     0.210 C 
ENDBRANCH  29  34
BRANCH  32  36
HETATM   36  O   UNL     1      43.056  -8.855  -1.096  1.00  0.00    -0.356 OA
HETATM   37  C   UNL     1      43.222  -7.620  -1.783  1.00  0.00     0.210 C 
ENDBRANCH  32  36
ENDBRANCH   3  28
BRANCH   5  38
HETATM   38  O   UNL     1      40.755 -13.212  -2.173  1.00  0.00    -0.389 OA
HETATM   39  H   UNL     1      41.302 -12.618  -1.625  1.00  0.00     0.210 HD
ENDBRANCH   5  38
TORSDOF 9
ENDMDL
MODEL 2
REMARK VINA RESULT:      -7.9      1.423      2.317
REMARK  9 active torsions:
REMARK  status: ('A' for Active; 'I' for Inactive)
REMARK    1  A    between atoms: C_3  and  C_4 
REMARK    2  A    between atoms: C_4  and  O_5 
REMARK    3  A    between atoms: C_8  and  N_9 
REMARK       I    between atoms: N_9  and  C_10 
REMARK    4  A    between atoms: C_10  and  C_11 
REMARK    5  A    between atoms: C_11  and  N_12 
REMARK    6  A    between atoms: C_14  and  C_15 
REMARK    7  A    between atoms: C_16  and  O_17 
REMARK    8  A    between atoms: C_21  and  O_22 
REMARK    9  A    between atoms: C_26  and  O_27 
ROOT
HETATM    1  N   UNL     1      40.376 -12.800   1.335  1.00  0.00    -0.054 N 
HETATM    2  H   UNL     1      40.976 -12.048   1.699  1.00  0.00     0.281 HD
HETATM    3  C   UNL     1      39.387 -12.016   0.458  1.00  0.00     0.231 C 
HETATM    4  C   UNL     1      38.815 -12.905  -0.685  1.00  0.00     0.055 C 
HETATM    5  C   UNL     1      39.788 -13.877  -1.382  1.00  0.00     0.065 C 
HETATM    6  C   UNL     1      40.609 -14.639  -0.347  1.00  0.00     0.066 C 
HETATM    7  C   UNL     1      41.327 -13.688   0.593  1.00  0.00     0.239 C 
HETATM    8  C   UNL     1      37.976 -12.125  -1.712  1.00  0.00     0.010 C 
HETATM    9  C   UNL     1      37.195 -13.086  -2.611  1.00  0.00     0.001 C 
HETATM   10  C   UNL     1      38.095 -14.121  -3.279  1.00  0.00     0.003 C 
HETATM   11  C   UNL     1      38.990 -14.853  -2.274  1.00  0.00     0.038 C 
ENDROOT
BRANCH   1  12
HETATM   12  C   UNL     1      39.789 -13.366   2.635  1.00  0.00     0.338 C 
BRANCH  12  13
HETATM   13  C   UNL     1      40.399 -14.666   3.149  1.00  0.00     0.248 C 
HETATM   14  N   UNL     1      41.690 -14.532   3.639  1.00  0.00    -0.319 N 
HETATM   15  H   UNL     1      42.312 -13.848   3.228  1.00  0.00     0.169 HD
HETATM   16  O   UNL     1      39.792 -15.729   3.033  1.00  0.00    -0.271 OA
BRANCH  14  17
HETATM   17  C   UNL     1      42.315 -15.619   4.215  1.00  0.00     0.094 C 
HETATM   18  C   UNL     1      42.345 -16.117   5.504  1.00  0.00     0.080 C 
HETATM   19  C   UNL     1      43.039 -17.405   5.514  1.00  0.00    -0.030 C 
HETATM   20  C   UNL     1      43.214 -18.276   6.724  1.00  0.00     0.050 C 
HETATM   21  C   UNL     1      43.555 -17.719   4.261  1.00  0.00    -0.012 C 
HETATM   22  S   UNL     1      43.266 -16.485   3.118  1.00  0.00    -0.076 SA
HETATM   23  C   UNL     1      44.324 -18.936   3.849  1.00  0.00     0.057 C 
BRANCH  18  24
HETATM   24  C   UNL     1      41.811 -15.366   6.653  1.00  0.00     0.296 C 
HETATM   25  O   UNL     1      40.624 -15.069   6.771  1.00  0.00    -0.259 OA
BRANCH  24  26
HETATM   26  O   UNL     1      42.776 -14.963   7.527  1.00  0.00    -0.322 OA
HETATM   27  C   UNL     1      43.570 -13.857   7.095  1.00  0.00     0.213 C 
ENDBRANCH  24  26
ENDBRANCH  18  24
ENDBRANCH  14  17
ENDBRANCH  12  13
ENDBRANCH   1  12
BRANCH   3  28
HETATM   28  C   UNL     1      39.937 -10.615   0.181  1.00  0.00     0.009 A 
HETATM   29  C   UNL     1      39.181  -9.481   0.568  1.00  0.00     0.076 A 
HETATM   30  C   UNL     1      39.688  -8.192   0.376  1.00  0.00     0.040 A 
HETATM   31  C   UNL     1      40.945  -8.010  -0.197  1.00  0.00     0.039 A 
HETATM   32  C   UNL     1      41.706  -9.107  -0.583  1.00  0.00     0.069 A 
HETATM   33  C   UNL     1      41.209 -10.395  -0.375  1.00  0.00     0.048 A 
BRANCH  29  34
HETATM   34  O   UNL     1      37.983  -9.732   1.188  1.00  0.00    -0.355 OA
HETATM   35  C   UNL     1      36.808  -9.288   0.509  1.00  0.00     0.210 C 
ENDBRANCH  29  34
BRANCH  32  36
HETATM   36  O   UNL     1      42.930  -8.803  -1.111  1.00  0.00    -0.356 OA
HETATM   37  C   UNL     1      43.194  -7.428  -1.363  1.00  0.00     0.210 C 
ENDBRANCH  32  36
ENDBRANCH   3  28
BRANCH   5  38
HETATM   38  O   UNL     1      40.721 -13.167  -2.192  1.00  0.00    -0.389 OA
HETATM   39  H   UNL     1      40.267 -12.782  -2.965  1.00  0.00     0.210 HD
ENDBRANCH   5  38
TORSDOF 9
ENDMDL
MODEL 3
REMARK VINA RESULT:      -7.8      4.270      5.965
REMARK  9 active torsions:
REMARK  status: ('A' for Active; 'I' for Inactive)
REMARK    1  A    between atoms: C_3  and  C_4 
REMARK    2  A    between atoms: C_4  and  O_5 
REMARK    3  A    between atoms: C_8  and  N_9 
REMARK       I    between atoms: N_9  and  C_10 
REMARK    4  A    between atoms: C_10  and  C_11 
REMARK    5  A    between atoms: C_11  and  N_12 
REMARK    6  A    between atoms: C_14  and  C_15 
REMARK    7  A    between atoms: C_16  and  O_17 
REMARK    8  A    between atoms: C_21  and  O_22 
REMARK    9  A    between atoms: C_26  and  O_27 
ROOT
HETATM    1  N   UNL     1      40.858 -11.867   3.025  1.00  0.00    -0.054 N 
HETATM    2  H   UNL     1      40.449 -11.140   2.423  1.00  0.00     0.281 HD
HETATM    3  C   UNL     1      40.132 -13.128   2.530  1.00  0.00     0.231 C 
HETATM    4  C   UNL     1      40.985 -14.407   2.778  1.00  0.00     0.055 C 
HETATM    5  C   UNL     1      42.504 -14.305   2.539  1.00  0.00     0.065 C 
HETATM    6  C   UNL     1      43.060 -13.044   3.194  1.00  0.00     0.066 C 
HETATM    7  C   UNL     1      42.321 -11.807   2.717  1.00  0.00     0.239 C 
HETATM    8  C   UNL     1      40.403 -15.673   2.127  1.00  0.00     0.010 C 
HETATM    9  C   UNL     1      41.099 -16.925   2.664  1.00  0.00     0.001 C 
HETATM   10  C   UNL     1      42.617 -16.856   2.519  1.00  0.00     0.003 C 
HETATM   11  C   UNL     1      43.200 -15.564   3.099  1.00  0.00     0.038 C 
ENDROOT
BRANCH   1  12
HETATM   12  C   UNL     1      40.433 -11.374   4.415  1.00  0.00     0.338 C 
BRANCH  12  13
HETATM   13  C   UNL     1      41.421 -10.474   5.150  1.00  0.00     0.248 C 
HETATM   14  N   UNL     1      41.572 -10.777   6.495  1.00  0.00    -0.319 N 
HETATM   15  H   UNL     1      40.784 -11.140   7.017  1.00  0.00     0.169 HD
HETATM   16  O   UNL     1      41.944  -9.521   4.575  1.00  0.00    -0.271 OA
BRANCH  14  17
HETATM   17  C   UNL     1      42.505 -10.092   7.246  1.00  0.00     0.094 C 
HETATM   18  C   UNL     1      43.845 -10.304   7.508  1.00  0.00     0.080 C 
HETATM   19  C   UNL     1      44.387  -9.159   8.240  1.00  0.00    -0.030 C 
HETATM   20  C   UNL     1      45.824  -9.001   8.645  1.00  0.00     0.050 C 
HETATM   21  C   UNL     1      43.396  -8.234   8.551  1.00  0.00    -0.012 C 
HETATM   22  S   UNL     1      41.853  -8.744   8.031  1.00  0.00    -0.076 SA
HETATM   23  C   UNL     1      43.532  -6.935   9.284  1.00  0.00     0.057 C 
BRANCH  18  24
HETATM   24  C   UNL     1      44.532 -11.557   7.146  1.00  0.00     0.296 C 
HETATM   25  O   UNL     1      45.489 -11.601   6.376  1.00  0.00    -0.259 OA
BRANCH  24  26
HETATM   26  O   UNL     1      43.949 -12.664   7.685  1.00  0.00    -0.322 OA
HETATM   27  C   UNL     1      43.614 -13.694   6.752  1.00  0.00     0.213 C 
ENDBRANCH  24  26
ENDBRANCH  18  24
ENDBRANCH  14  17
ENDBRANCH  12  13
ENDBRANCH   1  12
BRANCH   3  28
HETATM   28  C   UNL     1      39.482 -12.854   1.171  1.00  0.00     0.009 A 
HETATM   29  C   UNL     1      38.492 -11.847   1.064  1.00  0.00     0.076 A 
HETATM   30  C   UNL     1      37.925 -11.539  -0.177  1.00  0.00     0.040 A 
HETATM   31  C   UNL     1      38.331 -12.221  -1.322  1.00  0.00     0.039 A 
HETATM   32  C   UNL     1      39.302 -13.212  -1.242  1.00  0.00     0.069 A 
HETATM   33  C   UNL     1      39.883 -13.507  -0.007  1.00  0.00     0.048 A 
BRANCH  29  34
HETATM   34  O   UNL     1      38.188 -11.168   2.217  1.00  0.00    -0.355 OA
HETATM   35  C   UNL     1      37.949  -9.766   2.087  1.00  0.00     0.210 C 
ENDBRANCH  29  34
BRANCH  32  36
HETATM   36  O   UNL     1      39.633 -13.792  -2.435  1.00  0.00    -0.356 OA
HETATM   37  C   UNL     1      38.699 -14.717  -2.978  1.00  0.00     0.210 C 
ENDBRANCH  32  36
ENDBRANCH   3  28
BRANCH   5  38
HETATM   38  O   UNL     1      42.792 -14.196   1.148  1.00  0.00    -0.389 OA
HETATM   39  H   UNL     1      42.406 -14.952   0.667  1.00  0.00     0.210 HD
ENDBRANCH   5  38
TORSDOF 9
ENDMDL
MODEL 4
REMARK VINA RESULT:      -7.8      3.129      3.850
REMARK  9 active torsions:
REMARK  status: ('A' for Active; 'I' for Inactive)
REMARK    1  A    between atoms: C_3  and  C_4 
REMARK    2  A    between atoms: C_4  and  O_5 
REMARK    3  A    between atoms: C_8  and  N_9 
REMARK       I    between atoms: N_9  and  C_10 
REMARK    4  A    between atoms: C_10  and  C_11 
REMARK    5  A    between atoms: C_11  and  N_12 
REMARK    6  A    between atoms: C_14  and  C_15 
REMARK    7  A    between atoms: C_16  and  O_17 
REMARK    8  A    between atoms: C_21  and  O_22 
REMARK    9  A    between atoms: C_26  and  O_27 
ROOT
HETATM    1  N   UNL     1      40.236 -12.650   1.647  1.00  0.00    -0.054 N 
HETATM    2  H   UNL     1      40.839 -11.909   2.029  1.00  0.00     0.281 HD
HETATM    3  C   UNL     1      39.376 -11.868   0.642  1.00  0.00     0.231 C 
HETATM    4  C   UNL     1      38.868 -12.788  -0.506  1.00  0.00     0.055 C 
HETATM    5  C   UNL     1      39.848 -13.842  -1.058  1.00  0.00     0.065 C 
HETATM    6  C   UNL     1      40.527 -14.586   0.088  1.00  0.00     0.066 C 
HETATM    7  C   UNL     1      41.204 -13.621   1.044  1.00  0.00     0.239 C 
HETATM    8  C   UNL     1      38.171 -12.025  -1.646  1.00  0.00     0.010 C 
HETATM    9  C   UNL     1      37.427 -12.994  -2.567  1.00  0.00     0.001 C 
HETATM   10  C   UNL     1      38.330 -14.106  -3.095  1.00  0.00     0.003 C 
HETATM   11  C   UNL     1      39.087 -14.825  -1.973  1.00  0.00     0.038 C 
ENDROOT
BRANCH   1  12
HETATM   12  C   UNL     1      39.501 -13.116   2.910  1.00  0.00     0.338 C 
BRANCH  12  13
HETATM   13  C   UNL     1      40.119 -12.714   4.245  1.00  0.00     0.248 C 
HETATM   14  N   UNL     1      40.757 -11.483   4.228  1.00  0.00    -0.319 N 
HETATM   15  H   UNL     1      41.214 -11.169   3.381  1.00  0.00     0.169 HD
HETATM   16  O   UNL     1      40.104 -13.491   5.199  1.00  0.00    -0.271 OA
BRANCH  14  17
HETATM   17  C   UNL     1      41.277 -10.969   5.398  1.00  0.00     0.094 C 
HETATM   18  C   UNL     1      42.549 -10.951   5.938  1.00  0.00     0.080 C 
HETATM   19  C   UNL     1      42.558 -10.114   7.138  1.00  0.00    -0.030 C 
HETATM   20  C   UNL     1      43.776  -9.806   7.961  1.00  0.00     0.050 C 
HETATM   21  C   UNL     1      41.283  -9.657   7.455  1.00  0.00    -0.012 C 
HETATM   22  S   UNL     1      40.100 -10.255   6.380  1.00  0.00    -0.076 SA
HETATM   23  C   UNL     1      40.864  -8.782   8.595  1.00  0.00     0.057 C 
BRANCH  18  24
HETATM   24  C   UNL     1      43.656 -11.746   5.378  1.00  0.00     0.296 C 
HETATM   25  O   UNL     1      44.650 -11.244   4.860  1.00  0.00    -0.259 OA
BRANCH  24  26
HETATM   26  O   UNL     1      43.426 -13.089   5.418  1.00  0.00    -0.322 OA
HETATM   27  C   UNL     1      43.610 -13.703   6.696  1.00  0.00     0.213 C 
ENDBRANCH  24  26
ENDBRANCH  18  24
ENDBRANCH  14  17
ENDBRANCH  12  13
ENDBRANCH   1  12
BRANCH   3  28
HETATM   28  C   UNL     1      40.023 -10.511   0.350  1.00  0.00     0.009 A 
HETATM   29  C   UNL     1      39.416  -9.330   0.842  1.00  0.00     0.076 A 
HETATM   30  C   UNL     1      40.018  -8.084   0.637  1.00  0.00     0.040 A 
HETATM   31  C   UNL     1      41.225  -7.994  -0.053  1.00  0.00     0.039 A 
HETATM   32  C   UNL     1      41.841  -9.139  -0.544  1.00  0.00     0.069 A 
HETATM   33  C   UNL     1      41.250 -10.385  -0.324  1.00  0.00     0.048 A 
BRANCH  29  34
HETATM   34  O   UNL     1      38.266  -9.496   1.572  1.00  0.00    -0.355 OA
HETATM   35  C   UNL     1      38.330  -9.139   2.953  1.00  0.00     0.210 C 
ENDBRANCH  29  34
BRANCH  32  36
HETATM   36  O   UNL     1      43.030  -8.926  -1.183  1.00  0.00    -0.356 OA
HETATM   37  C   UNL     1      43.277  -7.605  -1.651  1.00  0.00     0.210 C 
ENDBRANCH  32  36
ENDBRANCH   3  28
BRANCH   5  38
HETATM   38  O   UNL     1      40.889 -13.222  -1.808  1.00  0.00    -0.389 OA
HETATM   39  H   UNL     1      41.582 -13.877  -2.021  1.00  0.00     0.210 HD
ENDBRANCH   5  38
TORSDOF 9
ENDMDL
MODEL 5
REMARK VINA RESULT:      -7.7      5.772      8.383
REMARK  9 active torsions:
REMARK  status: ('A' for Active; 'I' for Inactive)
REMARK    1  A    between atoms: C_3  and  C_4 
REMARK    2  A    between atoms: C_4  and  O_5 
REMARK    3  A    between atoms: C_8  and  N_9 
REMARK       I    between atoms: N_9  and  C_10 
REMARK    4  A    between atoms: C_10  and  C_11 
REMARK    5  A    between atoms: C_11  and  N_12 
REMARK    6  A    between atoms: C_14  and  C_15 
REMARK    7  A    between atoms: C_16  and  O_17 
REMARK    8  A    between atoms: C_21  and  O_22 
REMARK    9  A    between atoms: C_26  and  O_27 
ROOT
HETATM    1  N   UNL     1      41.186 -10.994   5.389  1.00  0.00    -0.054 N 
HETATM    2  H   UNL     1      41.515 -11.332   6.303  1.00  0.00     0.281 HD
HETATM    3  C   UNL     1      41.975 -11.888   4.420  1.00  0.00     0.231 C 
HETATM    4  C   UNL     1      41.226 -12.056   3.066  1.00  0.00     0.055 C 
HETATM    5  C   UNL     1      39.694 -12.220   3.118  1.00  0.00     0.065 C 
HETATM    6  C   UNL     1      39.080 -11.178   4.049  1.00  0.00     0.066 C 
HETATM    7  C   UNL     1      39.709 -11.237   5.429  1.00  0.00     0.239 C 
HETATM    8  C   UNL     1      41.866 -13.097   2.132  1.00  0.00     0.010 C 
HETATM    9  C   UNL     1      41.284 -12.986   0.721  1.00  0.00     0.001 C 
HETATM   10  C   UNL     1      39.760 -13.072   0.711  1.00  0.00     0.003 C 
HETATM   11  C   UNL     1      39.113 -12.089   1.693  1.00  0.00     0.038 C 
ENDROOT
BRANCH   1  12
HETATM   12  C   UNL     1      41.636  -9.527   5.437  1.00  0.00     0.338 C 
BRANCH  12  13
HETATM   13  C   UNL     1      41.759  -8.897   6.820  1.00  0.00     0.248 C 
HETATM   14  N   UNL     1      41.608  -9.793   7.868  1.00  0.00    -0.319 N 
HETATM   15  H   UNL     1      40.986 -10.585   7.762  1.00  0.00     0.169 HD
HETATM   16  O   UNL     1      41.890  -7.680   6.942  1.00  0.00    -0.271 OA
BRANCH  14  17
HETATM   17  C   UNL     1      41.788  -9.360   9.166  1.00  0.00     0.094 C 
HETATM   18  C   UNL     1      42.872  -9.372  10.023  1.00  0.00     0.080 C 
HETATM   19  C   UNL     1      42.544  -8.622  11.235  1.00  0.00    -0.030 C 
HETATM   20  C   UNL     1      43.493  -8.365  12.369  1.00  0.00     0.050 C 
HETATM   21  C   UNL     1      41.219  -8.197  11.233  1.00  0.00    -0.012 C 
HETATM   22  S   UNL     1      40.376  -8.725   9.846  1.00  0.00    -0.076 SA
HETATM   23  C   UNL     1      40.493  -7.407  12.277  1.00  0.00     0.057 C 
BRANCH  18  24
HETATM   24  C   UNL     1      44.107 -10.118   9.724  1.00  0.00     0.296 C 
HETATM   25  O   UNL     1      44.145 -11.341   9.618  1.00  0.00    -0.259 OA
BRANCH  24  26
HETATM   26  O   UNL     1      45.212  -9.323   9.661  1.00  0.00    -0.322 OA
HETATM   27  C   UNL     1      45.253  -8.417   8.557  1.00  0.00     0.213 C 
ENDBRANCH  24  26
ENDBRANCH  18  24
ENDBRANCH  14  17
ENDBRANCH  12  13
ENDBRANCH   1  12
BRANCH   3  28
HETATM   28  C   UNL     1      42.543 -13.094   5.173  1.00  0.00     0.009 A 
HETATM   29  C   UNL     1      43.540 -12.893   6.160  1.00  0.00     0.076 A 
HETATM   30  C   UNL     1      44.033 -13.971   6.900  1.00  0.00     0.040 A 
HETATM   31  C   UNL     1      43.547 -15.257   6.674  1.00  0.00     0.039 A 
HETATM   32  C   UNL     1      42.569 -15.480   5.713  1.00  0.00     0.069 A 
HETATM   33  C   UNL     1      42.061 -14.401   4.986  1.00  0.00     0.048 A 
BRANCH  29  34
HETATM   34  O   UNL     1      43.924 -11.593   6.379  1.00  0.00    -0.355 OA
HETATM   35  C   UNL     1      45.309 -11.298   6.191  1.00  0.00     0.210 C 
ENDBRANCH  29  34
BRANCH  32  36
HETATM   36  O   UNL     1      42.156 -16.778   5.600  1.00  0.00    -0.356 OA
HETATM   37  C   UNL     1      43.084 -17.781   5.995  1.00  0.00     0.210 C 
ENDBRANCH  32  36
ENDBRANCH   3  28
BRANCH   5  38
HETATM   38  O   UNL     1      39.338 -13.492   3.649  1.00  0.00    -0.389 OA
HETATM   39  H   UNL     1      39.491 -13.507   4.613  1.00  0.00     0.210 HD
ENDBRANCH   5  38
TORSDOF 9
ENDMDL
MODEL 6
REMARK VINA RESULT:      -7.6      5.583      8.534
REMARK  9 active torsions:
REMARK  status: ('A' for Active; 'I' for Inactive)
REMARK    1  A    between atoms: C_3  and  C_4 
REMARK    2  A    between atoms: C_4  and  O_5 
REMARK    3  A    between atoms: C_8  and  N_9 
REMARK       I    between atoms: N_9  and  C_10 
REMARK    4  A    between atoms: C_10  and  C_11 
REMARK    5  A    between atoms: C_11  and  N_12 
REMARK    6  A    between atoms: C_14  and  C_15 
REMARK    7  A    between atoms: C_16  and  O_17 
REMARK    8  A    between atoms: C_21  and  O_22 
REMARK    9  A    between atoms: C_26  and  O_27 
ROOT
HETATM    1  N   UNL     1      41.263 -11.280   5.319  1.00  0.00    -0.054 N 
HETATM    2  H   UNL     1      41.620 -11.646   6.212  1.00  0.00     0.281 HD
HETATM    3  C   UNL     1      42.047 -12.121   4.300  1.00  0.00     0.231 C 
HETATM    4  C   UNL     1      41.270 -12.252   2.957  1.00  0.00     0.055 C 
HETATM    5  C   UNL     1      39.742 -12.447   3.036  1.00  0.00     0.065 C 
HETATM    6  C   UNL     1      39.132 -11.454   4.020  1.00  0.00     0.066 C 
HETATM    7  C   UNL     1      39.793 -11.553   5.383  1.00  0.00     0.239 C 
HETATM    8  C   UNL     1      41.907 -13.245   1.969  1.00  0.00     0.010 C 
HETATM    9  C   UNL     1      41.290 -13.091   0.577  1.00  0.00     0.001 C 
HETATM   10  C   UNL     1      39.769 -13.206   0.598  1.00  0.00     0.003 C 
HETATM   11  C   UNL     1      39.127 -12.274   1.631  1.00  0.00     0.038 C 
ENDROOT
BRANCH   1  12
HETATM   12  C   UNL     1      41.687  -9.808   5.413  1.00  0.00     0.338 C 
BRANCH  12  13
HETATM   13  C   UNL     1      41.488  -9.126   6.763  1.00  0.00     0.248 C 
HETATM   14  N   UNL     1      41.649  -9.968   7.853  1.00  0.00    -0.319 N 
HETATM   15  H   UNL     1      41.392 -10.943   7.774  1.00  0.00     0.169 HD
HETATM   16  O   UNL     1      41.127  -7.952   6.821  1.00  0.00    -0.271 OA
BRANCH  14  17
HETATM   17  C   UNL     1      41.582  -9.448   9.130  1.00  0.00     0.094 C 
HETATM   18  C   UNL     1      40.537  -9.237  10.009  1.00  0.00     0.080 C 
HETATM   19  C   UNL     1      41.068  -8.809  11.304  1.00  0.00    -0.030 C 
HETATM   20  C   UNL     1      40.238  -8.545  12.527  1.00  0.00     0.050 C 
HETATM   21  C   UNL     1      42.448  -8.641  11.262  1.00  0.00    -0.012 C 
HETATM   22  S   UNL     1      43.085  -8.932   9.706  1.00  0.00    -0.076 SA
HETATM   23  C   UNL     1      43.368  -8.218  12.365  1.00  0.00     0.057 C 
BRANCH  18  24
HETATM   24  C   UNL     1      39.126  -9.364   9.605  1.00  0.00     0.296 C 
HETATM   25  O   UNL     1      38.679 -10.348   9.022  1.00  0.00    -0.259 OA
BRANCH  24  26
HETATM   26  O   UNL     1      38.390  -8.247   9.868  1.00  0.00    -0.322 OA
HETATM   27  C   UNL     1      38.690  -7.110   9.056  1.00  0.00     0.213 C 
ENDBRANCH  24  26
ENDBRANCH  18  24
ENDBRANCH  14  17
ENDBRANCH  12  13
ENDBRANCH   1  12
BRANCH   3  28
HETATM   28  C   UNL     1      42.654 -13.344   4.993  1.00  0.00     0.009 A 
HETATM   29  C   UNL     1      43.517 -13.159   6.101  1.00  0.00     0.076 A 
HETATM   30  C   UNL     1      44.038 -14.261   6.785  1.00  0.00     0.040 A 
HETATM   31  C   UNL     1      43.713 -15.554   6.383  1.00  0.00     0.039 A 
HETATM   32  C   UNL     1      42.868 -15.762   5.299  1.00  0.00     0.069 A 
HETATM   33  C   UNL     1      42.331 -14.662   4.627  1.00  0.00     0.048 A 
BRANCH  29  34
HETATM   34  O   UNL     1      43.741 -11.861   6.487  1.00  0.00    -0.355 OA
HETATM   35  C   UNL     1      45.019 -11.577   7.057  1.00  0.00     0.210 C 
ENDBRANCH  29  34
BRANCH  32  36
HETATM   36  O   UNL     1      42.604 -17.072   5.016  1.00  0.00    -0.356 OA
HETATM   37  C   UNL     1      43.494 -18.037   5.565  1.00  0.00     0.210 C 
ENDBRANCH  32  36
ENDBRANCH   3  28
BRANCH   5  38
HETATM   38  O   UNL     1      39.422 -13.746   3.526  1.00  0.00    -0.389 OA
HETATM   39  H   UNL     1      39.939 -13.936   4.332  1.00  0.00     0.210 HD
ENDBRANCH   5  38
TORSDOF 9
ENDMDL
MODEL 7
REMARK VINA RESULT:      -7.3     16.568     18.674
REMARK  9 active torsions:
REMARK  status: ('A' for Active; 'I' for Inactive)
REMARK    1  A    between atoms: C_3  and  C_4 
REMARK    2  A    between atoms: C_4  and  O_5 
REMARK    3  A    between atoms: C_8  and  N_9 
REMARK       I    between atoms: N_9  and  C_10 
REMARK    4  A    between atoms: C_10  and  C_11 
REMARK    5  A    between atoms: C_11  and  N_12 
REMARK    6  A    between atoms: C_14  and  C_15 
REMARK    7  A    between atoms: C_16  and  O_17 
REMARK    8  A    between atoms: C_21  and  O_22 
REMARK    9  A    between atoms: C_26  and  O_27 
ROOT
HETATM    1  N   UNL     1      45.739 -30.499   1.190  1.00  0.00    -0.054 N 
HETATM    2  H   UNL     1      46.509 -30.974   1.681  1.00  0.00     0.281 HD
HETATM    3  C   UNL     1      46.499 -29.479   0.328  1.00  0.00     0.231 C 
HETATM    4  C   UNL     1      45.689 -29.101  -0.948  1.00  0.00     0.055 C 
HETATM    5  C   UNL     1      44.927 -30.233  -1.666  1.00  0.00     0.065 C 
HETATM    6  C   UNL     1      44.151 -31.073  -0.657  1.00  0.00     0.066 C 
HETATM    7  C   UNL     1      45.063 -31.601   0.435  1.00  0.00     0.239 C 
HETATM    8  C   UNL     1      46.480 -28.240  -1.947  1.00  0.00     0.010 C 
HETATM    9  C   UNL     1      45.546 -27.647  -3.005  1.00  0.00     0.001 C 
HETATM   10  C   UNL     1      44.710 -28.714  -3.708  1.00  0.00     0.003 C 
HETATM   11  C   UNL     1      43.975 -29.625  -2.719  1.00  0.00     0.038 C 
ENDROOT
BRANCH   1  12
HETATM   12  C   UNL     1      44.959 -29.904   2.370  1.00  0.00     0.338 C 
BRANCH  12  13
HETATM   13  C   UNL     1      43.913 -30.803   3.019  1.00  0.00     0.248 C 
HETATM   14  N   UNL     1      42.677 -30.199   3.198  1.00  0.00    -0.319 N 
HETATM   15  H   UNL     1      42.630 -29.206   3.387  1.00  0.00     0.169 HD
HETATM   16  O   UNL     1      44.215 -31.929   3.412  1.00  0.00    -0.271 OA
BRANCH  14  17
HETATM   17  C   UNL     1      41.623 -30.939   3.692  1.00  0.00     0.094 C 
HETATM   18  C   UNL     1      40.672 -31.743   3.093  1.00  0.00     0.080 C 
HETATM   19  C   UNL     1      39.889 -32.424   4.124  1.00  0.00    -0.030 C 
HETATM   20  C   UNL     1      38.804 -33.427   3.857  1.00  0.00     0.050 C 
HETATM   21  C   UNL     1      40.247 -32.005   5.402  1.00  0.00    -0.012 C 
HETATM   22  S   UNL     1      41.447 -30.791   5.367  1.00  0.00    -0.076 SA
HETATM   23  C   UNL     1      39.693 -32.453   6.718  1.00  0.00     0.057 C 
BRANCH  18  24
HETATM   24  C   UNL     1      40.483 -31.790   1.633  1.00  0.00     0.296 C 
HETATM   25  O   UNL     1      39.440 -31.452   1.078  1.00  0.00    -0.259 OA
BRANCH  24  26
HETATM   26  O   UNL     1      41.549 -32.322   0.970  1.00  0.00    -0.322 OA
HETATM   27  C   UNL     1      41.682 -33.742   1.067  1.00  0.00     0.213 C 
ENDBRANCH  24  26
ENDBRANCH  18  24
ENDBRANCH  14  17
ENDBRANCH  12  13
ENDBRANCH   1  12
BRANCH   3  28
HETATM   28  C   UNL     1      47.978 -29.865   0.249  1.00  0.00     0.009 A 
HETATM   29  C   UNL     1      48.801 -29.706   1.391  1.00  0.00     0.076 A 
HETATM   30  C   UNL     1      50.141 -30.104   1.360  1.00  0.00     0.040 A 
HETATM   31  C   UNL     1      50.680 -30.663   0.204  1.00  0.00     0.039 A 
HETATM   32  C   UNL     1      49.893 -30.831  -0.929  1.00  0.00     0.069 A 
HETATM   33  C   UNL     1      48.549 -30.451  -0.894  1.00  0.00     0.048 A 
BRANCH  29  34
HETATM   34  O   UNL     1      48.190 -29.213   2.516  1.00  0.00    -0.355 OA
HETATM   35  C   UNL     1      48.501 -29.865   3.748  1.00  0.00     0.210 C 
ENDBRANCH  29  34
BRANCH  32  36
HETATM   36  O   UNL     1      50.527 -31.411  -1.992  1.00  0.00    -0.356 OA
HETATM   37  C   UNL     1      51.861 -30.989  -2.249  1.00  0.00     0.210 C 
ENDBRANCH  32  36
ENDBRANCH   3  28
BRANCH   5  38
HETATM   38  O   UNL     1      45.832 -31.120  -2.316  1.00  0.00    -0.389 OA
HETATM   39  H   UNL     1      46.737 -30.757  -2.283  1.00  0.00     0.210 HD
ENDBRANCH   5  38
TORSDOF 9
ENDMDL
MODEL 8
REMARK VINA RESULT:      -7.3      6.917      9.358
REMARK  9 active torsions:
REMARK  status: ('A' for Active; 'I' for Inactive)
REMARK    1  A    between atoms: C_3  and  C_4 
REMARK    2  A    between atoms: C_4  and  O_5 
REMARK    3  A    between atoms: C_8  and  N_9 
REMARK       I    between atoms: N_9  and  C_10 
REMARK    4  A    between atoms: C_10  and  C_11 
REMARK    5  A    between atoms: C_11  and  N_12 
REMARK    6  A    between atoms: C_14  and  C_15 
REMARK    7  A    between atoms: C_16  and  O_17 
REMARK    8  A    between atoms: C_21  and  O_22 
REMARK    9  A    between atoms: C_26  and  O_27 
ROOT
HETATM    1  N   UNL     1      40.345  -9.269   7.393  1.00  0.00    -0.054 N 
HETATM    2  H   UNL     1      41.236  -9.772   7.285  1.00  0.00     0.281 HD
HETATM    3  C   UNL     1      40.437  -8.775   8.845  1.00  0.00     0.231 C 
HETATM    4  C   UNL     1      39.586  -7.488   9.060  1.00  0.00     0.055 C 
HETATM    5  C   UNL     1      39.594  -6.435   7.934  1.00  0.00     0.065 C 
HETATM    6  C   UNL     1      39.384  -7.106   6.580  1.00  0.00     0.066 C 
HETATM    7  C   UNL     1      40.409  -8.201   6.346  1.00  0.00     0.239 C 
HETATM    8  C   UNL     1      39.795  -6.834  10.436  1.00  0.00     0.010 C 
HETATM    9  C   UNL     1      38.717  -5.782  10.703  1.00  0.00     0.001 C 
HETATM   10  C   UNL     1      38.626  -4.745   9.586  1.00  0.00     0.003 C 
HETATM   11  C   UNL     1      38.492  -5.388   8.202  1.00  0.00     0.038 C 
ENDROOT
BRANCH   1  12
HETATM   12  C   UNL     1      39.336 -10.400   7.152  1.00  0.00     0.338 C 
BRANCH  12  13
HETATM   13  C   UNL     1      39.800 -11.548   6.261  1.00  0.00     0.248 C 
HETATM   14  N   UNL     1      40.218 -11.154   4.999  1.00  0.00    -0.319 N 
HETATM   15  H   UNL     1      39.780 -10.357   4.554  1.00  0.00     0.169 HD
HETATM   16  O   UNL     1      39.706 -12.713   6.645  1.00  0.00    -0.271 OA
BRANCH  14  17
HETATM   17  C   UNL     1      40.745 -12.091   4.133  1.00  0.00     0.094 C 
HETATM   18  C   UNL     1      42.008 -12.630   3.981  1.00  0.00     0.080 C 
HETATM   19  C   UNL     1      41.961 -13.718   3.004  1.00  0.00    -0.030 C 
HETATM   20  C   UNL     1      43.128 -14.581   2.624  1.00  0.00     0.050 C 
HETATM   21  C   UNL     1      40.698 -13.841   2.434  1.00  0.00    -0.012 C 
HETATM   22  S   UNL     1      39.614 -12.655   3.010  1.00  0.00    -0.076 SA
HETATM   23  C   UNL     1      40.233 -14.821   1.403  1.00  0.00     0.057 C 
BRANCH  18  24
HETATM   24  C   UNL     1      43.189 -12.082   4.672  1.00  0.00     0.296 C 
HETATM   25  O   UNL     1      43.899 -11.200   4.195  1.00  0.00    -0.259 OA
BRANCH  24  26
HETATM   26  O   UNL     1      43.461 -12.710   5.851  1.00  0.00    -0.322 OA
HETATM   27  C   UNL     1      44.528 -12.144   6.614  1.00  0.00     0.213 C 
ENDBRANCH  24  26
ENDBRANCH  18  24
ENDBRANCH  14  17
ENDBRANCH  12  13
ENDBRANCH   1  12
BRANCH   3  28
HETATM   28  C   UNL     1      41.885  -8.865   9.333  1.00  0.00     0.009 A 
HETATM   29  C   UNL     1      42.164  -9.486  10.575  1.00  0.00     0.076 A 
HETATM   30  C   UNL     1      43.483  -9.630  11.015  1.00  0.00     0.040 A 
HETATM   31  C   UNL     1      44.539  -9.164  10.234  1.00  0.00     0.039 A 
HETATM   32  C   UNL     1      44.291  -8.553   9.011  1.00  0.00     0.069 A 
HETATM   33  C   UNL     1      42.975  -8.425   8.561  1.00  0.00     0.048 A 
BRANCH  29  34
HETATM   34  O   UNL     1      41.085  -9.983  11.262  1.00  0.00    -0.355 OA
HETATM   35  C   UNL     1      41.062  -9.747  12.670  1.00  0.00     0.210 C 
ENDBRANCH  29  34
BRANCH  32  36
HETATM   36  O   UNL     1      45.406  -8.160   8.326  1.00  0.00    -0.356 OA
HETATM   37  C   UNL     1      46.345  -9.177   7.994  1.00  0.00     0.210 C 
ENDBRANCH  32  36
ENDBRANCH   3  28
BRANCH   5  38
HETATM   38  O   UNL     1      40.854  -5.775   7.866  1.00  0.00    -0.389 OA
HETATM   39  H   UNL     1      41.336  -6.060   7.066  1.00  0.00     0.210 HD
ENDBRANCH   5  38
TORSDOF 9
ENDMDL
MODEL 9
REMARK VINA RESULT:      -7.1     16.578     18.784
REMARK  9 active torsions:
REMARK  status: ('A' for Active; 'I' for Inactive)
REMARK    1  A    between atoms: C_3  and  C_4 
REMARK    2  A    between atoms: C_4  and  O_5 
REMARK    3  A    between atoms: C_8  and  N_9 
REMARK       I    between atoms: N_9  and  C_10 
REMARK    4  A    between atoms: C_10  and  C_11 
REMARK    5  A    between atoms: C_11  and  N_12 
REMARK    6  A    between atoms: C_14  and  C_15 
REMARK    7  A    between atoms: C_16  and  O_17 
REMARK    8  A    between atoms: C_21  and  O_22 
REMARK    9  A    between atoms: C_26  and  O_27 
ROOT
HETATM    1  N   UNL     1      46.196 -29.350  -0.934  1.00  0.00    -0.054 N 
HETATM    2  H   UNL     1      45.928 -29.284   0.057  1.00  0.00     0.281 HD
HETATM    3  C   UNL     1      45.587 -30.702  -1.335  1.00  0.00     0.231 C 
HETATM    4  C   UNL     1      45.269 -30.752  -2.858  1.00  0.00     0.055 C 
HETATM    5  C   UNL     1      44.690 -29.477  -3.504  1.00  0.00     0.065 C 
HETATM    6  C   UNL     1      45.491 -28.253  -3.071  1.00  0.00     0.066 C 
HETATM    7  C   UNL     1      45.556 -28.148  -1.558  1.00  0.00     0.239 C 
HETATM    8  C   UNL     1      44.476 -32.000  -3.283  1.00  0.00     0.010 C 
HETATM    9  C   UNL     1      44.475 -32.145  -4.806  1.00  0.00     0.001 C 
HETATM   10  C   UNL     1      43.976 -30.887  -5.511  1.00  0.00     0.003 C 
HETATM   11  C   UNL     1      44.708 -29.626  -5.041  1.00  0.00     0.038 C 
ENDROOT
BRANCH   1  12
HETATM   12  C   UNL     1      47.727 -29.329  -0.829  1.00  0.00     0.338 C 
BRANCH  12  13
HETATM   13  C   UNL     1      48.336 -30.038   0.376  1.00  0.00     0.248 C 
HETATM   14  N   UNL     1      48.037 -29.446   1.594  1.00  0.00    -0.319 N 
HETATM   15  H   UNL     1      47.918 -28.443   1.646  1.00  0.00     0.169 HD
HETATM   16  O   UNL     1      49.094 -30.994   0.220  1.00  0.00    -0.271 OA
BRANCH  14  17
HETATM   17  C   UNL     1      48.455 -30.047   2.764  1.00  0.00     0.094 C 
HETATM   18  C   UNL     1      47.838 -30.899   3.661  1.00  0.00     0.080 C 
HETATM   19  C   UNL     1      48.816 -31.362   4.645  1.00  0.00    -0.030 C 
HETATM   20  C   UNL     1      48.530 -32.349   5.741  1.00  0.00     0.050 C 
HETATM   21  C   UNL     1      50.052 -30.749   4.468  1.00  0.00    -0.012 C 
HETATM   22  S   UNL     1      50.030 -29.612   3.196  1.00  0.00    -0.076 SA
HETATM   23  C   UNL     1      51.310 -30.945   5.257  1.00  0.00     0.057 C 
BRANCH  18  24
HETATM   24  C   UNL     1      46.393 -31.182   3.615  1.00  0.00     0.296 C 
HETATM   25  O   UNL     1      45.548 -30.330   3.355  1.00  0.00    -0.259 OA
BRANCH  24  26
HETATM   26  O   UNL     1      46.086 -32.462   3.969  1.00  0.00    -0.322 OA
HETATM   27  C   UNL     1      44.941 -32.605   4.814  1.00  0.00     0.213 C 
ENDBRANCH  24  26
ENDBRANCH  18  24
ENDBRANCH  14  17
ENDBRANCH  12  13
ENDBRANCH   1  12
BRANCH   3  28
HETATM   28  C   UNL     1      44.556 -31.137  -0.290  1.00  0.00     0.009 A 
HETATM   29  C   UNL     1      44.642 -32.433   0.276  1.00  0.00     0.076 A 
HETATM   30  C   UNL     1      43.746 -32.833   1.273  1.00  0.00     0.040 A 
HETATM   31  C   UNL     1      42.760 -31.957   1.721  1.00  0.00     0.039 A 
HETATM   32  C   UNL     1      42.656 -30.680   1.183  1.00  0.00     0.069 A 
HETATM   33  C   UNL     1      43.562 -30.273   0.201  1.00  0.00     0.048 A 
BRANCH  29  34
HETATM   34  O   UNL     1      45.678 -33.220  -0.162  1.00  0.00    -0.355 OA
HETATM   35  C   UNL     1      46.237 -34.126   0.790  1.00  0.00     0.210 C 
ENDBRANCH  29  34
BRANCH  32  36
HETATM   36  O   UNL     1      41.666 -29.906   1.720  1.00  0.00    -0.356 OA
HETATM   37  C   UNL     1      41.434 -30.043   3.118  1.00  0.00     0.210 C 
ENDBRANCH  32  36
ENDBRANCH   3  28
BRANCH   5  38
HETATM   38  O   UNL     1      43.351 -29.254  -3.075  1.00  0.00    -0.389 OA
HETATM   39  H   UNL     1      43.036 -30.017  -2.554  1.00  0.00     0.210 HD
ENDBRANCH   5  38
TORSDOF 9
ENDMDL
MODEL 10
REMARK VINA RESULT:      -7.0     16.461     19.322
REMARK  9 active torsions:
REMARK  status: ('A' for Active; 'I' for Inactive)
REMARK    1  A    between atoms: C_3  and  C_4 
REMARK    2  A    between atoms: C_4  and  O_5 
REMARK    3  A    between atoms: C_8  and  N_9 
REMARK       I    between atoms: N_9  and  C_10 
REMARK    4  A    between atoms: C_10  and  C_11 
REMARK    5  A    between atoms: C_11  and  N_12 
REMARK    6  A    between atoms: C_14  and  C_15 
REMARK    7  A    between atoms: C_16  and  O_17 
REMARK    8  A    between atoms: C_21  and  O_22 
REMARK    9  A    between atoms: C_26  and  O_27 
ROOT
HETATM    1  N   UNL     1      47.554 -29.468  -0.213  1.00  0.00    -0.054 N 
HETATM    2  H   UNL     1      47.563 -29.577   0.810  1.00  0.00     0.281 HD
HETATM    3  C   UNL     1      46.465 -30.471  -0.625  1.00  0.00     0.231 C 
HETATM    4  C   UNL     1      45.799 -30.062  -1.972  1.00  0.00     0.055 C 
HETATM    5  C   UNL     1      45.528 -28.562  -2.203  1.00  0.00     0.065 C 
HETATM    6  C   UNL     1      46.759 -27.739  -1.837  1.00  0.00     0.066 C 
HETATM    7  C   UNL     1      47.209 -28.026  -0.417  1.00  0.00     0.239 C 
HETATM    8  C   UNL     1      44.570 -30.912  -2.335  1.00  0.00     0.010 C 
HETATM    9  C   UNL     1      44.163 -30.677  -3.792  1.00  0.00     0.001 C 
HETATM   10  C   UNL     1      43.946 -29.199  -4.104  1.00  0.00     0.003 C 
HETATM   11  C   UNL     1      45.135 -28.331  -3.678  1.00  0.00     0.038 C 
ENDROOT
BRANCH   1  12
HETATM   12  C   UNL     1      48.989 -29.882  -0.567  1.00  0.00     0.338 C 
BRANCH  12  13
HETATM   13  C   UNL     1      49.850 -30.405   0.578  1.00  0.00     0.248 C 
HETATM   14  N   UNL     1      49.126 -30.856   1.672  1.00  0.00    -0.319 N 
HETATM   15  H   UNL     1      48.246 -30.415   1.905  1.00  0.00     0.169 HD
HETATM   16  O   UNL     1      51.076 -30.327   0.524  1.00  0.00    -0.271 OA
BRANCH  14  17
HETATM   17  C   UNL     1      49.789 -31.436   2.735  1.00  0.00     0.094 C 
HETATM   18  C   UNL     1      50.170 -32.735   3.013  1.00  0.00     0.080 C 
HETATM   19  C   UNL     1      51.002 -32.751   4.217  1.00  0.00    -0.030 C 
HETATM   20  C   UNL     1      51.653 -33.975   4.794  1.00  0.00     0.050 C 
HETATM   21  C   UNL     1      51.094 -31.489   4.794  1.00  0.00    -0.012 C 
HETATM   22  S   UNL     1      50.169 -30.328   3.953  1.00  0.00    -0.076 SA
HETATM   23  C   UNL     1      51.844 -31.080   6.024  1.00  0.00     0.057 C 
BRANCH  18  24
HETATM   24  C   UNL     1      49.702 -33.884   2.219  1.00  0.00     0.296 C 
HETATM   25  O   UNL     1      49.093 -34.834   2.704  1.00  0.00    -0.259 OA
BRANCH  24  26
HETATM   26  O   UNL     1      50.083 -33.824   0.912  1.00  0.00    -0.322 OA
HETATM   27  C   UNL     1      51.482 -33.996   0.675  1.00  0.00     0.213 C 
ENDBRANCH  24  26
ENDBRANCH  18  24
ENDBRANCH  14  17
ENDBRANCH  12  13
ENDBRANCH   1  12
BRANCH   3  28
HETATM   28  C   UNL     1      45.626 -30.857   0.596  1.00  0.00     0.009 A 
HETATM   29  C   UNL     1      45.866 -32.094   1.243  1.00  0.00     0.076 A 
HETATM   30  C   UNL     1      45.151 -32.442   2.393  1.00  0.00     0.040 A 
HETATM   31  C   UNL     1      44.195 -31.574   2.915  1.00  0.00     0.039 A 
HETATM   32  C   UNL     1      43.943 -30.354   2.299  1.00  0.00     0.069 A 
HETATM   33  C   UNL     1      44.669 -29.996   1.161  1.00  0.00     0.048 A 
BRANCH  29  34
HETATM   34  O   UNL     1      46.868 -32.870   0.717  1.00  0.00    -0.355 OA
HETATM   35  C   UNL     1      46.481 -34.140   0.190  1.00  0.00     0.210 C 
ENDBRANCH  29  34
BRANCH  32  36
HETATM   36  O   UNL     1      43.001 -29.580   2.916  1.00  0.00    -0.356 OA
HETATM   37  C   UNL     1      41.843 -30.248   3.404  1.00  0.00     0.210 C 
ENDBRANCH  32  36
ENDBRANCH   3  28
BRANCH   5  38
HETATM   38  O   UNL     1      44.473 -28.102  -1.365  1.00  0.00    -0.389 OA
HETATM   39  H   UNL     1      44.254 -27.176  -1.582  1.00  0.00     0.210 HD
ENDBRANCH   5  38
TORSDOF 9
ENDMDL
