MODEL 1
REMARK VINA RESULT:      -9.6      0.000      0.000
REMARK  5 active torsions:
REMARK  status: ('A' for Active; 'I' for Inactive)
REMARK    1  A    between atoms: C_3  and  O_4 
REMARK    2  A    between atoms: C_8  and  C_9 
REMARK       I    between atoms: N_10  and  C_11 
REMARK    3  A    between atoms: C_11  and  C_12 
REMARK    4  A    between atoms: C_12  and  C_13 
REMARK    5  A    between atoms: C_13  and  C_14 
ROOT
HETATM    1  C   UNL     1      40.763 -14.899   3.314  1.00  0.00     0.171 C 
HETATM    2  N   UNL     1      41.105 -13.682   4.092  1.00  0.00    -0.338 N 
HETATM    3  C   UNL     1      42.393 -13.143   3.967  1.00  0.00     0.221 C 
HETATM    4  O   UNL     1      43.335 -13.760   3.469  1.00  0.00    -0.273 OA
HETATM    5  C   UNL     1      39.935 -12.796   4.266  1.00  0.00     0.131 C 
HETATM    6  C   UNL     1      39.510 -12.160   2.917  1.00  0.00     0.061 C 
HETATM    7  C   UNL     1      39.664 -13.146   1.797  1.00  0.00    -0.019 A 
HETATM    8  C   UNL     1      40.258 -14.387   1.985  1.00  0.00     0.044 A 
HETATM    9  N   UNL     1      40.223 -15.052   0.792  1.00  0.00    -0.356 N 
HETATM   10  H   UNL     1      40.553 -15.994   0.631  1.00  0.00     0.166 HD
HETATM   11  C   UNL     1      39.718 -14.224  -0.191  1.00  0.00     0.043 A 
HETATM   12  C   UNL     1      39.343 -13.024   0.420  1.00  0.00    -0.001 A 
HETATM   13  C   UNL     1      39.565 -14.446  -1.565  1.00  0.00     0.030 A 
HETATM   14  C   UNL     1      39.011 -13.415  -2.332  1.00  0.00     0.002 A 
HETATM   15  C   UNL     1      38.621 -12.213  -1.746  1.00  0.00     0.001 A 
HETATM   16  C   UNL     1      38.779 -12.005  -0.372  1.00  0.00     0.014 A 
ENDROOT
BRANCH   1  17
HETATM   17  C   UNL     1      41.728 -16.072   3.365  1.00  0.00    -0.029 A 
HETATM   18  C   UNL     1      42.272 -16.688   2.230  1.00  0.00     0.012 A 
HETATM   19  C   UNL     1      43.143 -17.779   2.345  1.00  0.00     0.038 A 
HETATM   20  C   UNL     1      43.502 -18.268   3.601  1.00  0.00     0.074 A 
HETATM   21  C   UNL     1      43.019 -17.636   4.755  1.00  0.00    -0.028 A 
HETATM   22  C   UNL     1      43.463 -18.079   6.121  1.00  0.00     0.051 C 
HETATM   23  C   UNL     1      42.138 -16.550   4.625  1.00  0.00     0.019 A 
BRANCH  20  24
HETATM   24  O   UNL     1      44.362 -19.318   3.799  1.00  0.00    -0.355 OA
HETATM   25  C   UNL     1      43.888 -20.591   3.375  1.00  0.00     0.210 C 
ENDBRANCH  20  24
ENDBRANCH   1  17
BRANCH   3  26
HETATM   26  C   UNL     1      42.640 -11.749   4.541  1.00  0.00     0.108 C 
BRANCH  26  27
HETATM   27  C   UNL     1      44.124 -11.494   4.829  1.00  0.00     0.051 C 
BRANCH  27  28
HETATM   28  C   UNL     1      44.410 -11.241   6.277  1.00  0.00    -0.021 A 
HETATM   29  C   UNL     1      43.525 -10.948   7.297  1.00  0.00     0.120 A 
HETATM   30  N   UNL     1      44.268 -10.812   8.432  1.00  0.00    -0.285 N 
HETATM   31  C   UNL     1      43.778 -10.517   9.755  1.00  0.00     0.179 C 
HETATM   32  N   UNL     1      45.586 -10.982   8.228  1.00  0.00    -0.185 NA
HETATM   33  C   UNL     1      45.672 -11.226   6.918  1.00  0.00     0.147 A 
ENDBRANCH  27  28
ENDBRANCH  26  27
ENDBRANCH   3  26
TORSDOF 5
ENDMDL
MODEL 2
REMARK VINA RESULT:      -9.5      1.441      2.092
REMARK  5 active torsions:
REMARK  status: ('A' for Active; 'I' for Inactive)
REMARK    1  A    between atoms: C_3  and  O_4 
REMARK    2  A    between atoms: C_8  and  C_9 
REMARK       I    between atoms: N_10  and  C_11 
REMARK    3  A    between atoms: C_11  and  C_12 
REMARK    4  A    between atoms: C_12  and  C_13 
REMARK    5  A    between atoms: C_13  and  C_14 
ROOT
HETATM    1  C   UNL     1      41.001 -15.091   5.016  1.00  0.00     0.171 C 
HETATM    2  N   UNL     1      41.326 -13.898   5.838  1.00  0.00    -0.338 N 
HETATM    3  C   UNL     1      42.620 -13.364   5.768  1.00  0.00     0.221 C 
HETATM    4  O   UNL     1      43.574 -13.974   5.283  1.00  0.00    -0.273 OA
HETATM    5  C   UNL     1      40.156 -13.009   6.000  1.00  0.00     0.131 C 
HETATM    6  C   UNL     1      39.777 -12.333   4.656  1.00  0.00     0.061 C 
HETATM    7  C   UNL     1      39.960 -13.289   3.515  1.00  0.00    -0.019 A 
HETATM    8  C   UNL     1      40.541 -14.538   3.687  1.00  0.00     0.044 A 
HETATM    9  N   UNL     1      40.539 -15.170   2.475  1.00  0.00    -0.356 N 
HETATM   10  H   UNL     1      40.870 -16.110   2.299  1.00  0.00     0.166 HD
HETATM   11  C   UNL     1      40.070 -14.312   1.500  1.00  0.00     0.043 A 
HETATM   12  C   UNL     1      39.683 -13.127   2.133  1.00  0.00    -0.001 A 
HETATM   13  C   UNL     1      39.959 -14.495   0.117  1.00  0.00     0.030 A 
HETATM   14  C   UNL     1      39.436 -13.439  -0.638  1.00  0.00     0.002 A 
HETATM   15  C   UNL     1      39.034 -12.251  -0.032  1.00  0.00     0.001 A 
HETATM   16  C   UNL     1      39.151 -12.082   1.352  1.00  0.00     0.014 A 
ENDROOT
BRANCH   1  17
HETATM   17  C   UNL     1      41.957 -16.271   5.064  1.00  0.00    -0.029 A 
HETATM   18  C   UNL     1      42.360 -16.904   6.248  1.00  0.00     0.012 A 
HETATM   19  C   UNL     1      43.260 -17.976   6.226  1.00  0.00     0.038 A 
HETATM   20  C   UNL     1      43.766 -18.451   5.015  1.00  0.00     0.074 A 
HETATM   21  C   UNL     1      43.337 -17.875   3.811  1.00  0.00    -0.028 A 
HETATM   22  C   UNL     1      43.790 -18.425   2.488  1.00  0.00     0.051 C 
HETATM   23  C   UNL     1      42.442 -16.793   3.849  1.00  0.00     0.019 A 
BRANCH  20  24
HETATM   24  O   UNL     1      44.636 -19.506   4.907  1.00  0.00    -0.355 OA
HETATM   25  C   UNL     1      44.152 -20.755   5.387  1.00  0.00     0.210 C 
ENDBRANCH  20  24
ENDBRANCH   1  17
BRANCH   3  26
HETATM   26  C   UNL     1      42.856 -11.988   6.388  1.00  0.00     0.108 C 
BRANCH  26  27
HETATM   27  C   UNL     1      44.306 -11.801   6.852  1.00  0.00     0.051 C 
BRANCH  27  28
HETATM   28  C   UNL     1      44.555 -10.471   7.491  1.00  0.00    -0.021 A 
HETATM   29  C   UNL     1      43.639  -9.531   7.922  1.00  0.00     0.120 A 
HETATM   30  N   UNL     1      44.357  -8.493   8.439  1.00  0.00    -0.285 N 
HETATM   31  C   UNL     1      43.830  -7.285   9.022  1.00  0.00     0.179 C 
HETATM   32  N   UNL     1      45.686  -8.678   8.366  1.00  0.00    -0.185 NA
HETATM   33  C   UNL     1      45.805  -9.871   7.777  1.00  0.00     0.147 A 
ENDBRANCH  27  28
ENDBRANCH  26  27
ENDBRANCH   3  26
TORSDOF 5
ENDMDL
MODEL 3
REMARK VINA RESULT:      -9.5      2.448      7.857
REMARK  5 active torsions:
REMARK  status: ('A' for Active; 'I' for Inactive)
REMARK    1  A    between atoms: C_3  and  O_4 
REMARK    2  A    between atoms: C_8  and  C_9 
REMARK       I    between atoms: N_10  and  C_11 
REMARK    3  A    between atoms: C_11  and  C_12 
REMARK    4  A    between atoms: C_12  and  C_13 
REMARK    5  A    between atoms: C_13  and  C_14 
ROOT
HETATM    1  C   UNL     1      41.112 -13.894   4.171  1.00  0.00     0.171 C 
HETATM    2  N   UNL     1      40.666 -13.535   2.801  1.00  0.00    -0.338 N 
HETATM    3  C   UNL     1      41.520 -12.770   1.994  1.00  0.00     0.221 C 
HETATM    4  O   UNL     1      42.489 -12.153   2.436  1.00  0.00    -0.273 OA
HETATM    5  C   UNL     1      39.818 -14.590   2.207  1.00  0.00     0.131 C 
HETATM    6  C   UNL     1      40.643 -15.870   1.911  1.00  0.00     0.061 C 
HETATM    7  C   UNL     1      41.654 -16.108   2.994  1.00  0.00    -0.019 A 
HETATM    8  C   UNL     1      41.875 -15.187   4.009  1.00  0.00     0.044 A 
HETATM    9  N   UNL     1      42.828 -15.706   4.842  1.00  0.00    -0.356 N 
HETATM   10  H   UNL     1      43.170 -15.273   5.690  1.00  0.00     0.166 HD
HETATM   11  C   UNL     1      43.307 -16.893   4.323  1.00  0.00     0.043 A 
HETATM   12  C   UNL     1      42.571 -17.176   3.169  1.00  0.00    -0.001 A 
HETATM   13  C   UNL     1      44.328 -17.731   4.787  1.00  0.00     0.030 A 
HETATM   14  C   UNL     1      44.600 -18.890   4.053  1.00  0.00     0.002 A 
HETATM   15  C   UNL     1      43.876 -19.201   2.904  1.00  0.00     0.001 A 
HETATM   16  C   UNL     1      42.858 -18.354   2.452  1.00  0.00     0.014 A 
ENDROOT
BRANCH   1  17
HETATM   17  C   UNL     1      41.663 -12.786   5.054  1.00  0.00    -0.029 A 
HETATM   18  C   UNL     1      40.900 -11.709   5.525  1.00  0.00     0.012 A 
HETATM   19  C   UNL     1      41.473 -10.709   6.321  1.00  0.00     0.038 A 
HETATM   20  C   UNL     1      42.820 -10.773   6.678  1.00  0.00     0.074 A 
HETATM   21  C   UNL     1      43.594 -11.869   6.269  1.00  0.00    -0.028 A 
HETATM   22  C   UNL     1      45.021 -12.015   6.715  1.00  0.00     0.051 C 
HETATM   23  C   UNL     1      43.009 -12.859   5.462  1.00  0.00     0.019 A 
BRANCH  20  24
HETATM   24  O   UNL     1      43.451  -9.846   7.467  1.00  0.00    -0.355 OA
HETATM   25  C   UNL     1      42.851  -9.604   8.734  1.00  0.00     0.210 C 
ENDBRANCH  20  24
ENDBRANCH   1  17
BRANCH   3  26
HETATM   26  C   UNL     1      41.178 -12.652   0.510  1.00  0.00     0.108 C 
BRANCH  26  27
HETATM   27  C   UNL     1      39.838 -11.944   0.277  1.00  0.00     0.051 C 
BRANCH  27  28
HETATM   28  C   UNL     1      39.037 -12.547  -0.835  1.00  0.00    -0.021 A 
HETATM   29  C   UNL     1      39.350 -13.619  -1.647  1.00  0.00     0.120 A 
HETATM   30  N   UNL     1      38.299 -13.786  -2.499  1.00  0.00    -0.285 N 
HETATM   31  C   UNL     1      38.167 -14.792  -3.523  1.00  0.00     0.179 C 
HETATM   32  N   UNL     1      37.317 -12.886  -2.314  1.00  0.00    -0.185 NA
HETATM   33  C   UNL     1      37.773 -12.126  -1.314  1.00  0.00     0.147 A 
ENDBRANCH  27  28
ENDBRANCH  26  27
ENDBRANCH   3  26
TORSDOF 5
ENDMDL
MODEL 4
REMARK VINA RESULT:      -9.4      2.664      6.374
REMARK  5 active torsions:
REMARK  status: ('A' for Active; 'I' for Inactive)
REMARK    1  A    between atoms: C_3  and  O_4 
REMARK    2  A    between atoms: C_8  and  C_9 
REMARK       I    between atoms: N_10  and  C_11 
REMARK    3  A    between atoms: C_11  and  C_12 
REMARK    4  A    between atoms: C_12  and  C_13 
REMARK    5  A    between atoms: C_13  and  C_14 
ROOT
HETATM    1  C   UNL     1      42.457 -14.588   2.636  1.00  0.00     0.171 C 
HETATM    2  N   UNL     1      42.089 -14.036   3.965  1.00  0.00    -0.338 N 
HETATM    3  C   UNL     1      40.764 -14.166   4.404  1.00  0.00     0.221 C 
HETATM    4  O   UNL     1      39.833 -14.462   3.654  1.00  0.00    -0.273 OA
HETATM    5  C   UNL     1      43.210 -14.127   4.924  1.00  0.00     0.131 C 
HETATM    6  C   UNL     1      43.506 -15.603   5.301  1.00  0.00     0.061 C 
HETATM    7  C   UNL     1      43.343 -16.495   4.106  1.00  0.00    -0.019 A 
HETATM    8  C   UNL     1      42.841 -16.025   2.900  1.00  0.00     0.044 A 
HETATM    9  N   UNL     1      42.841 -17.067   2.014  1.00  0.00    -0.356 N 
HETATM   10  H   UNL     1      42.561 -17.016   1.043  1.00  0.00     0.166 HD
HETATM   11  C   UNL     1      43.228 -18.227   2.655  1.00  0.00     0.043 A 
HETATM   12  C   UNL     1      43.565 -17.889   3.969  1.00  0.00    -0.001 A 
HETATM   13  C   UNL     1      43.305 -19.539   2.174  1.00  0.00     0.030 A 
HETATM   14  C   UNL     1      43.742 -20.531   3.059  1.00  0.00     0.002 A 
HETATM   15  C   UNL     1      44.092 -20.220   4.371  1.00  0.00     0.001 A 
HETATM   16  C   UNL     1      44.010 -18.904   4.839  1.00  0.00     0.014 A 
ENDROOT
BRANCH   1  17
HETATM   17  C   UNL     1      41.573 -14.238   1.450  1.00  0.00    -0.029 A 
HETATM   18  C   UNL     1      40.728 -15.152   0.807  1.00  0.00     0.012 A 
HETATM   19  C   UNL     1      39.951 -14.769  -0.294  1.00  0.00     0.038 A 
HETATM   20  C   UNL     1      39.992 -13.457  -0.767  1.00  0.00     0.074 A 
HETATM   21  C   UNL     1      40.786 -12.507  -0.109  1.00  0.00    -0.028 A 
HETATM   22  C   UNL     1      40.778 -11.066  -0.536  1.00  0.00     0.051 C 
HETATM   23  C   UNL     1      41.567 -12.907   0.988  1.00  0.00     0.019 A 
BRANCH  20  24
HETATM   24  O   UNL     1      39.251 -12.999  -1.827  1.00  0.00    -0.355 OA
HETATM   25  C   UNL     1      38.960 -13.959  -2.835  1.00  0.00     0.210 C 
ENDBRANCH  20  24
ENDBRANCH   1  17
BRANCH   3  26
HETATM   26  C   UNL     1      40.468 -13.856   5.870  1.00  0.00     0.108 C 
BRANCH  26  27
HETATM   27  C   UNL     1      39.695 -12.542   6.040  1.00  0.00     0.051 C 
BRANCH  27  28
HETATM   28  C   UNL     1      40.300 -11.399   5.286  1.00  0.00    -0.021 A 
HETATM   29  C   UNL     1      39.812 -10.738   4.176  1.00  0.00     0.120 A 
HETATM   30  N   UNL     1      40.720  -9.768   3.868  1.00  0.00    -0.285 N 
HETATM   31  C   UNL     1      40.634  -8.815   2.789  1.00  0.00     0.179 C 
HETATM   32  N   UNL     1      41.782  -9.753   4.691  1.00  0.00    -0.185 NA
HETATM   33  C   UNL     1      41.534 -10.753   5.542  1.00  0.00     0.147 A 
ENDBRANCH  27  28
ENDBRANCH  26  27
ENDBRANCH   3  26
TORSDOF 5
ENDMDL
MODEL 5
REMARK VINA RESULT:      -9.4      2.857      6.410
REMARK  5 active torsions:
REMARK  status: ('A' for Active; 'I' for Inactive)
REMARK    1  A    between atoms: C_3  and  O_4 
REMARK    2  A    between atoms: C_8  and  C_9 
REMARK       I    between atoms: N_10  and  C_11 
REMARK    3  A    between atoms: C_11  and  C_12 
REMARK    4  A    between atoms: C_12  and  C_13 
REMARK    5  A    between atoms: C_13  and  C_14 
ROOT
HETATM    1  C   UNL     1      41.953 -13.575   1.381  1.00  0.00     0.171 C 
HETATM    2  N   UNL     1      41.648 -12.680   2.526  1.00  0.00    -0.338 N 
HETATM    3  C   UNL     1      40.374 -12.742   3.108  1.00  0.00     0.221 C 
HETATM    4  O   UNL     1      39.413 -13.288   2.565  1.00  0.00    -0.273 OA
HETATM    5  C   UNL     1      42.842 -12.433   3.362  1.00  0.00     0.131 C 
HETATM    6  C   UNL     1      43.275 -13.719   4.113  1.00  0.00     0.061 C 
HETATM    7  C   UNL     1      43.088 -14.927   3.243  1.00  0.00    -0.019 A 
HETATM    8  C   UNL     1      42.462 -14.853   2.006  1.00  0.00     0.044 A 
HETATM    9  N   UNL     1      42.473 -16.105   1.458  1.00  0.00    -0.356 N 
HETATM   10  H   UNL     1      42.116 -16.352   0.544  1.00  0.00     0.166 HD
HETATM   11  C   UNL     1      42.993 -17.009   2.363  1.00  0.00     0.043 A 
HETATM   12  C   UNL     1      43.403 -16.288   3.489  1.00  0.00    -0.001 A 
HETATM   13  C   UNL     1      43.130 -18.399   2.270  1.00  0.00     0.030 A 
HETATM   14  C   UNL     1      43.706 -19.068   3.356  1.00  0.00     0.002 A 
HETATM   15  C   UNL     1      44.132 -18.373   4.486  1.00  0.00     0.001 A 
HETATM   16  C   UNL     1      43.988 -16.984   4.565  1.00  0.00     0.014 A 
ENDROOT
BRANCH   1  17
HETATM   17  C   UNL     1      40.958 -13.628   0.233  1.00  0.00    -0.029 A 
HETATM   18  C   UNL     1      40.183 -14.753  -0.079  1.00  0.00     0.012 A 
HETATM   19  C   UNL     1      39.296 -14.743  -1.163  1.00  0.00     0.038 A 
HETATM   20  C   UNL     1      39.153 -13.600  -1.950  1.00  0.00     0.074 A 
HETATM   21  C   UNL     1      39.873 -12.441  -1.626  1.00  0.00    -0.028 A 
HETATM   22  C   UNL     1      39.670 -11.167  -2.397  1.00  0.00     0.051 C 
HETATM   23  C   UNL     1      40.766 -12.469  -0.543  1.00  0.00     0.019 A 
BRANCH  20  24
HETATM   24  O   UNL     1      38.295 -13.503  -3.015  1.00  0.00    -0.355 OA
HETATM   25  C   UNL     1      38.058 -14.712  -3.727  1.00  0.00     0.210 C 
ENDBRANCH  20  24
ENDBRANCH   1  17
BRANCH   3  26
HETATM   26  C   UNL     1      40.168 -12.035   4.445  1.00  0.00     0.108 C 
BRANCH  26  27
HETATM   27  C   UNL     1      39.445 -12.922   5.467  1.00  0.00     0.051 C 
BRANCH  27  28
HETATM   28  C   UNL     1      40.318 -13.995   6.040  1.00  0.00    -0.021 A 
HETATM   29  C   UNL     1      41.503 -13.867   6.739  1.00  0.00     0.120 A 
HETATM   30  N   UNL     1      41.909 -15.130   7.053  1.00  0.00    -0.285 N 
HETATM   31  C   UNL     1      43.091 -15.498   7.792  1.00  0.00     0.179 C 
HETATM   32  N   UNL     1      41.080 -16.085   6.596  1.00  0.00    -0.185 NA
HETATM   33  C   UNL     1      40.124 -15.395   5.968  1.00  0.00     0.147 A 
ENDBRANCH  27  28
ENDBRANCH  26  27
ENDBRANCH   3  26
TORSDOF 5
ENDMDL
MODEL 6
REMARK VINA RESULT:      -9.2      2.497      6.169
REMARK  5 active torsions:
REMARK  status: ('A' for Active; 'I' for Inactive)
REMARK    1  A    between atoms: C_3  and  O_4 
REMARK    2  A    between atoms: C_8  and  C_9 
REMARK       I    between atoms: N_10  and  C_11 
REMARK    3  A    between atoms: C_11  and  C_12 
REMARK    4  A    between atoms: C_12  and  C_13 
REMARK    5  A    between atoms: C_13  and  C_14 
ROOT
HETATM    1  C   UNL     1      42.087 -13.987   2.200  1.00  0.00     0.171 C 
HETATM    2  N   UNL     1      41.644 -13.346   3.464  1.00  0.00    -0.338 N 
HETATM    3  C   UNL     1      40.324 -13.543   3.892  1.00  0.00     0.221 C 
HETATM    4  O   UNL     1      39.437 -13.981   3.158  1.00  0.00    -0.273 OA
HETATM    5  C   UNL     1      42.745 -13.256   4.447  1.00  0.00     0.131 C 
HETATM    6  C   UNL     1      43.148 -14.662   4.965  1.00  0.00     0.061 C 
HETATM    7  C   UNL     1      43.086 -15.671   3.857  1.00  0.00    -0.019 A 
HETATM    8  C   UNL     1      42.577 -15.357   2.604  1.00  0.00     0.044 A 
HETATM    9  N   UNL     1      42.682 -16.472   1.819  1.00  0.00    -0.356 N 
HETATM   10  H   UNL     1      42.422 -16.534   0.844  1.00  0.00     0.166 HD
HETATM   11  C   UNL     1      43.145 -17.532   2.573  1.00  0.00     0.043 A 
HETATM   12  C   UNL     1      43.422 -17.049   3.855  1.00  0.00    -0.001 A 
HETATM   13  C   UNL     1      43.338 -18.873   2.218  1.00  0.00     0.030 A 
HETATM   14  C   UNL     1      43.830 -19.740   3.200  1.00  0.00     0.002 A 
HETATM   15  C   UNL     1      44.123 -19.282   4.482  1.00  0.00     0.001 A 
HETATM   16  C   UNL     1      43.925 -17.940   4.823  1.00  0.00     0.014 A 
ENDROOT
BRANCH   1  17
HETATM   17  C   UNL     1      41.207 -13.820   0.971  1.00  0.00    -0.029 A 
HETATM   18  C   UNL     1      40.452 -14.855   0.403  1.00  0.00     0.012 A 
HETATM   19  C   UNL     1      39.675 -14.640  -0.742  1.00  0.00     0.038 A 
HETATM   20  C   UNL     1      39.622 -13.378  -1.335  1.00  0.00     0.074 A 
HETATM   21  C   UNL     1      40.321 -12.311  -0.755  1.00  0.00    -0.028 A 
HETATM   22  C   UNL     1      40.209 -10.921  -1.316  1.00  0.00     0.051 C 
HETATM   23  C   UNL     1      41.105 -12.543   0.387  1.00  0.00     0.019 A 
BRANCH  20  24
HETATM   24  O   UNL     1      38.873 -13.082  -2.445  1.00  0.00    -0.355 OA
HETATM   25  C   UNL     1      38.456 -14.198  -3.223  1.00  0.00     0.210 C 
ENDBRANCH  20  24
ENDBRANCH   1  17
BRANCH   3  26
HETATM   26  C   UNL     1      39.968 -13.124   5.317  1.00  0.00     0.108 C 
BRANCH  26  27
HETATM   27  C   UNL     1      39.337 -11.727   5.372  1.00  0.00     0.051 C 
BRANCH  27  28
HETATM   28  C   UNL     1      39.953 -10.840   6.409  1.00  0.00    -0.021 A 
HETATM   29  C   UNL     1      39.355 -10.228   7.492  1.00  0.00     0.120 A 
HETATM   30  N   UNL     1      40.334  -9.534   8.139  1.00  0.00    -0.285 N 
HETATM   31  C   UNL     1      40.187  -8.746   9.337  1.00  0.00     0.179 C 
HETATM   32  N   UNL     1      41.537  -9.635   7.548  1.00  0.00    -0.185 NA
HETATM   33  C   UNL     1      41.301 -10.415   6.489  1.00  0.00     0.147 A 
ENDBRANCH  27  28
ENDBRANCH  26  27
ENDBRANCH   3  26
TORSDOF 5
ENDMDL
MODEL 7
REMARK VINA RESULT:      -9.0      2.510      7.527
REMARK  5 active torsions:
REMARK  status: ('A' for Active; 'I' for Inactive)
REMARK    1  A    between atoms: C_3  and  O_4 
REMARK    2  A    between atoms: C_8  and  C_9 
REMARK       I    between atoms: N_10  and  C_11 
REMARK    3  A    between atoms: C_11  and  C_12 
REMARK    4  A    between atoms: C_12  and  C_13 
REMARK    5  A    between atoms: C_13  and  C_14 
ROOT
HETATM    1  C   UNL     1      41.674 -13.262   5.045  1.00  0.00     0.171 C 
HETATM    2  N   UNL     1      41.018 -12.615   3.880  1.00  0.00    -0.338 N 
HETATM    3  C   UNL     1      41.803 -11.854   3.003  1.00  0.00     0.221 C 
HETATM    4  O   UNL     1      42.937 -11.463   3.281  1.00  0.00    -0.273 OA
HETATM    5  C   UNL     1      39.891 -13.424   3.368  1.00  0.00     0.131 C 
HETATM    6  C   UNL     1      40.395 -14.738   2.718  1.00  0.00     0.061 C 
HETATM    7  C   UNL     1      41.554 -15.298   3.489  1.00  0.00    -0.019 A 
HETATM    8  C   UNL     1      42.145 -14.604   4.536  1.00  0.00     0.044 A 
HETATM    9  N   UNL     1      43.146 -15.385   5.042  1.00  0.00    -0.356 N 
HETATM   10  H   UNL     1      43.730 -15.155   5.835  1.00  0.00     0.166 HD
HETATM   11  C   UNL     1      43.287 -16.523   4.272  1.00  0.00     0.043 A 
HETATM   12  C   UNL     1      42.285 -16.498   3.298  1.00  0.00    -0.001 A 
HETATM   13  C   UNL     1      44.219 -17.563   4.366  1.00  0.00     0.030 A 
HETATM   14  C   UNL     1      44.120 -18.608   3.439  1.00  0.00     0.002 A 
HETATM   15  C   UNL     1      43.126 -18.613   2.464  1.00  0.00     0.001 A 
HETATM   16  C   UNL     1      42.201 -17.566   2.383  1.00  0.00     0.014 A 
ENDROOT
BRANCH   1  17
HETATM   17  C   UNL     1      42.586 -12.409   5.912  1.00  0.00    -0.029 A 
HETATM   18  C   UNL     1      43.919 -12.732   6.199  1.00  0.00     0.012 A 
HETATM   19  C   UNL     1      44.702 -11.912   7.022  1.00  0.00     0.038 A 
HETATM   20  C   UNL     1      44.171 -10.740   7.563  1.00  0.00     0.074 A 
HETATM   21  C   UNL     1      42.859 -10.362   7.246  1.00  0.00    -0.028 A 
HETATM   22  C   UNL     1      42.292  -9.059   7.736  1.00  0.00     0.051 C 
HETATM   23  C   UNL     1      42.082 -11.199   6.429  1.00  0.00     0.019 A 
BRANCH  20  24
HETATM   24  O   UNL     1      44.876  -9.875   8.361  1.00  0.00    -0.355 OA
HETATM   25  C   UNL     1      46.156  -9.490   7.874  1.00  0.00     0.210 C 
ENDBRANCH  20  24
ENDBRANCH   1  17
BRANCH   3  26
HETATM   26  C   UNL     1      41.180 -11.438   1.671  1.00  0.00     0.108 C 
BRANCH  26  27
HETATM   27  C   UNL     1      41.654 -12.319   0.508  1.00  0.00     0.051 C 
BRANCH  27  28
HETATM   28  C   UNL     1      40.660 -12.410  -0.607  1.00  0.00    -0.021 A 
HETATM   29  C   UNL     1      39.388 -12.949  -0.594  1.00  0.00     0.120 A 
HETATM   30  N   UNL     1      38.880 -12.785  -1.848  1.00  0.00    -0.285 N 
HETATM   31  C   UNL     1      37.574 -13.182  -2.310  1.00  0.00     0.179 C 
HETATM   32  N   UNL     1      39.737 -12.186  -2.694  1.00  0.00    -0.185 NA
HETATM   33  C   UNL     1      40.821 -11.973  -1.944  1.00  0.00     0.147 A 
ENDBRANCH  27  28
ENDBRANCH  26  27
ENDBRANCH   3  26
TORSDOF 5
ENDMDL
MODEL 8
REMARK VINA RESULT:      -8.9      1.984      6.887
REMARK  5 active torsions:
REMARK  status: ('A' for Active; 'I' for Inactive)
REMARK    1  A    between atoms: C_3  and  O_4 
REMARK    2  A    between atoms: C_8  and  C_9 
REMARK       I    between atoms: N_10  and  C_11 
REMARK    3  A    between atoms: C_11  and  C_12 
REMARK    4  A    between atoms: C_12  and  C_13 
REMARK    5  A    between atoms: C_13  and  C_14 
ROOT
HETATM    1  C   UNL     1      43.174 -14.902   2.856  1.00  0.00     0.171 C 
HETATM    2  N   UNL     1      42.070 -14.686   1.886  1.00  0.00    -0.338 N 
HETATM    3  C   UNL     1      40.805 -15.216   2.177  1.00  0.00     0.221 C 
HETATM    4  O   UNL     1      40.617 -16.072   3.041  1.00  0.00    -0.273 OA
HETATM    5  C   UNL     1      42.198 -13.387   1.192  1.00  0.00     0.131 C 
HETATM    6  C   UNL     1      41.955 -12.206   2.168  1.00  0.00     0.061 C 
HETATM    7  C   UNL     1      42.542 -12.505   3.516  1.00  0.00    -0.019 A 
HETATM    8  C   UNL     1      43.076 -13.748   3.826  1.00  0.00     0.044 A 
HETATM    9  N   UNL     1      43.548 -13.692   5.108  1.00  0.00    -0.356 N 
HETATM   10  H   UNL     1      44.023 -14.440   5.595  1.00  0.00     0.166 HD
HETATM   11  C   UNL     1      43.230 -12.472   5.670  1.00  0.00     0.043 A 
HETATM   12  C   UNL     1      42.611 -11.701   4.682  1.00  0.00    -0.001 A 
HETATM   13  C   UNL     1      43.443 -11.997   6.970  1.00  0.00     0.030 A 
HETATM   14  C   UNL     1      43.015 -10.698   7.265  1.00  0.00     0.002 A 
HETATM   15  C   UNL     1      42.404  -9.905   6.296  1.00  0.00     0.001 A 
HETATM   16  C   UNL     1      42.197 -10.393   5.001  1.00  0.00     0.014 A 
ENDROOT
BRANCH   1  17
HETATM   17  C   UNL     1      43.405 -16.315   3.367  1.00  0.00    -0.029 A 
HETATM   18  C   UNL     1      43.577 -16.639   4.720  1.00  0.00     0.012 A 
HETATM   19  C   UNL     1      43.806 -17.960   5.124  1.00  0.00     0.038 A 
HETATM   20  C   UNL     1      43.851 -18.991   4.184  1.00  0.00     0.074 A 
HETATM   21  C   UNL     1      43.625 -18.704   2.831  1.00  0.00    -0.028 A 
HETATM   22  C   UNL     1      43.574 -19.804   1.808  1.00  0.00     0.051 C 
HETATM   23  C   UNL     1      43.408 -17.373   2.438  1.00  0.00     0.019 A 
BRANCH  20  24
HETATM   24  O   UNL     1      44.051 -20.310   4.500  1.00  0.00    -0.355 OA
HETATM   25  C   UNL     1      43.803 -20.664   5.856  1.00  0.00     0.210 C 
ENDBRANCH  20  24
ENDBRANCH   1  17
BRANCH   3  26
HETATM   26  C   UNL     1      39.626 -14.749   1.325  1.00  0.00     0.108 C 
BRANCH  26  27
HETATM   27  C   UNL     1      39.605 -15.419  -0.055  1.00  0.00     0.051 C 
BRANCH  27  28
HETATM   28  C   UNL     1      39.411 -14.449  -1.179  1.00  0.00    -0.021 A 
HETATM   29  C   UNL     1      39.318 -13.072  -1.130  1.00  0.00     0.120 A 
HETATM   30  N   UNL     1      39.152 -12.645  -2.414  1.00  0.00    -0.285 N 
HETATM   31  C   UNL     1      39.021 -11.280  -2.860  1.00  0.00     0.179 C 
HETATM   32  N   UNL     1      39.115 -13.648  -3.307  1.00  0.00    -0.185 NA
HETATM   33  C   UNL     1      39.256 -14.743  -2.555  1.00  0.00     0.147 A 
ENDBRANCH  27  28
ENDBRANCH  26  27
ENDBRANCH   3  26
TORSDOF 5
ENDMDL
MODEL 9
REMARK VINA RESULT:      -8.8      2.955      6.640
REMARK  5 active torsions:
REMARK  status: ('A' for Active; 'I' for Inactive)
REMARK    1  A    between atoms: C_3  and  O_4 
REMARK    2  A    between atoms: C_8  and  C_9 
REMARK       I    between atoms: N_10  and  C_11 
REMARK    3  A    between atoms: C_11  and  C_12 
REMARK    4  A    between atoms: C_12  and  C_13 
REMARK    5  A    between atoms: C_13  and  C_14 
ROOT
HETATM    1  C   UNL     1      41.871 -13.293   4.930  1.00  0.00     0.171 C 
HETATM    2  N   UNL     1      41.332 -12.679   3.690  1.00  0.00    -0.338 N 
HETATM    3  C   UNL     1      42.206 -11.965   2.857  1.00  0.00     0.221 C 
HETATM    4  O   UNL     1      43.320 -11.587   3.219  1.00  0.00    -0.273 OA
HETATM    5  C   UNL     1      40.235 -13.484   3.112  1.00  0.00     0.131 C 
HETATM    6  C   UNL     1      40.765 -14.832   2.555  1.00  0.00     0.061 C 
HETATM    7  C   UNL     1      41.840 -15.383   3.443  1.00  0.00    -0.019 A 
HETATM    8  C   UNL     1      42.354 -14.662   4.512  1.00  0.00     0.044 A 
HETATM    9  N   UNL     1      43.291 -15.443   5.131  1.00  0.00    -0.356 N 
HETATM   10  H   UNL     1      43.810 -15.194   5.963  1.00  0.00     0.166 HD
HETATM   11  C   UNL     1      43.472 -16.611   4.417  1.00  0.00     0.043 A 
HETATM   12  C   UNL     1      42.558 -16.604   3.359  1.00  0.00    -0.001 A 
HETATM   13  C   UNL     1      44.369 -17.665   4.628  1.00  0.00     0.030 A 
HETATM   14  C   UNL     1      44.327 -18.741   3.735  1.00  0.00     0.002 A 
HETATM   15  C   UNL     1      43.420 -18.764   2.678  1.00  0.00     0.001 A 
HETATM   16  C   UNL     1      42.530 -17.704   2.479  1.00  0.00     0.014 A 
ENDROOT
BRANCH   1  17
HETATM   17  C   UNL     1      42.724 -12.426   5.841  1.00  0.00    -0.029 A 
HETATM   18  C   UNL     1      44.044 -12.729   6.200  1.00  0.00     0.012 A 
HETATM   19  C   UNL     1      44.770 -11.897   7.061  1.00  0.00     0.038 A 
HETATM   20  C   UNL     1      44.196 -10.731   7.569  1.00  0.00     0.074 A 
HETATM   21  C   UNL     1      42.897 -10.372   7.182  1.00  0.00    -0.028 A 
HETATM   22  C   UNL     1      42.287  -9.076   7.637  1.00  0.00     0.051 C 
HETATM   23  C   UNL     1      42.177 -11.222   6.327  1.00  0.00     0.019 A 
BRANCH  20  24
HETATM   24  O   UNL     1      44.845  -9.855   8.401  1.00  0.00    -0.355 OA
HETATM   25  C   UNL     1      46.123  -9.415   7.957  1.00  0.00     0.210 C 
ENDBRANCH  20  24
ENDBRANCH   1  17
BRANCH   3  26
HETATM   26  C   UNL     1      41.710 -11.589   1.463  1.00  0.00     0.108 C 
BRANCH  26  27
HETATM   27  C   UNL     1      41.442 -10.084   1.328  1.00  0.00     0.051 C 
BRANCH  27  28
HETATM   28  C   UNL     1      40.476  -9.563   2.346  1.00  0.00    -0.021 A 
HETATM   29  C   UNL     1      40.705  -8.688   3.391  1.00  0.00     0.120 A 
HETATM   30  N   UNL     1      39.511  -8.517   4.026  1.00  0.00    -0.285 N 
HETATM   31  C   UNL     1      39.254  -7.680   5.171  1.00  0.00     0.179 C 
HETATM   32  N   UNL     1      38.511  -9.231   3.480  1.00  0.00    -0.185 NA
HETATM   33  C   UNL     1      39.101  -9.876   2.471  1.00  0.00     0.147 A 
ENDBRANCH  27  28
ENDBRANCH  26  27
ENDBRANCH   3  26
TORSDOF 5
ENDMDL
MODEL 10
REMARK VINA RESULT:      -8.5      2.031      2.667
REMARK  5 active torsions:
REMARK  status: ('A' for Active; 'I' for Inactive)
REMARK    1  A    between atoms: C_3  and  O_4 
REMARK    2  A    between atoms: C_8  and  C_9 
REMARK       I    between atoms: N_10  and  C_11 
REMARK    3  A    between atoms: C_11  and  C_12 
REMARK    4  A    between atoms: C_12  and  C_13 
REMARK    5  A    between atoms: C_13  and  C_14 
ROOT
HETATM    1  C   UNL     1      40.741 -15.068   3.678  1.00  0.00     0.171 C 
HETATM    2  N   UNL     1      41.012 -13.898   4.553  1.00  0.00    -0.338 N 
HETATM    3  C   UNL     1      42.287 -13.317   4.522  1.00  0.00     0.221 C 
HETATM    4  O   UNL     1      43.268 -13.872   4.027  1.00  0.00    -0.273 OA
HETATM    5  C   UNL     1      39.809 -13.059   4.733  1.00  0.00     0.131 C 
HETATM    6  C   UNL     1      39.424 -12.343   3.411  1.00  0.00     0.061 C 
HETATM    7  C   UNL     1      39.656 -13.245   2.236  1.00  0.00    -0.019 A 
HETATM    8  C   UNL     1      40.279 -14.479   2.366  1.00  0.00     0.044 A 
HETATM    9  N   UNL     1      40.316 -15.061   1.130  1.00  0.00    -0.356 N 
HETATM   10  H   UNL     1      40.682 -15.981   0.921  1.00  0.00     0.166 HD
HETATM   11  C   UNL     1      39.829 -14.181   0.184  1.00  0.00     0.043 A 
HETATM   12  C   UNL     1      39.392 -13.037   0.857  1.00  0.00    -0.001 A 
HETATM   13  C   UNL     1      39.743 -14.312  -1.208  1.00  0.00     0.030 A 
HETATM   14  C   UNL     1      39.192 -13.246  -1.927  1.00  0.00     0.002 A 
HETATM   15  C   UNL     1      38.740 -12.098  -1.280  1.00  0.00     0.001 A 
HETATM   16  C   UNL     1      38.832 -11.981   0.112  1.00  0.00     0.014 A 
ENDROOT
BRANCH   1  17
HETATM   17  C   UNL     1      41.738 -16.215   3.694  1.00  0.00    -0.029 A 
HETATM   18  C   UNL     1      42.281 -16.795   2.540  1.00  0.00     0.012 A 
HETATM   19  C   UNL     1      43.182 -17.864   2.622  1.00  0.00     0.038 A 
HETATM   20  C   UNL     1      43.575 -18.365   3.864  1.00  0.00     0.074 A 
HETATM   21  C   UNL     1      43.093 -17.766   5.036  1.00  0.00    -0.028 A 
HETATM   22  C   UNL     1      43.570 -18.221   6.387  1.00  0.00     0.051 C 
HETATM   23  C   UNL     1      42.181 -16.702   4.939  1.00  0.00     0.019 A 
BRANCH  20  24
HETATM   24  O   UNL     1      44.466 -19.395   4.030  1.00  0.00    -0.355 OA
HETATM   25  C   UNL     1      43.965 -20.694   3.740  1.00  0.00     0.210 C 
ENDBRANCH  20  24
ENDBRANCH   1  17
BRANCH   3  26
HETATM   26  C   UNL     1      42.466 -11.960   5.200  1.00  0.00     0.108 C 
BRANCH  26  27
HETATM   27  C   UNL     1      42.700 -10.831   4.189  1.00  0.00     0.051 C 
BRANCH  27  28
HETATM   28  C   UNL     1      41.747  -9.688   4.348  1.00  0.00    -0.021 A 
HETATM   29  C   UNL     1      40.983  -9.055   3.386  1.00  0.00     0.120 A 
HETATM   30  N   UNL     1      40.274  -8.083   4.026  1.00  0.00    -0.285 N 
HETATM   31  C   UNL     1      39.330  -7.169   3.433  1.00  0.00     0.179 C 
HETATM   32  N   UNL     1      40.529  -8.020   5.345  1.00  0.00    -0.185 NA
HETATM   33  C   UNL     1      41.434  -8.984   5.536  1.00  0.00     0.147 A 
ENDBRANCH  27  28
ENDBRANCH  26  27
ENDBRANCH   3  26
TORSDOF 5
ENDMDL
