MODEL 1
REMARK VINA RESULT:      -8.7      0.000      0.000
REMARK  7 active torsions:
REMARK  status: ('A' for Active; 'I' for Inactive)
REMARK    1  A    between atoms: O_2  and  C_3 
REMARK    2  A    between atoms: C_3  and  C_4 
REMARK    3  A    between atoms: C_4  and  N_5 
REMARK    4  A    between atoms: C_4  and  C_21 
REMARK    5  A    between atoms: N_5  and  C_6 
REMARK    6  A    between atoms: C_21  and  C_22 
REMARK    7  A    between atoms: C_25  and  O_26 
ROOT
HETATM    1  N   UNL     1      42.519 -14.898   1.877  1.00  0.00    -0.277 NA
HETATM    2  H   UNL     1      42.943 -13.973   1.742  1.00  0.00     0.128 HD
ENDROOT
BRANCH   1   3
HETATM    3  C   UNL     1      41.154 -14.909   1.277  1.00  0.00     0.164 C 
BRANCH   3   4
HETATM    4  C   UNL     1      40.069 -14.777   2.365  1.00  0.00     0.276 C 
HETATM    5  O   UNL     1      39.616 -15.719   2.999  1.00  0.00    -0.263 OA
BRANCH   4   6
HETATM    6  O   UNL     1      39.699 -13.470   2.530  1.00  0.00    -0.325 OA
HETATM    7  C   UNL     1      39.450 -13.096   3.887  1.00  0.00     0.213 C 
ENDBRANCH   4   6
ENDBRANCH   3   4
BRANCH   3   8
HETATM    8  C   UNL     1      40.956 -13.687   0.360  1.00  0.00     0.068 C 
BRANCH   8   9
HETATM    9  C   UNL     1      40.208 -13.946  -0.927  1.00  0.00    -0.056 A 
HETATM   10  C   UNL     1      39.475 -15.127  -1.112  1.00  0.00     0.010 A 
HETATM   11  C   UNL     1      38.740 -15.331  -2.283  1.00  0.00     0.037 A 
HETATM   12  C   UNL     1      38.737 -14.350  -3.268  1.00  0.00     0.065 A 
HETATM   13  C   UNL     1      39.455 -13.174  -3.103  1.00  0.00     0.037 A 
HETATM   14  C   UNL     1      40.182 -12.967  -1.931  1.00  0.00     0.010 A 
BRANCH  12  15
HETATM   15  O   UNL     1      38.027 -14.501  -4.422  1.00  0.00    -0.361 OA
HETATM   16  H   UNL     1      37.116 -14.198  -4.271  1.00  0.00     0.217 HD
ENDBRANCH  12  15
ENDBRANCH   8   9
ENDBRANCH   3   8
ENDBRANCH   1   3
BRANCH   1  17
HETATM   17  C   UNL     1      42.828 -15.403   3.153  1.00  0.00     0.034 A 
HETATM   18  C   UNL     1      43.160 -16.792   3.204  1.00  0.00     0.013 A 
HETATM   19  C   UNL     1      43.656 -17.342   4.402  1.00  0.00     0.044 A 
HETATM   20  C   UNL     1      43.015 -17.677   2.112  1.00  0.00     0.015 A 
HETATM   21  C   UNL     1      44.000 -18.701   4.496  1.00  0.00     0.030 A 
HETATM   22  N   UNL     1      43.818 -16.549   5.466  1.00  0.00    -0.355 N 
HETATM   23  C   UNL     1      43.846 -19.544   3.399  1.00  0.00     0.002 A 
HETATM   24  C   UNL     1      43.348 -19.032   2.209  1.00  0.00     0.001 A 
HETATM   25  H   UNL     1      44.187 -16.970   6.315  1.00  0.00     0.166 HD
HETATM   26  C   UNL     1      43.547 -15.236   5.483  1.00  0.00     0.044 A 
HETATM   27  C   UNL     1      43.040 -14.602   4.323  1.00  0.00     0.013 A 
HETATM   28  C   UNL     1      43.808 -14.522   6.671  1.00  0.00     0.030 A 
HETATM   29  C   UNL     1      42.818 -13.206   4.447  1.00  0.00     0.015 A 
HETATM   30  C   UNL     1      43.070 -12.500   5.630  1.00  0.00     0.001 A 
HETATM   31  C   UNL     1      43.569 -13.155   6.742  1.00  0.00     0.002 A 
ENDBRANCH   1  17
TORSDOF 7
ENDMDL
MODEL 2
REMARK VINA RESULT:      -8.6      0.573      3.490
REMARK  7 active torsions:
REMARK  status: ('A' for Active; 'I' for Inactive)
REMARK    1  A    between atoms: O_2  and  C_3 
REMARK    2  A    between atoms: C_3  and  C_4 
REMARK    3  A    between atoms: C_4  and  N_5 
REMARK    4  A    between atoms: C_4  and  C_21 
REMARK    5  A    between atoms: N_5  and  C_6 
REMARK    6  A    between atoms: C_21  and  C_22 
REMARK    7  A    between atoms: C_25  and  O_26 
ROOT
HETATM    1  N   UNL     1      42.558 -14.020   1.948  1.00  0.00    -0.277 NA
HETATM    2  H   UNL     1      42.672 -13.005   2.052  1.00  0.00     0.128 HD
ENDROOT
BRANCH   1   3
HETATM    3  C   UNL     1      41.245 -14.308   1.304  1.00  0.00     0.164 C 
BRANCH   3   4
HETATM    4  C   UNL     1      40.114 -14.367   2.351  1.00  0.00     0.276 C 
HETATM    5  O   UNL     1      39.696 -15.402   2.849  1.00  0.00    -0.263 OA
BRANCH   4   6
HETATM    6  O   UNL     1      39.661 -13.112   2.651  1.00  0.00    -0.325 OA
HETATM    7  C   UNL     1      39.472 -12.874   4.048  1.00  0.00     0.213 C 
ENDBRANCH   4   6
ENDBRANCH   3   4
BRANCH   3   8
HETATM    8  C   UNL     1      40.850 -13.166   0.347  1.00  0.00     0.068 C 
BRANCH   8   9
HETATM    9  C   UNL     1      40.149 -13.587  -0.923  1.00  0.00    -0.056 A 
HETATM   10  C   UNL     1      39.572 -14.860  -1.043  1.00  0.00     0.010 A 
HETATM   11  C   UNL     1      38.876 -15.217  -2.201  1.00  0.00     0.037 A 
HETATM   12  C   UNL     1      38.757 -14.300  -3.240  1.00  0.00     0.065 A 
HETATM   13  C   UNL     1      39.321 -13.035  -3.139  1.00  0.00     0.037 A 
HETATM   14  C   UNL     1      40.008 -12.676  -1.980  1.00  0.00     0.010 A 
BRANCH  12  15
HETATM   15  O   UNL     1      38.080 -14.601  -4.384  1.00  0.00    -0.361 OA
HETATM   16  H   UNL     1      37.173 -14.862  -4.151  1.00  0.00     0.217 HD
ENDBRANCH  12  15
ENDBRANCH   8   9
ENDBRANCH   3   8
ENDBRANCH   1   3
BRANCH   1  17
HETATM   17  C   UNL     1      43.048 -14.691   3.083  1.00  0.00     0.034 A 
HETATM   18  C   UNL     1      43.125 -13.911   4.279  1.00  0.00     0.013 A 
HETATM   19  C   UNL     1      43.430 -14.543   5.499  1.00  0.00     0.044 A 
HETATM   20  C   UNL     1      42.919 -12.514   4.321  1.00  0.00     0.015 A 
HETATM   21  C   UNL     1      43.512 -13.817   6.700  1.00  0.00     0.030 A 
HETATM   22  N   UNL     1      43.630 -15.866   5.518  1.00  0.00    -0.355 N 
HETATM   23  C   UNL     1      43.301 -12.441   6.704  1.00  0.00     0.002 A 
HETATM   24  C   UNL     1      43.011 -11.789   5.514  1.00  0.00     0.001 A 
HETATM   25  H   UNL     1      43.838 -16.297   6.414  1.00  0.00     0.166 HD
HETATM   26  C   UNL     1      43.553 -16.661   4.441  1.00  0.00     0.044 A 
HETATM   27  C   UNL     1      43.255 -16.107   3.172  1.00  0.00     0.013 A 
HETATM   28  C   UNL     1      43.749 -18.045   4.625  1.00  0.00     0.030 A 
HETATM   29  C   UNL     1      43.171 -17.046   2.111  1.00  0.00     0.015 A 
HETATM   30  C   UNL     1      43.374 -18.419   2.294  1.00  0.00     0.001 A 
HETATM   31  C   UNL     1      43.659 -18.922   3.552  1.00  0.00     0.002 A 
ENDBRANCH   1  17
TORSDOF 7
ENDMDL
MODEL 3
REMARK VINA RESULT:      -8.6      2.440      7.208
REMARK  7 active torsions:
REMARK  status: ('A' for Active; 'I' for Inactive)
REMARK    1  A    between atoms: O_2  and  C_3 
REMARK    2  A    between atoms: C_3  and  C_4 
REMARK    3  A    between atoms: C_4  and  N_5 
REMARK    4  A    between atoms: C_4  and  C_21 
REMARK    5  A    between atoms: N_5  and  C_6 
REMARK    6  A    between atoms: C_21  and  C_22 
REMARK    7  A    between atoms: C_25  and  O_26 
ROOT
HETATM    1  N   UNL     1      42.741 -14.420   1.587  1.00  0.00    -0.277 NA
HETATM    2  H   UNL     1      42.978 -14.752   0.645  1.00  0.00     0.128 HD
ENDROOT
BRANCH   1   3
HETATM    3  C   UNL     1      42.752 -15.570   2.536  1.00  0.00     0.164 C 
BRANCH   3   4
HETATM    4  C   UNL     1      41.347 -15.819   3.121  1.00  0.00     0.276 C 
HETATM    5  O   UNL     1      40.448 -16.392   2.523  1.00  0.00    -0.263 OA
BRANCH   4   6
HETATM    6  O   UNL     1      41.254 -15.327   4.394  1.00  0.00    -0.325 OA
HETATM    7  C   UNL     1      40.776 -16.271   5.356  1.00  0.00     0.213 C 
ENDBRANCH   4   6
ENDBRANCH   3   4
BRANCH   3   8
HETATM    8  C   UNL     1      43.118 -16.874   1.800  1.00  0.00     0.068 C 
BRANCH   8   9
HETATM    9  C   UNL     1      43.426 -18.061   2.682  1.00  0.00    -0.056 A 
HETATM   10  C   UNL     1      43.291 -19.372   2.204  1.00  0.00     0.010 A 
HETATM   11  C   UNL     1      43.634 -20.461   3.010  1.00  0.00     0.037 A 
HETATM   12  C   UNL     1      44.113 -20.237   4.296  1.00  0.00     0.065 A 
HETATM   13  C   UNL     1      44.255 -18.946   4.787  1.00  0.00     0.037 A 
HETATM   14  C   UNL     1      43.921 -17.859   3.979  1.00  0.00     0.010 A 
BRANCH  12  15
HETATM   15  O   UNL     1      44.469 -21.267   5.114  1.00  0.00    -0.361 OA
HETATM   16  H   UNL     1      45.321 -21.625   4.814  1.00  0.00     0.217 HD
ENDBRANCH  12  15
ENDBRANCH   8   9
ENDBRANCH   3   8
ENDBRANCH   1   3
BRANCH   1  17
HETATM   17  C   UNL     1      41.723 -13.451   1.529  1.00  0.00     0.034 A 
HETATM   18  C   UNL     1      41.892 -12.322   2.390  1.00  0.00     0.013 A 
HETATM   19  C   UNL     1      41.022 -11.222   2.269  1.00  0.00     0.044 A 
HETATM   20  C   UNL     1      42.893 -12.235   3.385  1.00  0.00     0.015 A 
HETATM   21  C   UNL     1      41.155 -10.090   3.091  1.00  0.00     0.030 A 
HETATM   22  N   UNL     1      40.060 -11.250   1.341  1.00  0.00    -0.355 N 
HETATM   23  C   UNL     1      42.154 -10.037   4.059  1.00  0.00     0.002 A 
HETATM   24  C   UNL     1      43.018 -11.112   4.209  1.00  0.00     0.001 A 
HETATM   25  H   UNL     1      39.452 -10.438   1.269  1.00  0.00     0.166 HD
HETATM   26  C   UNL     1      39.856 -12.264   0.488  1.00  0.00     0.044 A 
HETATM   27  C   UNL     1      40.683 -13.413   0.542  1.00  0.00     0.013 A 
HETATM   28  C   UNL     1      38.825 -12.131  -0.464  1.00  0.00     0.030 A 
HETATM   29  C   UNL     1      40.395 -14.408  -0.426  1.00  0.00     0.015 A 
HETATM   30  C   UNL     1      39.365 -14.278  -1.366  1.00  0.00     0.001 A 
HETATM   31  C   UNL     1      38.580 -13.138  -1.389  1.00  0.00     0.002 A 
ENDBRANCH   1  17
TORSDOF 7
ENDMDL
MODEL 4
REMARK VINA RESULT:      -8.5      2.410      5.714
REMARK  7 active torsions:
REMARK  status: ('A' for Active; 'I' for Inactive)
REMARK    1  A    between atoms: O_2  and  C_3 
REMARK    2  A    between atoms: C_3  and  C_4 
REMARK    3  A    between atoms: C_4  and  N_5 
REMARK    4  A    between atoms: C_4  and  C_21 
REMARK    5  A    between atoms: N_5  and  C_6 
REMARK    6  A    between atoms: C_21  and  C_22 
REMARK    7  A    between atoms: C_25  and  O_26 
ROOT
HETATM    1  N   UNL     1      40.423 -15.452   3.605  1.00  0.00    -0.277 NA
HETATM    2  H   UNL     1      39.970 -16.150   4.206  1.00  0.00     0.128 HD
ENDROOT
BRANCH   1   3
HETATM    3  C   UNL     1      41.117 -16.142   2.480  1.00  0.00     0.164 C 
BRANCH   3   4
HETATM    4  C   UNL     1      41.066 -15.294   1.193  1.00  0.00     0.276 C 
HETATM    5  O   UNL     1      42.003 -14.630   0.772  1.00  0.00    -0.263 OA
BRANCH   4   6
HETATM    6  O   UNL     1      39.844 -15.398   0.588  1.00  0.00    -0.325 OA
HETATM    7  C   UNL     1      39.690 -14.575  -0.572  1.00  0.00     0.213 C 
ENDBRANCH   4   6
ENDBRANCH   3   4
BRANCH   3   8
HETATM    8  C   UNL     1      42.618 -16.309   2.793  1.00  0.00     0.068 C 
BRANCH   8   9
HETATM    9  C   UNL     1      43.097 -17.730   2.969  1.00  0.00    -0.056 A 
HETATM   10  C   UNL     1      43.853 -18.105   4.089  1.00  0.00     0.010 A 
HETATM   11  C   UNL     1      44.241 -19.436   4.270  1.00  0.00     0.037 A 
HETATM   12  C   UNL     1      43.870 -20.392   3.331  1.00  0.00     0.065 A 
HETATM   13  C   UNL     1      43.120 -20.040   2.217  1.00  0.00     0.037 A 
HETATM   14  C   UNL     1      42.726 -18.714   2.040  1.00  0.00     0.010 A 
BRANCH  12  15
HETATM   15  O   UNL     1      44.217 -21.702   3.472  1.00  0.00    -0.361 OA
HETATM   16  H   UNL     1      44.478 -22.052   2.603  1.00  0.00     0.217 HD
ENDBRANCH  12  15
ENDBRANCH   8   9
ENDBRANCH   3   8
ENDBRANCH   1   3
BRANCH   1  17
HETATM   17  C   UNL     1      40.996 -14.428   4.380  1.00  0.00     0.034 A 
HETATM   18  C   UNL     1      41.695 -14.856   5.551  1.00  0.00     0.013 A 
HETATM   19  C   UNL     1      42.451 -13.923   6.287  1.00  0.00     0.044 A 
HETATM   20  C   UNL     1      41.674 -16.181   6.040  1.00  0.00     0.015 A 
HETATM   21  C   UNL     1      43.157 -14.299   7.442  1.00  0.00     0.030 A 
HETATM   22  N   UNL     1      42.509 -12.654   5.867  1.00  0.00    -0.355 N 
HETATM   23  C   UNL     1      43.116 -15.616   7.893  1.00  0.00     0.002 A 
HETATM   24  C   UNL     1      42.369 -16.555   7.195  1.00  0.00     0.001 A 
HETATM   25  H   UNL     1      43.070 -12.004   6.411  1.00  0.00     0.166 HD
HETATM   26  C   UNL     1      41.898 -12.188   4.769  1.00  0.00     0.044 A 
HETATM   27  C   UNL     1      41.113 -13.058   3.972  1.00  0.00     0.013 A 
HETATM   28  C   UNL     1      42.085 -10.833   4.430  1.00  0.00     0.030 A 
HETATM   29  C   UNL     1      40.537 -12.464   2.820  1.00  0.00     0.015 A 
HETATM   30  C   UNL     1      40.719 -11.115   2.490  1.00  0.00     0.001 A 
HETATM   31  C   UNL     1      41.496 -10.298   3.292  1.00  0.00     0.002 A 
ENDBRANCH   1  17
TORSDOF 7
ENDMDL
MODEL 5
REMARK VINA RESULT:      -8.5      2.425      6.530
REMARK  7 active torsions:
REMARK  status: ('A' for Active; 'I' for Inactive)
REMARK    1  A    between atoms: O_2  and  C_3 
REMARK    2  A    between atoms: C_3  and  C_4 
REMARK    3  A    between atoms: C_4  and  N_5 
REMARK    4  A    between atoms: C_4  and  C_21 
REMARK    5  A    between atoms: N_5  and  C_6 
REMARK    6  A    between atoms: C_21  and  C_22 
REMARK    7  A    between atoms: C_25  and  O_26 
ROOT
HETATM    1  N   UNL     1      42.705 -14.650   1.360  1.00  0.00    -0.277 NA
HETATM    2  H   UNL     1      42.584 -15.062   0.427  1.00  0.00     0.128 HD
ENDROOT
BRANCH   1   3
HETATM    3  C   UNL     1      42.639 -15.726   2.389  1.00  0.00     0.164 C 
BRANCH   3   4
HETATM    4  C   UNL     1      41.254 -15.762   3.067  1.00  0.00     0.276 C 
HETATM    5  O   UNL     1      40.232 -16.142   2.515  1.00  0.00    -0.263 OA
BRANCH   4   6
HETATM    6  O   UNL     1      41.332 -15.328   4.362  1.00  0.00    -0.325 OA
HETATM    7  C   UNL     1      40.687 -16.183   5.309  1.00  0.00     0.213 C 
ENDBRANCH   4   6
ENDBRANCH   3   4
BRANCH   3   8
HETATM    8  C   UNL     1      42.802 -17.112   1.733  1.00  0.00     0.068 C 
BRANCH   8   9
HETATM    9  C   UNL     1      43.241 -18.226   2.654  1.00  0.00    -0.056 A 
HETATM   10  C   UNL     1      43.225 -19.563   2.232  1.00  0.00     0.010 A 
HETATM   11  C   UNL     1      43.688 -20.579   3.072  1.00  0.00     0.037 A 
HETATM   12  C   UNL     1      44.170 -20.256   4.336  1.00  0.00     0.065 A 
HETATM   13  C   UNL     1      44.196 -18.939   4.772  1.00  0.00     0.037 A 
HETATM   14  C   UNL     1      43.741 -17.924   3.930  1.00  0.00     0.010 A 
BRANCH  12  15
HETATM   15  O   UNL     1      44.641 -21.212   5.185  1.00  0.00    -0.361 OA
HETATM   16  H   UNL     1      45.587 -21.053   5.342  1.00  0.00     0.217 HD
ENDBRANCH  12  15
ENDBRANCH   8   9
ENDBRANCH   3   8
ENDBRANCH   1   3
BRANCH   1  17
HETATM   17  C   UNL     1      42.022 -13.423   1.452  1.00  0.00     0.034 A 
HETATM   18  C   UNL     1      40.875 -13.288   0.610  1.00  0.00     0.013 A 
HETATM   19  C   UNL     1      40.029 -12.174   0.765  1.00  0.00     0.044 A 
HETATM   20  C   UNL     1      40.526 -14.215  -0.399  1.00  0.00     0.015 A 
HETATM   21  C   UNL     1      38.888 -12.003  -0.038  1.00  0.00     0.030 A 
HETATM   22  N   UNL     1      40.310 -11.268   1.708  1.00  0.00    -0.355 N 
HETATM   23  C   UNL     1      38.574 -12.937  -1.021  1.00  0.00     0.002 A 
HETATM   24  C   UNL     1      39.397 -14.039  -1.204  1.00  0.00     0.001 A 
HETATM   25  H   UNL     1      39.677 -10.478   1.805  1.00  0.00     0.166 HD
HETATM   26  C   UNL     1      41.354 -11.341   2.545  1.00  0.00     0.044 A 
HETATM   27  C   UNL     1      42.259 -12.427   2.456  1.00  0.00     0.013 A 
HETATM   28  C   UNL     1      41.496 -10.329   3.516  1.00  0.00     0.030 A 
HETATM   29  C   UNL     1      43.308 -12.416   3.411  1.00  0.00     0.015 A 
HETATM   30  C   UNL     1      43.453 -11.405   4.369  1.00  0.00     0.001 A 
HETATM   31  C   UNL     1      42.546 -10.362   4.426  1.00  0.00     0.002 A 
ENDBRANCH   1  17
TORSDOF 7
ENDMDL
MODEL 6
REMARK VINA RESULT:      -8.5      2.296      6.312
REMARK  7 active torsions:
REMARK  status: ('A' for Active; 'I' for Inactive)
REMARK    1  A    between atoms: O_2  and  C_3 
REMARK    2  A    between atoms: C_3  and  C_4 
REMARK    3  A    between atoms: C_4  and  N_5 
REMARK    4  A    between atoms: C_4  and  C_21 
REMARK    5  A    between atoms: N_5  and  C_6 
REMARK    6  A    between atoms: C_21  and  C_22 
REMARK    7  A    between atoms: C_25  and  O_26 
ROOT
HETATM    1  N   UNL     1      40.498 -15.088   3.876  1.00  0.00    -0.277 NA
HETATM    2  H   UNL     1      40.322 -15.634   4.728  1.00  0.00     0.128 HD
ENDROOT
BRANCH   1   3
HETATM    3  C   UNL     1      41.160 -15.954   2.860  1.00  0.00     0.164 C 
BRANCH   3   4
HETATM    4  C   UNL     1      41.171 -15.276   1.475  1.00  0.00     0.276 C 
HETATM    5  O   UNL     1      42.101 -14.608   1.048  1.00  0.00    -0.263 OA
BRANCH   4   6
HETATM    6  O   UNL     1      40.013 -15.536   0.794  1.00  0.00    -0.325 OA
HETATM    7  C   UNL     1      39.815 -14.720  -0.363  1.00  0.00     0.213 C 
ENDBRANCH   4   6
ENDBRANCH   3   4
BRANCH   3   8
HETATM    8  C   UNL     1      42.645 -16.167   3.216  1.00  0.00     0.068 C 
BRANCH   8   9
HETATM    9  C   UNL     1      43.110 -17.603   3.257  1.00  0.00    -0.056 A 
HETATM   10  C   UNL     1      43.736 -18.128   4.397  1.00  0.00     0.010 A 
HETATM   11  C   UNL     1      44.110 -19.474   4.445  1.00  0.00     0.037 A 
HETATM   12  C   UNL     1      43.856 -20.295   3.351  1.00  0.00     0.065 A 
HETATM   13  C   UNL     1      43.237 -19.794   2.215  1.00  0.00     0.037 A 
HETATM   14  C   UNL     1      42.856 -18.453   2.170  1.00  0.00     0.010 A 
BRANCH  12  15
HETATM   15  O   UNL     1      44.195 -21.616   3.357  1.00  0.00    -0.361 OA
HETATM   16  H   UNL     1      43.542 -22.108   2.832  1.00  0.00     0.217 HD
ENDBRANCH  12  15
ENDBRANCH   8   9
ENDBRANCH   3   8
ENDBRANCH   1   3
BRANCH   1  17
HETATM   17  C   UNL     1      40.918 -13.785   4.201  1.00  0.00     0.034 A 
HETATM   18  C   UNL     1      40.106 -12.727   3.687  1.00  0.00     0.013 A 
HETATM   19  C   UNL     1      40.343 -11.405   4.107  1.00  0.00     0.044 A 
HETATM   20  C   UNL     1      39.060 -12.919   2.755  1.00  0.00     0.015 A 
HETATM   21  C   UNL     1      39.567 -10.334   3.632  1.00  0.00     0.030 A 
HETATM   22  N   UNL     1      41.318 -11.166   4.992  1.00  0.00    -0.355 N 
HETATM   23  C   UNL     1      38.543 -10.560   2.716  1.00  0.00     0.002 A 
HETATM   24  C   UNL     1      38.295 -11.852   2.274  1.00  0.00     0.001 A 
HETATM   25  H   UNL     1      41.461 -10.204   5.286  1.00  0.00     0.166 HD
HETATM   26  C   UNL     1      42.103 -12.110   5.530  1.00  0.00     0.044 A 
HETATM   27  C   UNL     1      41.936 -13.467   5.159  1.00  0.00     0.013 A 
HETATM   28  C   UNL     1      43.063 -11.709   6.482  1.00  0.00     0.030 A 
HETATM   29  C   UNL     1      42.801 -14.381   5.814  1.00  0.00     0.015 A 
HETATM   30  C   UNL     1      43.759 -13.980   6.752  1.00  0.00     0.001 A 
HETATM   31  C   UNL     1      43.890 -12.644   7.091  1.00  0.00     0.002 A 
ENDBRANCH   1  17
TORSDOF 7
ENDMDL
MODEL 7
REMARK VINA RESULT:      -8.4      2.881      7.451
REMARK  7 active torsions:
REMARK  status: ('A' for Active; 'I' for Inactive)
REMARK    1  A    between atoms: O_2  and  C_3 
REMARK    2  A    between atoms: C_3  and  C_4 
REMARK    3  A    between atoms: C_4  and  N_5 
REMARK    4  A    between atoms: C_4  and  C_21 
REMARK    5  A    between atoms: N_5  and  C_6 
REMARK    6  A    between atoms: C_21  and  C_22 
REMARK    7  A    between atoms: C_25  and  O_26 
ROOT
HETATM    1  N   UNL     1      42.877 -13.677   4.675  1.00  0.00    -0.277 NA
HETATM    2  H   UNL     1      43.899 -13.687   4.773  1.00  0.00     0.128 HD
ENDROOT
BRANCH   1   3
HETATM    3  C   UNL     1      42.256 -13.354   5.991  1.00  0.00     0.164 C 
BRANCH   3   4
HETATM    4  C   UNL     1      41.200 -14.408   6.380  1.00  0.00     0.276 C 
HETATM    5  O   UNL     1      41.467 -15.499   6.862  1.00  0.00    -0.263 OA
BRANCH   4   6
HETATM    6  O   UNL     1      39.936 -13.951   6.126  1.00  0.00    -0.325 OA
HETATM    7  C   UNL     1      39.828 -12.527   6.060  1.00  0.00     0.213 C 
ENDBRANCH   4   6
ENDBRANCH   3   4
BRANCH   3   8
HETATM    8  C   UNL     1      43.310 -13.407   7.114  1.00  0.00     0.068 C 
BRANCH   8   9
HETATM    9  C   UNL     1      44.202 -12.193   7.235  1.00  0.00    -0.056 A 
HETATM   10  C   UNL     1      43.953 -11.206   8.199  1.00  0.00     0.010 A 
HETATM   11  C   UNL     1      44.817 -10.117   8.340  1.00  0.00     0.037 A 
HETATM   12  C   UNL     1      45.933 -10.017   7.516  1.00  0.00     0.065 A 
HETATM   13  C   UNL     1      46.197 -10.985   6.557  1.00  0.00     0.037 A 
HETATM   14  C   UNL     1      45.339 -12.076   6.422  1.00  0.00     0.010 A 
BRANCH  12  15
HETATM   15  O   UNL     1      46.809  -8.978   7.624  1.00  0.00    -0.361 OA
HETATM   16  H   UNL     1      47.713  -9.318   7.512  1.00  0.00     0.217 HD
ENDBRANCH  12  15
ENDBRANCH   8   9
ENDBRANCH   3   8
ENDBRANCH   1   3
BRANCH   1  17
HETATM   17  C   UNL     1      42.450 -14.719   3.832  1.00  0.00     0.034 A 
HETATM   18  C   UNL     1      41.592 -14.333   2.756  1.00  0.00     0.013 A 
HETATM   19  C   UNL     1      41.262 -15.273   1.761  1.00  0.00     0.044 A 
HETATM   20  C   UNL     1      41.031 -13.043   2.621  1.00  0.00     0.015 A 
HETATM   21  C   UNL     1      40.427 -14.936   0.683  1.00  0.00     0.030 A 
HETATM   22  N   UNL     1      41.770 -16.508   1.837  1.00  0.00    -0.355 N 
HETATM   23  C   UNL     1      39.894 -13.654   0.581  1.00  0.00     0.002 A 
HETATM   24  C   UNL     1      40.192 -12.710   1.553  1.00  0.00     0.001 A 
HETATM   25  H   UNL     1      41.523 -17.164   1.100  1.00  0.00     0.166 HD
HETATM   26  C   UNL     1      42.595 -16.933   2.804  1.00  0.00     0.044 A 
HETATM   27  C   UNL     1      42.975 -16.053   3.848  1.00  0.00     0.013 A 
HETATM   28  C   UNL     1      43.081 -18.254   2.728  1.00  0.00     0.030 A 
HETATM   29  C   UNL     1      43.873 -16.601   4.799  1.00  0.00     0.015 A 
HETATM   30  C   UNL     1      44.349 -17.916   4.726  1.00  0.00     0.001 A 
HETATM   31  C   UNL     1      43.957 -18.744   3.689  1.00  0.00     0.002 A 
ENDBRANCH   1  17
TORSDOF 7
ENDMDL
MODEL 8
REMARK VINA RESULT:      -8.3      2.746      7.201
REMARK  7 active torsions:
REMARK  status: ('A' for Active; 'I' for Inactive)
REMARK    1  A    between atoms: O_2  and  C_3 
REMARK    2  A    between atoms: C_3  and  C_4 
REMARK    3  A    between atoms: C_4  and  N_5 
REMARK    4  A    between atoms: C_4  and  C_21 
REMARK    5  A    between atoms: N_5  and  C_6 
REMARK    6  A    between atoms: C_21  and  C_22 
REMARK    7  A    between atoms: C_25  and  O_26 
ROOT
HETATM    1  N   UNL     1      40.919 -14.653   4.247  1.00  0.00    -0.277 NA
HETATM    2  H   UNL     1      40.647 -14.669   5.236  1.00  0.00     0.128 HD
ENDROOT
BRANCH   1   3
HETATM    3  C   UNL     1      42.401 -14.778   4.138  1.00  0.00     0.164 C 
BRANCH   3   4
HETATM    4  C   UNL     1      43.106 -13.543   4.735  1.00  0.00     0.276 C 
HETATM    5  O   UNL     1      43.462 -12.574   4.079  1.00  0.00    -0.263 OA
BRANCH   4   6
HETATM    6  O   UNL     1      43.263 -13.675   6.087  1.00  0.00    -0.325 OA
HETATM    7  C   UNL     1      44.211 -12.773   6.661  1.00  0.00     0.213 C 
ENDBRANCH   4   6
ENDBRANCH   3   4
BRANCH   3   8
HETATM    8  C   UNL     1      42.906 -15.972   4.972  1.00  0.00     0.068 C 
BRANCH   8   9
HETATM    9  C   UNL     1      43.139 -17.253   4.207  1.00  0.00    -0.056 A 
HETATM   10  C   UNL     1      42.712 -17.391   2.879  1.00  0.00     0.010 A 
HETATM   11  C   UNL     1      42.986 -18.560   2.163  1.00  0.00     0.037 A 
HETATM   12  C   UNL     1      43.689 -19.591   2.777  1.00  0.00     0.065 A 
HETATM   13  C   UNL     1      44.121 -19.473   4.090  1.00  0.00     0.037 A 
HETATM   14  C   UNL     1      43.855 -18.303   4.802  1.00  0.00     0.010 A 
BRANCH  12  15
HETATM   15  O   UNL     1      43.986 -20.745   2.114  1.00  0.00    -0.361 OA
HETATM   16  H   UNL     1      44.244 -21.420   2.763  1.00  0.00     0.217 HD
ENDBRANCH  12  15
ENDBRANCH   8   9
ENDBRANCH   3   8
ENDBRANCH   1   3
BRANCH   1  17
HETATM   17  C   UNL     1      40.149 -13.715   3.535  1.00  0.00     0.034 A 
HETATM   18  C   UNL     1      39.713 -12.578   4.283  1.00  0.00     0.013 A 
HETATM   19  C   UNL     1      39.094 -11.505   3.614  1.00  0.00     0.044 A 
HETATM   20  C   UNL     1      39.855 -12.456   5.684  1.00  0.00     0.015 A 
HETATM   21  C   UNL     1      38.654 -10.365   4.309  1.00  0.00     0.030 A 
HETATM   22  N   UNL     1      38.939 -11.565   2.287  1.00  0.00    -0.355 N 
HETATM   23  C   UNL     1      38.812 -10.278   5.689  1.00  0.00     0.002 A 
HETATM   24  C   UNL     1      39.407 -11.327   6.376  1.00  0.00     0.001 A 
HETATM   25  H   UNL     1      38.498 -10.772   1.829  1.00  0.00     0.166 HD
HETATM   26  C   UNL     1      39.342 -12.589   1.521  1.00  0.00     0.044 A 
HETATM   27  C   UNL     1      39.969 -13.712   2.113  1.00  0.00     0.013 A 
HETATM   28  C   UNL     1      39.144 -12.491   0.128  1.00  0.00     0.030 A 
HETATM   29  C   UNL     1      40.380 -14.721   1.203  1.00  0.00     0.015 A 
HETATM   30  C   UNL     1      40.175 -14.626  -0.179  1.00  0.00     0.001 A 
HETATM   31  C   UNL     1      39.561 -13.509  -0.720  1.00  0.00     0.002 A 
ENDBRANCH   1  17
TORSDOF 7
ENDMDL
MODEL 9
REMARK VINA RESULT:      -8.3      1.836      5.542
REMARK  7 active torsions:
REMARK  status: ('A' for Active; 'I' for Inactive)
REMARK    1  A    between atoms: O_2  and  C_3 
REMARK    2  A    between atoms: C_3  and  C_4 
REMARK    3  A    between atoms: C_4  and  N_5 
REMARK    4  A    between atoms: C_4  and  C_21 
REMARK    5  A    between atoms: N_5  and  C_6 
REMARK    6  A    between atoms: C_21  and  C_22 
REMARK    7  A    between atoms: C_25  and  O_26 
ROOT
HETATM    1  N   UNL     1      41.800 -15.694   3.236  1.00  0.00    -0.277 NA
HETATM    2  H   UNL     1      40.808 -15.888   3.413  1.00  0.00     0.128 HD
ENDROOT
BRANCH   1   3
HETATM    3  C   UNL     1      41.994 -15.383   1.791  1.00  0.00     0.164 C 
BRANCH   3   4
HETATM    4  C   UNL     1      40.642 -15.322   1.051  1.00  0.00     0.276 C 
HETATM    5  O   UNL     1      39.686 -16.037   1.311  1.00  0.00    -0.263 OA
BRANCH   4   6
HETATM    6  O   UNL     1      40.658 -14.355   0.083  1.00  0.00    -0.325 OA
HETATM    7  C   UNL     1      39.641 -14.502  -0.911  1.00  0.00     0.213 C 
ENDBRANCH   4   6
ENDBRANCH   3   4
BRANCH   3   8
HETATM    8  C   UNL     1      42.611 -13.981   1.618  1.00  0.00     0.068 C 
BRANCH   8   9
HETATM    9  C   UNL     1      42.411 -13.029   2.775  1.00  0.00    -0.056 A 
HETATM   10  C   UNL     1      41.126 -12.717   3.240  1.00  0.00     0.010 A 
HETATM   11  C   UNL     1      40.955 -11.881   4.347  1.00  0.00     0.037 A 
HETATM   12  C   UNL     1      42.072 -11.359   4.990  1.00  0.00     0.065 A 
HETATM   13  C   UNL     1      43.353 -11.657   4.545  1.00  0.00     0.037 A 
HETATM   14  C   UNL     1      43.523 -12.498   3.445  1.00  0.00     0.010 A 
BRANCH  12  15
HETATM   15  O   UNL     1      41.954 -10.547   6.079  1.00  0.00    -0.361 OA
HETATM   16  H   UNL     1      41.882  -9.627   5.777  1.00  0.00     0.217 HD
ENDBRANCH  12  15
ENDBRANCH   8   9
ENDBRANCH   3   8
ENDBRANCH   1   3
BRANCH   1  17
HETATM   17  C   UNL     1      42.616 -16.571   3.973  1.00  0.00     0.034 A 
HETATM   18  C   UNL     1      42.840 -16.209   5.338  1.00  0.00     0.013 A 
HETATM   19  C   UNL     1      43.491 -17.114   6.197  1.00  0.00     0.044 A 
HETATM   20  C   UNL     1      42.451 -14.971   5.897  1.00  0.00     0.015 A 
HETATM   21  C   UNL     1      43.727 -16.803   7.547  1.00  0.00     0.030 A 
HETATM   22  N   UNL     1      43.877 -18.304   5.721  1.00  0.00    -0.355 N 
HETATM   23  C   UNL     1      43.328 -15.574   8.065  1.00  0.00     0.002 A 
HETATM   24  C   UNL     1      42.696 -14.656   7.238  1.00  0.00     0.001 A 
HETATM   25  H   UNL     1      44.335 -18.942   6.366  1.00  0.00     0.166 HD
HETATM   26  C   UNL     1      43.681 -18.717   4.461  1.00  0.00     0.044 A 
HETATM   27  C   UNL     1      43.038 -17.867   3.528  1.00  0.00     0.013 A 
HETATM   28  C   UNL     1      44.109 -20.016   4.117  1.00  0.00     0.030 A 
HETATM   29  C   UNL     1      42.859 -18.420   2.234  1.00  0.00     0.015 A 
HETATM   30  C   UNL     1      43.292 -19.707   1.892  1.00  0.00     0.001 A 
HETATM   31  C   UNL     1      43.913 -20.509   2.833  1.00  0.00     0.002 A 
ENDBRANCH   1  17
TORSDOF 7
ENDMDL
MODEL 10
REMARK VINA RESULT:      -8.2     14.539     16.784
REMARK  7 active torsions:
REMARK  status: ('A' for Active; 'I' for Inactive)
REMARK    1  A    between atoms: O_2  and  C_3 
REMARK    2  A    between atoms: C_3  and  C_4 
REMARK    3  A    between atoms: C_4  and  N_5 
REMARK    4  A    between atoms: C_4  and  C_21 
REMARK    5  A    between atoms: N_5  and  C_6 
REMARK    6  A    between atoms: C_21  and  C_22 
REMARK    7  A    between atoms: C_25  and  O_26 
ROOT
HETATM    1  N   UNL     1      48.863 -29.008   0.415  1.00  0.00    -0.277 NA
HETATM    2  H   UNL     1      49.031 -28.236   1.070  1.00  0.00     0.128 HD
ENDROOT
BRANCH   1   3
HETATM    3  C   UNL     1      47.425 -29.025   0.025  1.00  0.00     0.164 C 
BRANCH   3   4
HETATM    4  C   UNL     1      46.530 -28.543   1.185  1.00  0.00     0.276 C 
HETATM    5  O   UNL     1      46.872 -27.711   2.013  1.00  0.00    -0.263 OA
BRANCH   4   6
HETATM    6  O   UNL     1      45.309 -29.158   1.149  1.00  0.00    -0.325 OA
HETATM    7  C   UNL     1      45.367 -30.567   0.915  1.00  0.00     0.213 C 
ENDBRANCH   4   6
ENDBRANCH   3   4
BRANCH   3   8
HETATM    8  C   UNL     1      47.165 -28.030  -1.124  1.00  0.00     0.068 C 
BRANCH   8   9
HETATM    9  C   UNL     1      46.478 -28.601  -2.342  1.00  0.00    -0.056 A 
HETATM   10  C   UNL     1      46.739 -29.910  -2.773  1.00  0.00     0.010 A 
HETATM   11  C   UNL     1      46.054 -30.447  -3.867  1.00  0.00     0.037 A 
HETATM   12  C   UNL     1      45.108 -29.674  -4.529  1.00  0.00     0.065 A 
HETATM   13  C   UNL     1      44.835 -28.376  -4.117  1.00  0.00     0.037 A 
HETATM   14  C   UNL     1      45.512 -27.843  -3.021  1.00  0.00     0.010 A 
BRANCH  12  15
HETATM   15  O   UNL     1      44.409 -30.159  -5.595  1.00  0.00    -0.361 OA
HETATM   16  H   UNL     1      43.553 -30.494  -5.281  1.00  0.00     0.217 HD
ENDBRANCH  12  15
ENDBRANCH   8   9
ENDBRANCH   3   8
ENDBRANCH   1   3
BRANCH   1  17
HETATM   17  C   UNL     1      49.593 -30.149   0.798  1.00  0.00     0.034 A 
HETATM   18  C   UNL     1      50.470 -30.684  -0.196  1.00  0.00     0.013 A 
HETATM   19  C   UNL     1      51.369 -31.710   0.153  1.00  0.00     0.044 A 
HETATM   20  C   UNL     1      50.492 -30.252  -1.541  1.00  0.00     0.015 A 
HETATM   21  C   UNL     1      52.252 -32.263  -0.789  1.00  0.00     0.030 A 
HETATM   22  N   UNL     1      51.393 -32.154   1.415  1.00  0.00    -0.355 N 
HETATM   23  C   UNL     1      52.248 -31.810  -2.106  1.00  0.00     0.002 A 
HETATM   24  C   UNL     1      51.364 -30.809  -2.482  1.00  0.00     0.001 A 
HETATM   25  H   UNL     1      52.059 -32.888   1.642  1.00  0.00     0.166 HD
HETATM   26  C   UNL     1      50.616 -31.685   2.401  1.00  0.00     0.044 A 
HETATM   27  C   UNL     1      49.679 -30.656   2.136  1.00  0.00     0.013 A 
HETATM   28  C   UNL     1      50.785 -32.227   3.692  1.00  0.00     0.030 A 
HETATM   29  C   UNL     1      48.933 -30.218   3.260  1.00  0.00     0.015 A 
HETATM   30  C   UNL     1      49.096 -30.763   4.539  1.00  0.00     0.001 A 
HETATM   31  C   UNL     1      50.024 -31.765   4.759  1.00  0.00     0.002 A 
ENDBRANCH   1  17
TORSDOF 7
ENDMDL
