MODEL 1
REMARK VINA RESULT:      -9.2      0.000      0.000
REMARK  7 active torsions:
REMARK  status: ('A' for Active; 'I' for Inactive)
REMARK    1  A    between atoms: C_4  and  C_5 
REMARK    2  A    between atoms: C_5  and  O_6 
REMARK    3  A    between atoms: C_5  and  C_7 
REMARK    4  A    between atoms: C_9  and  C_10 
REMARK    5  A    between atoms: C_10  and  N_11 
REMARK       I    between atoms: N_11  and  C_12 
REMARK    6  A    between atoms: C_12  and  C_13 
REMARK       I    between atoms: C_13  and  N_14 
REMARK    7  A    between atoms: N_14  and  C_15 
ROOT
HETATM    1  N   UNL     1      44.702  -9.714   7.809  1.00  0.00    -0.348 N 
HETATM    2  C   UNL     1      43.697 -10.059   6.940  1.00  0.00     0.310 C 
HETATM    3  O   UNL     1      42.603  -9.516   6.849  1.00  0.00    -0.262 OA
HETATM    4  H   UNL     1      45.509 -10.333   7.846  1.00  0.00     0.163 HD
ENDROOT
BRANCH   2   5
HETATM    5  C   UNL     1      44.029 -11.271   6.041  1.00  0.00     0.313 C 
HETATM    6  N   UNL     1      43.141 -12.308   6.235  1.00  0.00    -0.319 N 
HETATM    7  H   UNL     1      42.417 -12.114   6.923  1.00  0.00     0.169 HD
HETATM    8  O   UNL     1      45.003 -11.210   5.305  1.00  0.00    -0.262 OA
BRANCH   6   9
HETATM    9  C   UNL     1      43.159 -13.580   5.641  1.00  0.00     0.036 A 
HETATM   10  C   UNL     1      42.788 -13.822   4.319  1.00  0.00     0.039 A 
HETATM   11  C   UNL     1      42.872 -15.115   3.778  1.00  0.00    -0.028 A 
HETATM   12  C   UNL     1      43.317 -16.182   4.568  1.00  0.00     0.050 A 
HETATM   13  C   UNL     1      42.401 -15.386   2.380  1.00  0.00     0.050 C 
HETATM   14  N   UNL     1      43.415 -17.480   4.000  1.00  0.00    -0.317 N 
HETATM   15  C   UNL     1      43.634 -15.958   5.916  1.00  0.00    -0.028 A 
HETATM   16  C   UNL     1      43.332 -17.701   2.628  1.00  0.00     0.224 C 
HETATM   17  C   UNL     1      43.793 -18.607   4.848  1.00  0.00     0.132 C 
HETATM   18  O   UNL     1      43.434 -18.819   2.119  1.00  0.00    -0.273 OA
HETATM   19  C   UNL     1      43.245 -16.472   1.751  1.00  0.00     0.108 C 
HETATM   20  C   UNL     1      43.472 -18.399   6.318  1.00  0.00     0.025 C 
HETATM   21  C   UNL     1      44.081 -17.092   6.799  1.00  0.00     0.042 C 
HETATM   22  C   UNL     1      43.573 -14.655   6.436  1.00  0.00     0.039 A 
ENDBRANCH   6   9
ENDBRANCH   2   5
BRANCH   1  23
HETATM   23  C   UNL     1      44.497  -8.728   8.835  1.00  0.00     0.169 C 
BRANCH  23  24
HETATM   24  C   UNL     1      43.888  -9.392  10.024  1.00  0.00     0.001 A 
HETATM   25  S   UNL     1      42.305  -8.979  10.530  1.00  0.00    -0.095 SA
HETATM   26  C   UNL     1      42.356 -10.075  11.851  1.00  0.00     0.017 A 
HETATM   27  C   UNL     1      43.565 -10.747  11.890  1.00  0.00     0.018 A 
HETATM   28  C   UNL     1      44.443 -10.357  10.839  1.00  0.00     0.017 A 
BRANCH  26  29
HETATM   29  C   UNL     1      41.172 -10.188  12.774  1.00  0.00     0.198 C 
BRANCH  29  30
HETATM   30  C   UNL     1      40.969  -8.977  13.645  1.00  0.00     0.016 A 
HETATM   31  S   UNL     1      39.760  -7.829  13.234  1.00  0.00    -0.103 SA
HETATM   32  C   UNL     1      40.155  -6.834  14.566  1.00  0.00     0.050 A 
HETATM   33  C   UNL     1      41.184  -7.356  15.314  1.00  0.00     0.008 A 
HETATM   34  C   UNL     1      41.658  -8.590  14.781  1.00  0.00     0.018 A 
ENDBRANCH  29  30
BRANCH  29  35
HETATM   35  O   UNL     1      40.004 -10.300  11.959  1.00  0.00    -0.385 OA
HETATM   36  H   UNL     1      40.004  -9.515  11.385  1.00  0.00     0.210 HD
ENDBRANCH  29  35
ENDBRANCH  26  29
ENDBRANCH  23  24
ENDBRANCH   1  23
TORSDOF 7
ENDMDL
MODEL 2
REMARK VINA RESULT:      -9.1      1.963      2.235
REMARK  7 active torsions:
REMARK  status: ('A' for Active; 'I' for Inactive)
REMARK    1  A    between atoms: C_4  and  C_5 
REMARK    2  A    between atoms: C_5  and  O_6 
REMARK    3  A    between atoms: C_5  and  C_7 
REMARK    4  A    between atoms: C_9  and  C_10 
REMARK    5  A    between atoms: C_10  and  N_11 
REMARK       I    between atoms: N_11  and  C_12 
REMARK    6  A    between atoms: C_12  and  C_13 
REMARK       I    between atoms: C_13  and  N_14 
REMARK    7  A    between atoms: N_14  and  C_15 
ROOT
HETATM    1  N   UNL     1      41.106 -10.197   6.837  1.00  0.00    -0.348 N 
HETATM    2  C   UNL     1      39.927 -10.900   6.851  1.00  0.00     0.310 C 
HETATM    3  O   UNL     1      38.880 -10.543   7.374  1.00  0.00    -0.262 OA
HETATM    4  H   UNL     1      41.922 -10.677   6.463  1.00  0.00     0.163 HD
ENDROOT
BRANCH   2   5
HETATM    5  C   UNL     1      40.006 -12.276   6.153  1.00  0.00     0.313 C 
HETATM    6  N   UNL     1      41.257 -12.842   6.278  1.00  0.00    -0.319 N 
HETATM    7  H   UNL     1      41.919 -12.276   6.805  1.00  0.00     0.169 HD
HETATM    8  O   UNL     1      39.018 -12.698   5.569  1.00  0.00    -0.262 OA
BRANCH   6   9
HETATM    9  C   UNL     1      41.716 -14.050   5.730  1.00  0.00     0.036 A 
HETATM   10  C   UNL     1      41.594 -14.383   4.382  1.00  0.00     0.039 A 
HETATM   11  C   UNL     1      42.117 -15.593   3.895  1.00  0.00    -0.028 A 
HETATM   12  C   UNL     1      42.754 -16.486   4.764  1.00  0.00     0.050 A 
HETATM   13  C   UNL     1      41.918 -15.983   2.460  1.00  0.00     0.050 C 
HETATM   14  N   UNL     1      43.295 -17.696   4.252  1.00  0.00    -0.317 N 
HETATM   15  C   UNL     1      42.827 -16.186   6.133  1.00  0.00    -0.028 A 
HETATM   16  C   UNL     1      43.446 -17.925   2.888  1.00  0.00     0.224 C 
HETATM   17  C   UNL     1      43.879 -18.666   5.173  1.00  0.00     0.132 C 
HETATM   18  O   UNL     1      43.931 -18.962   2.429  1.00  0.00    -0.273 OA
HETATM   19  C   UNL     1      43.112 -16.772   1.969  1.00  0.00     0.108 C 
HETATM   20  C   UNL     1      43.336 -18.568   6.588  1.00  0.00     0.025 C 
HETATM   21  C   UNL     1      43.475 -17.142   7.096  1.00  0.00     0.042 C 
HETATM   22  C   UNL     1      42.326 -14.959   6.601  1.00  0.00     0.039 A 
ENDBRANCH   6   9
ENDBRANCH   2   5
BRANCH   1  23
HETATM   23  C   UNL     1      41.261  -8.983   7.591  1.00  0.00     0.169 C 
BRANCH  23  24
HETATM   24  C   UNL     1      41.900  -9.309   8.900  1.00  0.00     0.001 A 
HETATM   25  S   UNL     1      40.949  -9.439  10.319  1.00  0.00    -0.095 SA
HETATM   26  C   UNL     1      42.316  -9.786  11.298  1.00  0.00     0.017 A 
HETATM   27  C   UNL     1      43.474  -9.809  10.540  1.00  0.00     0.018 A 
HETATM   28  C   UNL     1      43.234  -9.538   9.163  1.00  0.00     0.017 A 
BRANCH  26  29
HETATM   29  C   UNL     1      42.138 -10.010  12.776  1.00  0.00     0.198 C 
BRANCH  29  30
HETATM   30  C   UNL     1      42.323  -8.766  13.601  1.00  0.00     0.016 A 
HETATM   31  S   UNL     1      41.290  -8.475  14.942  1.00  0.00    -0.103 SA
HETATM   32  C   UNL     1      42.050  -6.986  15.292  1.00  0.00     0.050 A 
HETATM   33  C   UNL     1      43.071  -6.706  14.413  1.00  0.00     0.008 A 
HETATM   34  C   UNL     1      43.225  -7.730  13.434  1.00  0.00     0.018 A 
ENDBRANCH  29  30
BRANCH  29  35
HETATM   35  O   UNL     1      40.790 -10.438  12.983  1.00  0.00    -0.385 OA
HETATM   36  H   UNL     1      40.690 -10.545  13.945  1.00  0.00     0.210 HD
ENDBRANCH  29  35
ENDBRANCH  26  29
ENDBRANCH  23  24
ENDBRANCH   1  23
TORSDOF 7
ENDMDL
MODEL 3
REMARK VINA RESULT:      -9.0      1.983      2.976
REMARK  7 active torsions:
REMARK  status: ('A' for Active; 'I' for Inactive)
REMARK    1  A    between atoms: C_4  and  C_5 
REMARK    2  A    between atoms: C_5  and  O_6 
REMARK    3  A    between atoms: C_5  and  C_7 
REMARK    4  A    between atoms: C_9  and  C_10 
REMARK    5  A    between atoms: C_10  and  N_11 
REMARK       I    between atoms: N_11  and  C_12 
REMARK    6  A    between atoms: C_12  and  C_13 
REMARK       I    between atoms: C_13  and  N_14 
REMARK    7  A    between atoms: N_14  and  C_15 
ROOT
HETATM    1  N   UNL     1      41.008 -10.165   7.112  1.00  0.00    -0.348 N 
HETATM    2  C   UNL     1      39.839 -10.810   6.796  1.00  0.00     0.310 C 
HETATM    3  O   UNL     1      38.707 -10.373   6.955  1.00  0.00    -0.262 OA
HETATM    4  H   UNL     1      41.867 -10.704   7.030  1.00  0.00     0.163 HD
ENDROOT
BRANCH   2   5
HETATM    5  C   UNL     1      40.039 -12.229   6.219  1.00  0.00     0.313 C 
HETATM    6  N   UNL     1      41.376 -12.551   6.108  1.00  0.00    -0.319 N 
HETATM    7  H   UNL     1      42.008 -11.818   6.422  1.00  0.00     0.169 HD
HETATM    8  O   UNL     1      39.055 -12.885   5.911  1.00  0.00    -0.262 OA
BRANCH   6   9
HETATM    9  C   UNL     1      41.940 -13.722   5.578  1.00  0.00     0.036 A 
HETATM   10  C   UNL     1      42.591 -14.684   6.349  1.00  0.00     0.039 A 
HETATM   11  C   UNL     1      43.093 -15.855   5.757  1.00  0.00    -0.028 A 
HETATM   12  C   UNL     1      42.958 -16.061   4.378  1.00  0.00     0.050 A 
HETATM   13  C   UNL     1      43.860 -16.851   6.574  1.00  0.00     0.050 C 
HETATM   14  N   UNL     1      43.453 -17.259   3.798  1.00  0.00    -0.317 N 
HETATM   15  C   UNL     1      42.358 -15.071   3.587  1.00  0.00    -0.028 A 
HETATM   16  C   UNL     1      43.844 -18.353   4.566  1.00  0.00     0.224 C 
HETATM   17  C   UNL     1      43.392 -17.433   2.351  1.00  0.00     0.132 C 
HETATM   18  O   UNL     1      44.258 -19.406   4.077  1.00  0.00    -0.273 OA
HETATM   19  C   UNL     1      43.607 -18.250   6.056  1.00  0.00     0.108 C 
HETATM   20  C   UNL     1      43.359 -16.125   1.579  1.00  0.00     0.025 C 
HETATM   21  C   UNL     1      42.229 -15.249   2.099  1.00  0.00     0.042 C 
HETATM   22  C   UNL     1      41.834 -13.918   4.196  1.00  0.00     0.039 A 
ENDBRANCH   6   9
ENDBRANCH   2   5
BRANCH   1  23
HETATM   23  C   UNL     1      41.003  -8.914   7.821  1.00  0.00     0.169 C 
BRANCH  23  24
HETATM   24  C   UNL     1      41.267  -9.179   9.265  1.00  0.00     0.001 A 
HETATM   25  S   UNL     1      39.968  -9.297  10.376  1.00  0.00    -0.095 SA
HETATM   26  C   UNL     1      41.023  -9.570  11.703  1.00  0.00     0.017 A 
HETATM   27  C   UNL     1      42.344  -9.578  11.290  1.00  0.00     0.018 A 
HETATM   28  C   UNL     1      42.483  -9.357   9.891  1.00  0.00     0.017 A 
BRANCH  26  29
HETATM   29  C   UNL     1      40.453  -9.756  13.084  1.00  0.00     0.198 C 
BRANCH  29  30
HETATM   30  C   UNL     1      40.761  -8.619  14.020  1.00  0.00     0.016 A 
HETATM   31  S   UNL     1      39.892  -7.143  13.878  1.00  0.00    -0.103 SA
HETATM   32  C   UNL     1      40.775  -6.423  15.152  1.00  0.00     0.050 A 
HETATM   33  C   UNL     1      41.713  -7.278  15.681  1.00  0.00     0.008 A 
HETATM   34  C   UNL     1      41.709  -8.544  15.026  1.00  0.00     0.018 A 
ENDBRANCH  29  30
BRANCH  29  35
HETATM   35  O   UNL     1      39.030  -9.802  12.956  1.00  0.00    -0.385 OA
HETATM   36  H   UNL     1      38.752 -10.629  13.384  1.00  0.00     0.210 HD
ENDBRANCH  29  35
ENDBRANCH  26  29
ENDBRANCH  23  24
ENDBRANCH   1  23
TORSDOF 7
ENDMDL
MODEL 4
REMARK VINA RESULT:      -8.8      1.924      3.058
REMARK  7 active torsions:
REMARK  status: ('A' for Active; 'I' for Inactive)
REMARK    1  A    between atoms: C_4  and  C_5 
REMARK    2  A    between atoms: C_5  and  O_6 
REMARK    3  A    between atoms: C_5  and  C_7 
REMARK    4  A    between atoms: C_9  and  C_10 
REMARK    5  A    between atoms: C_10  and  N_11 
REMARK       I    between atoms: N_11  and  C_12 
REMARK    6  A    between atoms: C_12  and  C_13 
REMARK       I    between atoms: C_13  and  N_14 
REMARK    7  A    between atoms: N_14  and  C_15 
ROOT
HETATM    1  N   UNL     1      42.092 -10.059   8.896  1.00  0.00    -0.348 N 
HETATM    2  C   UNL     1      43.262  -9.861   8.205  1.00  0.00     0.310 C 
HETATM    3  O   UNL     1      43.815  -8.786   8.015  1.00  0.00    -0.262 OA
HETATM    4  H   UNL     1      41.696 -10.996   8.870  1.00  0.00     0.163 HD
ENDROOT
BRANCH   2   5
HETATM    5  C   UNL     1      43.868 -11.152   7.611  1.00  0.00     0.313 C 
HETATM    6  N   UNL     1      42.975 -11.802   6.784  1.00  0.00    -0.319 N 
HETATM    7  H   UNL     1      42.075 -11.335   6.694  1.00  0.00     0.169 HD
HETATM    8  O   UNL     1      45.005 -11.470   7.928  1.00  0.00    -0.262 OA
BRANCH   6   9
HETATM    9  C   UNL     1      43.150 -13.025   6.117  1.00  0.00     0.036 A 
HETATM   10  C   UNL     1      43.624 -14.181   6.735  1.00  0.00     0.039 A 
HETATM   11  C   UNL     1      43.732 -15.383   6.015  1.00  0.00    -0.028 A 
HETATM   12  C   UNL     1      43.379 -15.427   4.661  1.00  0.00     0.050 A 
HETATM   13  C   UNL     1      44.313 -16.606   6.661  1.00  0.00     0.050 C 
HETATM   14  N   UNL     1      43.475 -16.655   3.953  1.00  0.00    -0.317 N 
HETATM   15  C   UNL     1      42.959 -14.254   4.017  1.00  0.00    -0.028 A 
HETATM   16  C   UNL     1      43.664 -17.874   4.597  1.00  0.00     0.224 C 
HETATM   17  C   UNL     1      43.192 -16.680   2.521  1.00  0.00     0.132 C 
HETATM   18  O   UNL     1      43.731 -18.949   3.998  1.00  0.00    -0.273 OA
HETATM   19  C   UNL     1      43.648 -17.847   6.109  1.00  0.00     0.108 C 
HETATM   20  C   UNL     1      43.399 -15.341   1.834  1.00  0.00     0.025 C 
HETATM   21  C   UNL     1      42.605 -14.263   2.555  1.00  0.00     0.042 C 
HETATM   22  C   UNL     1      42.827 -13.066   4.756  1.00  0.00     0.039 A 
ENDBRANCH   6   9
ENDBRANCH   2   5
BRANCH   1  23
HETATM   23  C   UNL     1      41.303  -8.951   9.361  1.00  0.00     0.169 C 
BRANCH  23  24
HETATM   24  C   UNL     1      41.712  -8.622  10.758  1.00  0.00     0.001 A 
HETATM   25  S   UNL     1      41.617  -7.010  11.331  1.00  0.00    -0.095 SA
HETATM   26  C   UNL     1      42.230  -7.440  12.877  1.00  0.00     0.017 A 
HETATM   27  C   UNL     1      42.491  -8.798  12.945  1.00  0.00     0.018 A 
HETATM   28  C   UNL     1      42.191  -9.476  11.730  1.00  0.00     0.017 A 
BRANCH  26  29
HETATM   29  C   UNL     1      42.415  -6.379  13.928  1.00  0.00     0.198 C 
BRANCH  29  30
HETATM   30  C   UNL     1      41.311  -6.344  14.950  1.00  0.00     0.016 A 
HETATM   31  S   UNL     1      41.661  -6.717  16.590  1.00  0.00    -0.103 SA
HETATM   32  C   UNL     1      40.030  -6.510  17.056  1.00  0.00     0.050 A 
HETATM   33  C   UNL     1      39.228  -6.163  15.993  1.00  0.00     0.008 A 
HETATM   34  C   UNL     1      39.965  -6.072  14.777  1.00  0.00     0.018 A 
ENDBRANCH  29  30
BRANCH  29  35
HETATM   35  O   UNL     1      43.616  -6.687  14.639  1.00  0.00    -0.385 OA
HETATM   36  H   UNL     1      44.057  -5.835  14.798  1.00  0.00     0.210 HD
ENDBRANCH  29  35
ENDBRANCH  26  29
ENDBRANCH  23  24
ENDBRANCH   1  23
TORSDOF 7
ENDMDL
MODEL 5
REMARK VINA RESULT:      -8.6      2.640      4.436
REMARK  7 active torsions:
REMARK  status: ('A' for Active; 'I' for Inactive)
REMARK    1  A    between atoms: C_4  and  C_5 
REMARK    2  A    between atoms: C_5  and  O_6 
REMARK    3  A    between atoms: C_5  and  C_7 
REMARK    4  A    between atoms: C_9  and  C_10 
REMARK    5  A    between atoms: C_10  and  N_11 
REMARK       I    between atoms: N_11  and  C_12 
REMARK    6  A    between atoms: C_12  and  C_13 
REMARK       I    between atoms: C_13  and  N_14 
REMARK    7  A    between atoms: N_14  and  C_15 
ROOT
HETATM    1  N   UNL     1      40.260  -9.436   5.370  1.00  0.00    -0.348 N 
HETATM    2  C   UNL     1      39.297 -10.334   5.761  1.00  0.00     0.310 C 
HETATM    3  O   UNL     1      38.155 -10.063   6.107  1.00  0.00    -0.262 OA
HETATM    4  H   UNL     1      41.197  -9.802   5.224  1.00  0.00     0.163 HD
ENDROOT
BRANCH   2   5
HETATM    5  C   UNL     1      39.775 -11.803   5.771  1.00  0.00     0.313 C 
HETATM    6  N   UNL     1      40.948 -11.964   5.065  1.00  0.00    -0.319 N 
HETATM    7  H   UNL     1      41.311 -11.104   4.659  1.00  0.00     0.169 HD
HETATM    8  O   UNL     1      39.096 -12.639   6.350  1.00  0.00    -0.262 OA
BRANCH   6   9
HETATM    9  C   UNL     1      41.646 -13.155   4.811  1.00  0.00     0.036 A 
HETATM   10  C   UNL     1      42.473 -13.781   5.744  1.00  0.00     0.039 A 
HETATM   11  C   UNL     1      43.106 -14.996   5.436  1.00  0.00    -0.028 A 
HETATM   12  C   UNL     1      42.925 -15.587   4.179  1.00  0.00     0.050 A 
HETATM   13  C   UNL     1      44.053 -15.628   6.412  1.00  0.00     0.050 C 
HETATM   14  N   UNL     1      43.556 -16.826   3.891  1.00  0.00    -0.317 N 
HETATM   15  C   UNL     1      42.144 -14.933   3.215  1.00  0.00    -0.028 A 
HETATM   16  C   UNL     1      44.144 -17.611   4.879  1.00  0.00     0.224 C 
HETATM   17  C   UNL     1      43.439 -17.395   2.552  1.00  0.00     0.132 C 
HETATM   18  O   UNL     1      44.679 -18.697   4.647  1.00  0.00    -0.273 OA
HETATM   19  C   UNL     1      43.978 -17.135   6.305  1.00  0.00     0.108 C 
HETATM   20  C   UNL     1      43.173 -16.362   1.471  1.00  0.00     0.025 C 
HETATM   21  C   UNL     1      41.959 -15.526   1.845  1.00  0.00     0.042 C 
HETATM   22  C   UNL     1      41.492 -13.733   3.546  1.00  0.00     0.039 A 
ENDBRANCH   6   9
ENDBRANCH   2   5
BRANCH   1  23
HETATM   23  C   UNL     1      40.044  -8.018   5.472  1.00  0.00     0.169 C 
BRANCH  23  24
HETATM   24  C   UNL     1      40.929  -7.473   6.543  1.00  0.00     0.001 A 
HETATM   25  S   UNL     1      42.223  -8.412   7.158  1.00  0.00    -0.095 SA
HETATM   26  C   UNL     1      42.693  -7.184   8.263  1.00  0.00     0.017 A 
HETATM   27  C   UNL     1      41.873  -6.076   8.148  1.00  0.00     0.018 A 
HETATM   28  C   UNL     1      40.862  -6.240   7.158  1.00  0.00     0.017 A 
BRANCH  26  29
HETATM   29  C   UNL     1      43.860  -7.416   9.184  1.00  0.00     0.198 C 
BRANCH  29  30
HETATM   30  C   UNL     1      43.682  -8.600  10.096  1.00  0.00     0.016 A 
HETATM   31  S   UNL     1      42.284  -8.702  11.090  1.00  0.00    -0.103 SA
HETATM   32  C   UNL     1      42.802 -10.174  11.785  1.00  0.00     0.050 A 
HETATM   33  C   UNL     1      44.013 -10.588  11.278  1.00  0.00     0.008 A 
HETATM   34  C   UNL     1      44.523  -9.678  10.308  1.00  0.00     0.018 A 
ENDBRANCH  29  30
BRANCH  29  35
HETATM   35  O   UNL     1      44.998  -7.702   8.368  1.00  0.00    -0.385 OA
HETATM   36  H   UNL     1      45.434  -8.468   8.778  1.00  0.00     0.210 HD
ENDBRANCH  29  35
ENDBRANCH  26  29
ENDBRANCH  23  24
ENDBRANCH   1  23
TORSDOF 7
ENDMDL
MODEL 6
REMARK VINA RESULT:      -8.5      1.469      2.634
REMARK  7 active torsions:
REMARK  status: ('A' for Active; 'I' for Inactive)
REMARK    1  A    between atoms: C_4  and  C_5 
REMARK    2  A    between atoms: C_5  and  O_6 
REMARK    3  A    between atoms: C_5  and  C_7 
REMARK    4  A    between atoms: C_9  and  C_10 
REMARK    5  A    between atoms: C_10  and  N_11 
REMARK       I    between atoms: N_11  and  C_12 
REMARK    6  A    between atoms: C_12  and  C_13 
REMARK       I    between atoms: C_13  and  N_14 
REMARK    7  A    between atoms: N_14  and  C_15 
ROOT
HETATM    1  N   UNL     1      43.265  -9.625   7.755  1.00  0.00    -0.348 N 
HETATM    2  C   UNL     1      43.967 -10.700   8.240  1.00  0.00     0.310 C 
HETATM    3  O   UNL     1      44.291 -10.884   9.406  1.00  0.00    -0.262 OA
HETATM    4  H   UNL     1      43.172  -9.556   6.744  1.00  0.00     0.163 HD
ENDROOT
BRANCH   2   5
HETATM    5  C   UNL     1      44.383 -11.722   7.158  1.00  0.00     0.313 C 
HETATM    6  N   UNL     1      43.414 -12.684   6.966  1.00  0.00    -0.319 N 
HETATM    7  H   UNL     1      42.591 -12.571   7.553  1.00  0.00     0.169 HD
HETATM    8  O   UNL     1      45.475 -11.601   6.623  1.00  0.00    -0.262 OA
BRANCH   6   9
HETATM    9  C   UNL     1      43.463 -13.798   6.112  1.00  0.00     0.036 A 
HETATM   10  C   UNL     1      43.904 -15.059   6.510  1.00  0.00     0.039 A 
HETATM   11  C   UNL     1      43.883 -16.139   5.613  1.00  0.00    -0.028 A 
HETATM   12  C   UNL     1      43.432 -15.957   4.300  1.00  0.00     0.050 A 
HETATM   13  C   UNL     1      44.428 -17.476   6.020  1.00  0.00     0.050 C 
HETATM   14  N   UNL     1      43.398 -17.064   3.411  1.00  0.00    -0.317 N 
HETATM   15  C   UNL     1      43.043 -14.678   3.874  1.00  0.00    -0.028 A 
HETATM   16  C   UNL     1      43.554 -18.376   3.849  1.00  0.00     0.224 C 
HETATM   17  C   UNL     1      43.013 -16.854   2.019  1.00  0.00     0.132 C 
HETATM   18  O   UNL     1      43.509 -19.349   3.093  1.00  0.00    -0.273 OA
HETATM   19  C   UNL     1      43.648 -18.581   5.344  1.00  0.00     0.108 C 
HETATM   20  C   UNL     1      43.257 -15.438   1.525  1.00  0.00     0.025 C 
HETATM   21  C   UNL     1      42.587 -14.444   2.460  1.00  0.00     0.042 C 
HETATM   22  C   UNL     1      43.041 -13.612   4.790  1.00  0.00     0.039 A 
ENDBRANCH   6   9
ENDBRANCH   2   5
BRANCH   1  23
HETATM   23  C   UNL     1      42.955  -8.497   8.590  1.00  0.00     0.169 C 
BRANCH  23  24
HETATM   24  C   UNL     1      41.883  -8.890   9.551  1.00  0.00     0.001 A 
HETATM   25  S   UNL     1      42.187  -8.882  11.237  1.00  0.00    -0.095 SA
HETATM   26  C   UNL     1      40.600  -9.426  11.605  1.00  0.00     0.017 A 
HETATM   27  C   UNL     1      39.857  -9.599  10.450  1.00  0.00     0.018 A 
HETATM   28  C   UNL     1      40.592  -9.288   9.272  1.00  0.00     0.017 A 
BRANCH  26  29
HETATM   29  C   UNL     1      40.202  -9.651  13.039  1.00  0.00     0.198 C 
BRANCH  29  30
HETATM   30  C   UNL     1      40.208  -8.397  13.870  1.00  0.00     0.016 A 
HETATM   31  S   UNL     1      41.287  -8.265  15.201  1.00  0.00    -0.103 SA
HETATM   32  C   UNL     1      40.703  -6.712  15.607  1.00  0.00     0.050 A 
HETATM   33  C   UNL     1      39.708  -6.293  14.755  1.00  0.00     0.008 A 
HETATM   34  C   UNL     1      39.418  -7.266  13.755  1.00  0.00     0.018 A 
ENDBRANCH  29  30
BRANCH  29  35
HETATM   35  O   UNL     1      38.856 -10.131  13.038  1.00  0.00    -0.385 OA
HETATM   36  H   UNL     1      38.910 -11.075  13.265  1.00  0.00     0.210 HD
ENDBRANCH  29  35
ENDBRANCH  26  29
ENDBRANCH  23  24
ENDBRANCH   1  23
TORSDOF 7
ENDMDL
MODEL 7
REMARK VINA RESULT:      -8.5      3.547     11.114
REMARK  7 active torsions:
REMARK  status: ('A' for Active; 'I' for Inactive)
REMARK    1  A    between atoms: C_4  and  C_5 
REMARK    2  A    between atoms: C_5  and  O_6 
REMARK    3  A    between atoms: C_5  and  C_7 
REMARK    4  A    between atoms: C_9  and  C_10 
REMARK    5  A    between atoms: C_10  and  N_11 
REMARK       I    between atoms: N_11  and  C_12 
REMARK    6  A    between atoms: C_12  and  C_13 
REMARK       I    between atoms: C_13  and  N_14 
REMARK    7  A    between atoms: N_14  and  C_15 
ROOT
HETATM    1  N   UNL     1      44.672 -10.275   7.653  1.00  0.00    -0.348 N 
HETATM    2  C   UNL     1      45.374  -9.174   8.075  1.00  0.00     0.310 C 
HETATM    3  O   UNL     1      46.545  -8.925   7.824  1.00  0.00    -0.262 OA
HETATM    4  H   UNL     1      43.739 -10.402   8.040  1.00  0.00     0.163 HD
ENDROOT
BRANCH   2   5
HETATM    5  C   UNL     1      44.561  -8.216   8.974  1.00  0.00     0.313 C 
HETATM    6  N   UNL     1      43.869  -8.898   9.953  1.00  0.00    -0.319 N 
HETATM    7  H   UNL     1      44.003  -9.906   9.932  1.00  0.00     0.169 HD
HETATM    8  O   UNL     1      44.587  -7.018   8.733  1.00  0.00    -0.262 OA
BRANCH   6   9
HETATM    9  C   UNL     1      42.987  -8.372  10.910  1.00  0.00     0.036 A 
HETATM   10  C   UNL     1      43.308  -8.227  12.259  1.00  0.00     0.039 A 
HETATM   11  C   UNL     1      42.391  -7.652  13.154  1.00  0.00    -0.028 A 
HETATM   12  C   UNL     1      41.134  -7.231  12.702  1.00  0.00     0.050 A 
HETATM   13  C   UNL     1      42.709  -7.566  14.618  1.00  0.00     0.050 C 
HETATM   14  N   UNL     1      40.226  -6.633  13.616  1.00  0.00    -0.317 N 
HETATM   15  C   UNL     1      40.781  -7.429  11.359  1.00  0.00    -0.028 A 
HETATM   16  C   UNL     1      40.614  -6.214  14.886  1.00  0.00     0.224 C 
HETATM   17  C   UNL     1      38.885  -6.276  13.163  1.00  0.00     0.132 C 
HETATM   18  O   UNL     1      39.842  -5.677  15.683  1.00  0.00    -0.273 OA
HETATM   19  C   UNL     1      42.087  -6.321  15.210  1.00  0.00     0.108 C 
HETATM   20  C   UNL     1      38.405  -7.092  11.976  1.00  0.00     0.025 C 
HETATM   21  C   UNL     1      39.426  -7.018  10.852  1.00  0.00     0.042 C 
HETATM   22  C   UNL     1      41.719  -7.978  10.469  1.00  0.00     0.039 A 
ENDBRANCH   6   9
ENDBRANCH   2   5
BRANCH   1  23
HETATM   23  C   UNL     1      45.321 -11.355   6.960  1.00  0.00     0.169 C 
BRANCH  23  24
HETATM   24  C   UNL     1      44.282 -12.313   6.482  1.00  0.00     0.001 A 
HETATM   25  S   UNL     1      43.542 -12.096   4.952  1.00  0.00    -0.095 SA
HETATM   26  C   UNL     1      42.546 -13.481   5.150  1.00  0.00     0.017 A 
HETATM   27  C   UNL     1      42.790 -14.097   6.365  1.00  0.00     0.018 A 
HETATM   28  C   UNL     1      43.789 -13.428   7.128  1.00  0.00     0.017 A 
BRANCH  26  29
HETATM   29  C   UNL     1      41.572 -13.861   4.066  1.00  0.00     0.198 C 
BRANCH  29  30
HETATM   30  C   UNL     1      41.995 -15.067   3.272  1.00  0.00     0.016 A 
HETATM   31  S   UNL     1      43.206 -14.906   2.065  1.00  0.00    -0.103 SA
HETATM   32  C   UNL     1      43.096 -16.557   1.638  1.00  0.00     0.050 A 
HETATM   33  C   UNL     1      42.160 -17.226   2.393  1.00  0.00     0.008 A 
HETATM   34  C   UNL     1      41.521 -16.366   3.332  1.00  0.00     0.018 A 
ENDBRANCH  29  30
BRANCH  29  35
HETATM   35  O   UNL     1      40.339 -14.205   4.701  1.00  0.00    -0.385 OA
HETATM   36  H   UNL     1      39.668 -13.618   4.314  1.00  0.00     0.210 HD
ENDBRANCH  29  35
ENDBRANCH  26  29
ENDBRANCH  23  24
ENDBRANCH   1  23
TORSDOF 7
ENDMDL
MODEL 8
REMARK VINA RESULT:      -8.5      2.607      3.978
REMARK  7 active torsions:
REMARK  status: ('A' for Active; 'I' for Inactive)
REMARK    1  A    between atoms: C_4  and  C_5 
REMARK    2  A    between atoms: C_5  and  O_6 
REMARK    3  A    between atoms: C_5  and  C_7 
REMARK    4  A    between atoms: C_9  and  C_10 
REMARK    5  A    between atoms: C_10  and  N_11 
REMARK       I    between atoms: N_11  and  C_12 
REMARK    6  A    between atoms: C_12  and  C_13 
REMARK       I    between atoms: C_13  and  N_14 
REMARK    7  A    between atoms: N_14  and  C_15 
ROOT
HETATM    1  N   UNL     1      40.414  -9.659   5.177  1.00  0.00    -0.348 N 
HETATM    2  C   UNL     1      39.366 -10.468   5.541  1.00  0.00     0.310 C 
HETATM    3  O   UNL     1      38.218 -10.107   5.761  1.00  0.00    -0.262 OA
HETATM    4  H   UNL     1      41.336 -10.088   5.143  1.00  0.00     0.163 HD
ENDROOT
BRANCH   2   5
HETATM    5  C   UNL     1      39.747 -11.957   5.700  1.00  0.00     0.313 C 
HETATM    6  N   UNL     1      40.836 -12.291   4.922  1.00  0.00    -0.319 N 
HETATM    7  H   UNL     1      41.213 -11.518   4.379  1.00  0.00     0.169 HD
HETATM    8  O   UNL     1      39.074 -12.662   6.438  1.00  0.00    -0.262 OA
BRANCH   6   9
HETATM    9  C   UNL     1      41.428 -13.554   4.765  1.00  0.00     0.036 A 
HETATM   10  C   UNL     1      41.334 -14.313   3.599  1.00  0.00     0.039 A 
HETATM   11  C   UNL     1      41.990 -15.550   3.497  1.00  0.00    -0.028 A 
HETATM   12  C   UNL     1      42.736 -16.044   4.574  1.00  0.00     0.050 A 
HETATM   13  C   UNL     1      41.825 -16.399   2.271  1.00  0.00     0.050 C 
HETATM   14  N   UNL     1      43.410 -17.288   4.447  1.00  0.00    -0.317 N 
HETATM   15  C   UNL     1      42.786 -15.315   5.772  1.00  0.00    -0.028 A 
HETATM   16  C   UNL     1      43.574 -17.925   3.221  1.00  0.00     0.224 C 
HETATM   17  C   UNL     1      44.112 -17.843   5.600  1.00  0.00     0.132 C 
HETATM   18  O   UNL     1      44.172 -18.995   3.092  1.00  0.00    -0.273 OA
HETATM   19  C   UNL     1      43.098 -17.169   2.000  1.00  0.00     0.108 C 
HETATM   20  C   UNL     1      43.574 -17.357   6.935  1.00  0.00     0.025 C 
HETATM   21  C   UNL     1      43.550 -15.837   6.958  1.00  0.00     0.042 C 
HETATM   22  C   UNL     1      42.149 -14.065   5.851  1.00  0.00     0.039 A 
ENDBRANCH   6   9
ENDBRANCH   2   5
BRANCH   1  23
HETATM   23  C   UNL     1      40.280  -8.227   5.157  1.00  0.00     0.169 C 
BRANCH  23  24
HETATM   24  C   UNL     1      41.104  -7.652   6.260  1.00  0.00     0.001 A 
HETATM   25  S   UNL     1      42.390  -8.555   6.941  1.00  0.00    -0.095 SA
HETATM   26  C   UNL     1      42.782  -7.307   8.054  1.00  0.00     0.017 A 
HETATM   27  C   UNL     1      41.942  -6.219   7.892  1.00  0.00     0.018 A 
HETATM   28  C   UNL     1      40.981  -6.416   6.861  1.00  0.00     0.017 A 
BRANCH  26  29
HETATM   29  C   UNL     1      43.912  -7.504   9.029  1.00  0.00     0.198 C 
BRANCH  29  30
HETATM   30  C   UNL     1      43.684  -8.634   9.996  1.00  0.00     0.016 A 
HETATM   31  S   UNL     1      42.236  -8.682  10.919  1.00  0.00    -0.103 SA
HETATM   32  C   UNL     1      42.714 -10.111  11.722  1.00  0.00     0.050 A 
HETATM   33  C   UNL     1      43.949 -10.552  11.305  1.00  0.00     0.008 A 
HETATM   34  C   UNL     1      44.511  -9.698  10.313  1.00  0.00     0.018 A 
ENDBRANCH  29  30
BRANCH  29  35
HETATM   35  O   UNL     1      45.074  -7.848   8.271  1.00  0.00    -0.385 OA
HETATM   36  H   UNL     1      44.807  -7.796   7.337  1.00  0.00     0.210 HD
ENDBRANCH  29  35
ENDBRANCH  26  29
ENDBRANCH  23  24
ENDBRANCH   1  23
TORSDOF 7
ENDMDL
MODEL 9
REMARK VINA RESULT:      -8.4      3.582     11.175
REMARK  7 active torsions:
REMARK  status: ('A' for Active; 'I' for Inactive)
REMARK    1  A    between atoms: C_4  and  C_5 
REMARK    2  A    between atoms: C_5  and  O_6 
REMARK    3  A    between atoms: C_5  and  C_7 
REMARK    4  A    between atoms: C_9  and  C_10 
REMARK    5  A    between atoms: C_10  and  N_11 
REMARK       I    between atoms: N_11  and  C_12 
REMARK    6  A    between atoms: C_12  and  C_13 
REMARK       I    between atoms: C_13  and  N_14 
REMARK    7  A    between atoms: N_14  and  C_15 
ROOT
HETATM    1  N   UNL     1      44.958  -9.968   7.693  1.00  0.00    -0.348 N 
HETATM    2  C   UNL     1      44.879 -10.002   9.063  1.00  0.00     0.310 C 
HETATM    3  O   UNL     1      45.425 -10.814   9.798  1.00  0.00    -0.262 OA
HETATM    4  H   UNL     1      44.355  -9.304   7.214  1.00  0.00     0.163 HD
ENDROOT
BRANCH   2   5
HETATM    5  C   UNL     1      43.976  -8.904   9.668  1.00  0.00     0.313 C 
HETATM    6  N   UNL     1      43.412  -9.307  10.860  1.00  0.00    -0.319 N 
HETATM    7  H   UNL     1      43.677 -10.246  11.151  1.00  0.00     0.169 HD
HETATM    8  O   UNL     1      43.836  -7.854   9.059  1.00  0.00    -0.262 OA
BRANCH   6   9
HETATM    9  C   UNL     1      42.500  -8.605  11.664  1.00  0.00     0.036 A 
HETATM   10  C   UNL     1      41.212  -8.263  11.253  1.00  0.00     0.039 A 
HETATM   11  C   UNL     1      40.337  -7.597  12.127  1.00  0.00    -0.028 A 
HETATM   12  C   UNL     1      40.755  -7.255  13.419  1.00  0.00     0.050 A 
HETATM   13  C   UNL     1      38.979  -7.163  11.659  1.00  0.00     0.050 C 
HETATM   14  N   UNL     1      39.851  -6.601  14.298  1.00  0.00    -0.317 N 
HETATM   15  C   UNL     1      42.069  -7.542  13.818  1.00  0.00    -0.028 A 
HETATM   16  C   UNL     1      38.489  -6.504  14.028  1.00  0.00     0.224 C 
HETATM   17  C   UNL     1      40.317  -6.166  15.611  1.00  0.00     0.132 C 
HETATM   18  O   UNL     1      37.689  -5.955  14.789  1.00  0.00    -0.273 OA
HETATM   19  C   UNL     1      37.990  -7.234  12.801  1.00  0.00     0.108 C 
HETATM   20  C   UNL     1      41.815  -5.925  15.679  1.00  0.00     0.025 C 
HETATM   21  C   UNL     1      42.558  -7.157  15.188  1.00  0.00     0.042 C 
HETATM   22  C   UNL     1      42.924  -8.234  12.945  1.00  0.00     0.039 A 
ENDBRANCH   6   9
ENDBRANCH   2   5
BRANCH   1  23
HETATM   23  C   UNL     1      45.608 -11.019   6.956  1.00  0.00     0.169 C 
BRANCH  23  24
HETATM   24  C   UNL     1      44.565 -11.920   6.384  1.00  0.00     0.001 A 
HETATM   25  S   UNL     1      43.923 -11.622   4.824  1.00  0.00    -0.095 SA
HETATM   26  C   UNL     1      42.869 -12.975   4.913  1.00  0.00     0.017 A 
HETATM   27  C   UNL     1      43.021 -13.641   6.116  1.00  0.00     0.018 A 
HETATM   28  C   UNL     1      43.997 -13.038   6.959  1.00  0.00     0.017 A 
BRANCH  26  29
HETATM   29  C   UNL     1      41.947 -13.280   3.763  1.00  0.00     0.198 C 
BRANCH  29  30
HETATM   30  C   UNL     1      42.241 -14.592   3.087  1.00  0.00     0.016 A 
HETATM   31  S   UNL     1      41.301 -15.976   3.476  1.00  0.00    -0.103 SA
HETATM   32  C   UNL     1      42.201 -16.969   2.416  1.00  0.00     0.050 A 
HETATM   33  C   UNL     1      43.198 -16.272   1.774  1.00  0.00     0.008 A 
HETATM   34  C   UNL     1      43.225 -14.902   2.164  1.00  0.00     0.018 A 
ENDBRANCH  29  30
BRANCH  29  35
HETATM   35  O   UNL     1      40.624 -13.384   4.292  1.00  0.00    -0.385 OA
HETATM   36  H   UNL     1      40.042 -12.962   3.637  1.00  0.00     0.210 HD
ENDBRANCH  29  35
ENDBRANCH  26  29
ENDBRANCH  23  24
ENDBRANCH   1  23
TORSDOF 7
ENDMDL
MODEL 10
REMARK VINA RESULT:      -8.3      3.905     10.918
REMARK  7 active torsions:
REMARK  status: ('A' for Active; 'I' for Inactive)
REMARK    1  A    between atoms: C_4  and  C_5 
REMARK    2  A    between atoms: C_5  and  O_6 
REMARK    3  A    between atoms: C_5  and  C_7 
REMARK    4  A    between atoms: C_9  and  C_10 
REMARK    5  A    between atoms: C_10  and  N_11 
REMARK       I    between atoms: N_11  and  C_12 
REMARK    6  A    between atoms: C_12  and  C_13 
REMARK       I    between atoms: C_13  and  N_14 
REMARK    7  A    between atoms: N_14  and  C_15 
ROOT
HETATM    1  N   UNL     1      43.396 -12.730   7.162  1.00  0.00    -0.348 N 
HETATM    2  C   UNL     1      44.533 -11.961   7.177  1.00  0.00     0.310 C 
HETATM    3  O   UNL     1      45.455 -12.021   6.375  1.00  0.00    -0.262 OA
HETATM    4  H   UNL     1      42.774 -12.645   7.962  1.00  0.00     0.163 HD
ENDROOT
BRANCH   2   5
HETATM    5  C   UNL     1      44.608 -10.971   8.360  1.00  0.00     0.313 C 
HETATM    6  N   UNL     1      43.383 -10.394   8.622  1.00  0.00    -0.319 N 
HETATM    7  H   UNL     1      42.635 -10.709   8.008  1.00  0.00     0.169 HD
HETATM    8  O   UNL     1      45.686 -10.785   8.906  1.00  0.00    -0.262 OA
BRANCH   6   9
HETATM    9  C   UNL     1      43.078  -9.413   9.579  1.00  0.00     0.036 A 
HETATM   10  C   UNL     1      43.122  -8.044   9.323  1.00  0.00     0.039 A 
HETATM   11  C   UNL     1      42.760  -7.119  10.316  1.00  0.00    -0.028 A 
HETATM   12  C   UNL     1      42.366  -7.564  11.584  1.00  0.00     0.050 A 
HETATM   13  C   UNL     1      42.881  -5.645  10.063  1.00  0.00     0.050 C 
HETATM   14  N   UNL     1      41.984  -6.617  12.571  1.00  0.00    -0.317 N 
HETATM   15  C   UNL     1      42.377  -8.938  11.868  1.00  0.00    -0.028 A 
HETATM   16  C   UNL     1      41.742  -5.281  12.267  1.00  0.00     0.224 C 
HETATM   17  C   UNL     1      41.660  -7.077  13.918  1.00  0.00     0.132 C 
HETATM   18  O   UNL     1      41.392  -4.451  13.109  1.00  0.00    -0.273 OA
HETATM   19  C   UNL     1      41.791  -4.902  10.804  1.00  0.00     0.108 C 
HETATM   20  C   UNL     1      42.314  -8.398  14.286  1.00  0.00     0.025 C 
HETATM   21  C   UNL     1      41.992  -9.444  13.231  1.00  0.00     0.042 C 
HETATM   22  C   UNL     1      42.713  -9.853  10.856  1.00  0.00     0.039 A 
ENDBRANCH   6   9
ENDBRANCH   2   5
BRANCH   1  23
HETATM   23  C   UNL     1      43.244 -13.821   6.238  1.00  0.00     0.169 C 
BRANCH  23  24
HETATM   24  C   UNL     1      42.551 -13.323   5.014  1.00  0.00     0.001 A 
HETATM   25  S   UNL     1      40.889 -13.653   4.764  1.00  0.00    -0.095 SA
HETATM   26  C   UNL     1      40.870 -12.824   3.261  1.00  0.00     0.017 A 
HETATM   27  C   UNL     1      42.116 -12.299   2.969  1.00  0.00     0.018 A 
HETATM   28  C   UNL     1      43.080 -12.582   3.977  1.00  0.00     0.017 A 
BRANCH  26  29
HETATM   29  C   UNL     1      39.595 -12.757   2.462  1.00  0.00     0.198 C 
BRANCH  29  30
HETATM   30  C   UNL     1      39.787 -13.041   0.997  1.00  0.00     0.016 A 
HETATM   31  S   UNL     1      39.705 -11.751  -0.135  1.00  0.00    -0.103 SA
HETATM   32  C   UNL     1      39.963 -12.803  -1.456  1.00  0.00     0.050 A 
HETATM   33  C   UNL     1      40.110 -14.111  -1.055  1.00  0.00     0.008 A 
HETATM   34  C   UNL     1      40.004 -14.250   0.359  1.00  0.00     0.018 A 
ENDBRANCH  29  30
BRANCH  29  35
HETATM   35  O   UNL     1      38.725 -13.774   2.961  1.00  0.00    -0.385 OA
HETATM   36  H   UNL     1      38.754 -13.697   3.930  1.00  0.00     0.210 HD
ENDBRANCH  29  35
ENDBRANCH  26  29
ENDBRANCH  23  24
ENDBRANCH   1  23
TORSDOF 7
ENDMDL
