MODEL 1
REMARK VINA RESULT:     -10.0      0.000      0.000
REMARK  3 active torsions:
REMARK  status: ('A' for Active; 'I' for Inactive)
REMARK    1  A    between atoms: C_2  and  N_3 
REMARK    2  A    between atoms: C_6  and  C_7 
REMARK       I    between atoms: C_7  and  N_8 
REMARK    3  A    between atoms: N_8  and  C_9 
ROOT
HETATM    1  C   UNL     1      43.057 -11.973   5.674  1.00  0.00     0.036 A 
HETATM    2  C   UNL     1      43.634 -11.707   6.916  1.00  0.00     0.049 A 
HETATM    3  C   UNL     1      43.411 -10.482   7.586  1.00  0.00     0.061 A 
HETATM    4  C   UNL     1      42.607  -9.503   6.988  1.00  0.00     0.050 A 
HETATM    5  N   UNL     1      42.261  -8.257   7.534  1.00  0.00    -0.324 N 
HETATM    6  C   UNL     1      42.107  -7.911   8.848  1.00  0.00     0.245 C 
HETATM    7  O   UNL     1      41.633  -6.800   9.100  1.00  0.00    -0.271 OA
HETATM    8  C   UNL     1      42.317  -8.984   9.910  1.00  0.00     0.180 C 
HETATM    9  N   UNL     1      43.665  -9.524   9.853  1.00  0.00    -0.334 N 
HETATM   10  C   UNL     1      44.190 -10.288   8.839  1.00  0.00     0.256 C 
HETATM   11  O   UNL     1      45.290 -10.828   8.941  1.00  0.00    -0.267 OA
HETATM   12  C   UNL     1      42.194  -8.421  11.332  1.00  0.00     0.037 C 
HETATM   13  C   UNL     1      43.180  -9.262  12.131  1.00  0.00     0.022 C 
HETATM   14  C   UNL     1      44.322  -9.452  11.147  1.00  0.00     0.127 C 
HETATM   15  C   UNL     1      42.085  -9.752   5.709  1.00  0.00     0.033 A 
HETATM   16  C   UNL     1      42.290 -10.978   5.069  1.00  0.00     0.032 A 
HETATM   17  H   UNL     1      41.889  -7.546   6.914  1.00  0.00     0.169 HD
ENDROOT
BRANCH   1  18
HETATM   18  N   UNL     1      43.200 -13.188   4.970  1.00  0.00    -0.323 N 
HETATM   19  C   UNL     1      42.218 -14.115   4.677  1.00  0.00     0.257 C 
HETATM   20  O   UNL     1      41.025 -14.017   4.942  1.00  0.00    -0.267 OA
HETATM   21  H   UNL     1      44.121 -13.377   4.598  1.00  0.00     0.169 HD
BRANCH  19  22
HETATM   22  C   UNL     1      42.665 -15.302   3.898  1.00  0.00     0.044 A 
HETATM   23  C   UNL     1      42.997 -16.545   4.498  1.00  0.00     0.008 A 
HETATM   24  C   UNL     1      43.458 -17.587   3.673  1.00  0.00     0.045 A 
HETATM   25  C   UNL     1      42.946 -17.071   5.822  1.00  0.00     0.032 A 
HETATM   26  N   UNL     1      43.744 -18.667   4.493  1.00  0.00    -0.352 N 
HETATM   27  C   UNL     1      43.553 -17.431   2.279  1.00  0.00     0.030 A 
HETATM   28  C   UNL     1      43.429 -18.355   5.793  1.00  0.00     0.092 A 
HETATM   29  C   UNL     1      43.183 -16.214   1.706  1.00  0.00     0.003 A 
HETATM   30  C   UNL     1      42.748 -15.162   2.501  1.00  0.00     0.018 A 
BRANCH  26  31
HETATM   31  C   UNL     1      44.276 -19.975   4.100  1.00  0.00     0.081 C 
HETATM   32  C   UNL     1      43.574 -20.564   2.876  1.00  0.00     0.032 C 
HETATM   33  C   UNL     1      44.324 -20.957   5.271  1.00  0.00     0.032 C 
ENDBRANCH  26  31
ENDBRANCH  19  22
ENDBRANCH   1  18
TORSDOF 3
ENDMDL
MODEL 2
REMARK VINA RESULT:     -10.0      2.568      9.902
REMARK  3 active torsions:
REMARK  status: ('A' for Active; 'I' for Inactive)
REMARK    1  A    between atoms: C_2  and  N_3 
REMARK    2  A    between atoms: C_6  and  C_7 
REMARK       I    between atoms: C_7  and  N_8 
REMARK    3  A    between atoms: N_8  and  C_9 
ROOT
HETATM    1  C   UNL     1      43.068 -12.317   6.585  1.00  0.00     0.036 A 
HETATM    2  C   UNL     1      42.674 -12.259   5.247  1.00  0.00     0.049 A 
HETATM    3  C   UNL     1      42.688 -13.408   4.422  1.00  0.00     0.061 A 
HETATM    4  C   UNL     1      43.120 -14.631   4.950  1.00  0.00     0.050 A 
HETATM    5  N   UNL     1      43.159 -15.864   4.278  1.00  0.00    -0.324 N 
HETATM    6  C   UNL     1      42.349 -16.318   3.273  1.00  0.00     0.245 C 
HETATM    7  O   UNL     1      42.452 -17.501   2.941  1.00  0.00    -0.271 OA
HETATM    8  C   UNL     1      41.228 -15.411   2.779  1.00  0.00     0.180 C 
HETATM    9  N   UNL     1      41.754 -14.160   2.259  1.00  0.00    -0.334 N 
HETATM   10  C   UNL     1      42.364 -13.170   2.990  1.00  0.00     0.256 C 
HETATM   11  O   UNL     1      42.644 -12.080   2.493  1.00  0.00    -0.267 OA
HETATM   12  C   UNL     1      40.468 -16.024   1.596  1.00  0.00     0.037 C 
HETATM   13  C   UNL     1      40.068 -14.812   0.767  1.00  0.00     0.022 C 
HETATM   14  C   UNL     1      41.277 -13.902   0.911  1.00  0.00     0.127 C 
HETATM   15  C   UNL     1      43.577 -14.668   6.276  1.00  0.00     0.033 A 
HETATM   16  C   UNL     1      43.532 -13.532   7.088  1.00  0.00     0.032 A 
HETATM   17  H   UNL     1      43.715 -16.612   4.676  1.00  0.00     0.169 HD
ENDROOT
BRANCH   1  18
HETATM   18  N   UNL     1      43.038 -11.223   7.475  1.00  0.00    -0.323 N 
HETATM   19  C   UNL     1      44.074 -10.735   8.249  1.00  0.00     0.257 C 
HETATM   20  O   UNL     1      45.228 -11.148   8.259  1.00  0.00    -0.267 OA
HETATM   21  H   UNL     1      42.167 -10.710   7.515  1.00  0.00     0.169 HD
BRANCH  19  22
HETATM   22  C   UNL     1      43.749  -9.548   9.085  1.00  0.00     0.044 A 
HETATM   23  C   UNL     1      43.377  -9.638  10.451  1.00  0.00     0.008 A 
HETATM   24  C   UNL     1      43.040  -8.455  11.135  1.00  0.00     0.045 A 
HETATM   25  C   UNL     1      43.282 -10.695  11.403  1.00  0.00     0.032 A 
HETATM   26  N   UNL     1      42.683  -8.812  12.426  1.00  0.00    -0.352 N 
HETATM   27  C   UNL     1      43.107  -7.200  10.506  1.00  0.00     0.030 A 
HETATM   28  C   UNL     1      42.835 -10.168  12.589  1.00  0.00     0.092 A 
HETATM   29  C   UNL     1      43.515  -7.131   9.173  1.00  0.00     0.003 A 
HETATM   30  C   UNL     1      43.829  -8.285   8.470  1.00  0.00     0.018 A 
BRANCH  26  31
HETATM   31  C   UNL     1      42.231  -7.932  13.507  1.00  0.00     0.081 C 
HETATM   32  C   UNL     1      43.366  -7.121  14.133  1.00  0.00     0.032 C 
HETATM   33  C   UNL     1      41.403  -8.677  14.554  1.00  0.00     0.032 C 
ENDBRANCH  26  31
ENDBRANCH  19  22
ENDBRANCH   1  18
TORSDOF 3
ENDMDL
MODEL 3
REMARK VINA RESULT:      -9.6      5.108      9.171
REMARK  3 active torsions:
REMARK  status: ('A' for Active; 'I' for Inactive)
REMARK    1  A    between atoms: C_2  and  N_3 
REMARK    2  A    between atoms: C_6  and  C_7 
REMARK       I    between atoms: C_7  and  N_8 
REMARK    3  A    between atoms: N_8  and  C_9 
ROOT
HETATM    1  C   UNL     1      42.352 -14.843   2.198  1.00  0.00     0.036 A 
HETATM    2  C   UNL     1      42.827 -16.139   2.401  1.00  0.00     0.049 A 
HETATM    3  C   UNL     1      43.365 -16.542   3.646  1.00  0.00     0.061 A 
HETATM    4  C   UNL     1      43.439 -15.619   4.697  1.00  0.00     0.050 A 
HETATM    5  N   UNL     1      43.909 -15.869   5.996  1.00  0.00    -0.324 N 
HETATM    6  C   UNL     1      43.869 -17.033   6.713  1.00  0.00     0.245 C 
HETATM    7  O   UNL     1      44.188 -16.988   7.904  1.00  0.00    -0.271 OA
HETATM    8  C   UNL     1      43.231 -18.259   6.069  1.00  0.00     0.180 C 
HETATM    9  N   UNL     1      43.923 -18.631   4.847  1.00  0.00    -0.334 N 
HETATM   10  C   UNL     1      43.948 -17.910   3.677  1.00  0.00     0.256 C 
HETATM   11  O   UNL     1      44.433 -18.371   2.645  1.00  0.00    -0.267 OA
HETATM   12  C   UNL     1      43.343 -19.503   6.961  1.00  0.00     0.037 C 
HETATM   13  C   UNL     1      43.474 -20.643   5.962  1.00  0.00     0.022 C 
HETATM   14  C   UNL     1      44.331 -20.025   4.869  1.00  0.00     0.127 C 
HETATM   15  C   UNL     1      43.021 -14.300   4.465  1.00  0.00     0.033 A 
HETATM   16  C   UNL     1      42.465 -13.922   3.238  1.00  0.00     0.032 A 
HETATM   17  H   UNL     1      44.144 -15.076   6.584  1.00  0.00     0.169 HD
ENDROOT
BRANCH   1  18
HETATM   18  N   UNL     1      41.764 -14.387   0.999  1.00  0.00    -0.323 N 
HETATM   19  C   UNL     1      40.425 -14.144   0.754  1.00  0.00     0.257 C 
HETATM   20  O   UNL     1      39.510 -14.242   1.563  1.00  0.00    -0.267 OA
HETATM   21  H   UNL     1      42.405 -14.168   0.248  1.00  0.00     0.169 HD
BRANCH  19  22
HETATM   22  C   UNL     1      40.101 -13.646  -0.611  1.00  0.00     0.044 A 
HETATM   23  C   UNL     1      40.496 -12.369  -1.087  1.00  0.00     0.008 A 
HETATM   24  C   UNL     1      40.093 -11.978  -2.377  1.00  0.00     0.045 A 
HETATM   25  C   UNL     1      41.293 -11.304  -0.573  1.00  0.00     0.032 A 
HETATM   26  N   UNL     1      40.568 -10.693  -2.586  1.00  0.00    -0.352 N 
HETATM   27  C   UNL     1      39.350 -12.838  -3.205  1.00  0.00     0.030 A 
HETATM   28  C   UNL     1      41.299 -10.288  -1.496  1.00  0.00     0.092 A 
HETATM   29  C   UNL     1      39.007 -14.105  -2.731  1.00  0.00     0.003 A 
HETATM   30  C   UNL     1      39.373 -14.505  -1.454  1.00  0.00     0.018 A 
BRANCH  26  31
HETATM   31  C   UNL     1      40.383  -9.851  -3.771  1.00  0.00     0.081 C 
HETATM   32  C   UNL     1      41.293  -8.622  -3.781  1.00  0.00     0.032 C 
HETATM   33  C   UNL     1      38.916  -9.490  -4.003  1.00  0.00     0.032 C 
ENDBRANCH  26  31
ENDBRANCH  19  22
ENDBRANCH   1  18
TORSDOF 3
ENDMDL
MODEL 4
REMARK VINA RESULT:      -9.6      1.928      9.684
REMARK  3 active torsions:
REMARK  status: ('A' for Active; 'I' for Inactive)
REMARK    1  A    between atoms: C_2  and  N_3 
REMARK    2  A    between atoms: C_6  and  C_7 
REMARK       I    between atoms: C_7  and  N_8 
REMARK    3  A    between atoms: N_8  and  C_9 
ROOT
HETATM    1  C   UNL     1      42.733 -12.056   6.243  1.00  0.00     0.036 A 
HETATM    2  C   UNL     1      42.609 -13.407   6.571  1.00  0.00     0.049 A 
HETATM    3  C   UNL     1      42.623 -14.412   5.576  1.00  0.00     0.061 A 
HETATM    4  C   UNL     1      42.749 -14.049   4.229  1.00  0.00     0.050 A 
HETATM    5  N   UNL     1      42.816 -14.922   3.131  1.00  0.00    -0.324 N 
HETATM    6  C   UNL     1      43.320 -16.192   3.076  1.00  0.00     0.245 C 
HETATM    7  O   UNL     1      43.433 -16.720   1.967  1.00  0.00    -0.271 OA
HETATM    8  C   UNL     1      43.911 -16.794   4.347  1.00  0.00     0.180 C 
HETATM    9  N   UNL     1      42.919 -16.862   5.407  1.00  0.00    -0.334 N 
HETATM   10  C   UNL     1      42.354 -15.793   6.060  1.00  0.00     0.256 C 
HETATM   11  O   UNL     1      41.636 -15.945   7.046  1.00  0.00    -0.267 OA
HETATM   12  C   UNL     1      44.351 -18.250   4.145  1.00  0.00     0.037 C 
HETATM   13  C   UNL     1      44.095 -18.887   5.504  1.00  0.00     0.022 C 
HETATM   14  C   UNL     1      42.812 -18.206   5.950  1.00  0.00     0.127 C 
HETATM   15  C   UNL     1      42.806 -12.686   3.902  1.00  0.00     0.033 A 
HETATM   16  C   UNL     1      42.819 -11.703   4.897  1.00  0.00     0.032 A 
HETATM   17  H   UNL     1      42.657 -14.543   2.204  1.00  0.00     0.169 HD
ENDROOT
BRANCH   1  18
HETATM   18  N   UNL     1      42.771 -11.006   7.185  1.00  0.00    -0.323 N 
HETATM   19  C   UNL     1      43.781 -10.711   8.082  1.00  0.00     0.257 C 
HETATM   20  O   UNL     1      44.854 -11.294   8.183  1.00  0.00    -0.267 OA
HETATM   21  H   UNL     1      41.986 -10.368   7.167  1.00  0.00     0.169 HD
BRANCH  19  22
HETATM   22  C   UNL     1      43.547  -9.521   8.945  1.00  0.00     0.044 A 
HETATM   23  C   UNL     1      43.255  -9.612  10.331  1.00  0.00     0.008 A 
HETATM   24  C   UNL     1      43.001  -8.426  11.043  1.00  0.00     0.045 A 
HETATM   25  C   UNL     1      43.182 -10.675  11.278  1.00  0.00     0.032 A 
HETATM   26  N   UNL     1      42.710  -8.783  12.350  1.00  0.00    -0.352 N 
HETATM   27  C   UNL     1      43.073  -7.167  10.421  1.00  0.00     0.030 A 
HETATM   28  C   UNL     1      42.825 -10.145  12.493  1.00  0.00     0.092 A 
HETATM   29  C   UNL     1      43.402  -7.099   9.066  1.00  0.00     0.003 A 
HETATM   30  C   UNL     1      43.633  -8.256   8.336  1.00  0.00     0.018 A 
BRANCH  26  31
HETATM   31  C   UNL     1      42.355  -7.899  13.464  1.00  0.00     0.081 C 
HETATM   32  C   UNL     1      43.542  -7.091  13.990  1.00  0.00     0.032 C 
HETATM   33  C   UNL     1      41.615  -8.638  14.578  1.00  0.00     0.032 C 
ENDBRANCH  26  31
ENDBRANCH  19  22
ENDBRANCH   1  18
TORSDOF 3
ENDMDL
MODEL 5
REMARK VINA RESULT:      -9.4      2.472      9.894
REMARK  3 active torsions:
REMARK  status: ('A' for Active; 'I' for Inactive)
REMARK    1  A    between atoms: C_2  and  N_3 
REMARK    2  A    between atoms: C_6  and  C_7 
REMARK       I    between atoms: C_7  and  N_8 
REMARK    3  A    between atoms: N_8  and  C_9 
ROOT
HETATM    1  C   UNL     1      43.308 -13.252   6.513  1.00  0.00     0.036 A 
HETATM    2  C   UNL     1      42.874 -12.982   5.215  1.00  0.00     0.049 A 
HETATM    3  C   UNL     1      42.759 -14.006   4.246  1.00  0.00     0.061 A 
HETATM    4  C   UNL     1      43.104 -15.320   4.587  1.00  0.00     0.050 A 
HETATM    5  N   UNL     1      43.013 -16.450   3.758  1.00  0.00    -0.324 N 
HETATM    6  C   UNL     1      42.133 -16.698   2.741  1.00  0.00     0.245 C 
HETATM    7  O   UNL     1      42.122 -17.830   2.251  1.00  0.00    -0.271 OA
HETATM    8  C   UNL     1      41.076 -15.646   2.424  1.00  0.00     0.180 C 
HETATM    9  N   UNL     1      41.688 -14.382   2.048  1.00  0.00    -0.334 N 
HETATM   10  C   UNL     1      42.406 -13.551   2.874  1.00  0.00     0.256 C 
HETATM   11  O   UNL     1      42.760 -12.431   2.513  1.00  0.00    -0.267 OA
HETATM   12  C   UNL     1      40.224 -16.031   1.208  1.00  0.00     0.037 C 
HETATM   13  C   UNL     1      39.899 -14.690   0.565  1.00  0.00     0.022 C 
HETATM   14  C   UNL     1      41.186 -13.908   0.770  1.00  0.00     0.127 C 
HETATM   15  C   UNL     1      43.604 -15.572   5.874  1.00  0.00     0.033 A 
HETATM   16  C   UNL     1      43.686 -14.556   6.830  1.00  0.00     0.032 A 
HETATM   17  H   UNL     1      43.518 -17.287   4.027  1.00  0.00     0.169 HD
ENDROOT
BRANCH   1  18
HETATM   18  N   UNL     1      43.404 -12.289   7.540  1.00  0.00    -0.323 N 
HETATM   19  C   UNL     1      44.251 -11.198   7.599  1.00  0.00     0.257 C 
HETATM   20  O   UNL     1      45.045 -10.848   6.734  1.00  0.00    -0.267 OA
HETATM   21  H   UNL     1      42.742 -12.385   8.299  1.00  0.00     0.169 HD
BRANCH  19  22
HETATM   22  C   UNL     1      44.112 -10.341   8.808  1.00  0.00     0.044 A 
HETATM   23  C   UNL     1      42.993  -9.501   9.041  1.00  0.00     0.008 A 
HETATM   24  C   UNL     1      42.987  -8.692  10.192  1.00  0.00     0.045 A 
HETATM   25  C   UNL     1      41.751  -9.269   8.379  1.00  0.00     0.032 A 
HETATM   26  N   UNL     1      41.817  -7.950  10.170  1.00  0.00    -0.352 N 
HETATM   27  C   UNL     1      44.040  -8.735  11.124  1.00  0.00     0.030 A 
HETATM   28  C   UNL     1      41.067  -8.303   9.075  1.00  0.00     0.092 A 
HETATM   29  C   UNL     1      45.112  -9.599  10.894  1.00  0.00     0.003 A 
HETATM   30  C   UNL     1      45.152 -10.389   9.754  1.00  0.00     0.018 A 
BRANCH  26  31
HETATM   31  C   UNL     1      41.372  -6.948  11.143  1.00  0.00     0.081 C 
HETATM   32  C   UNL     1      39.850  -6.850  11.248  1.00  0.00     0.032 C 
HETATM   33  C   UNL     1      42.028  -5.587  10.915  1.00  0.00     0.032 C 
ENDBRANCH  26  31
ENDBRANCH  19  22
ENDBRANCH   1  18
TORSDOF 3
ENDMDL
MODEL 6
REMARK VINA RESULT:      -9.0      5.161      7.950
REMARK  3 active torsions:
REMARK  status: ('A' for Active; 'I' for Inactive)
REMARK    1  A    between atoms: C_2  and  N_3 
REMARK    2  A    between atoms: C_6  and  C_7 
REMARK       I    between atoms: C_7  and  N_8 
REMARK    3  A    between atoms: N_8  and  C_9 
ROOT
HETATM    1  C   UNL     1      40.426 -13.877   1.068  1.00  0.00     0.036 A 
HETATM    2  C   UNL     1      40.051 -12.536   1.156  1.00  0.00     0.049 A 
HETATM    3  C   UNL     1      39.292 -11.914   0.137  1.00  0.00     0.061 A 
HETATM    4  C   UNL     1      38.918 -12.651  -0.994  1.00  0.00     0.050 A 
HETATM    5  N   UNL     1      38.138 -12.195  -2.069  1.00  0.00    -0.324 N 
HETATM    6  C   UNL     1      37.147 -11.252  -2.069  1.00  0.00     0.245 C 
HETATM    7  O   UNL     1      36.474 -11.124  -3.095  1.00  0.00    -0.271 OA
HETATM    8  C   UNL     1      36.788 -10.577  -0.750  1.00  0.00     0.180 C 
HETATM    9  N   UNL     1      37.931  -9.874  -0.191  1.00  0.00    -0.334 N 
HETATM   10  C   UNL     1      39.075 -10.452   0.305  1.00  0.00     0.256 C 
HETATM   11  O   UNL     1      39.927  -9.791   0.896  1.00  0.00    -0.267 OA
HETATM   12  C   UNL     1      35.724  -9.487  -0.931  1.00  0.00     0.037 C 
HETATM   13  C   UNL     1      36.093  -8.455   0.126  1.00  0.00     0.022 C 
HETATM   14  C   UNL     1      37.612  -8.487   0.100  1.00  0.00     0.127 C 
HETATM   15  C   UNL     1      39.355 -13.980  -1.105  1.00  0.00     0.033 A 
HETATM   16  C   UNL     1      40.082 -14.591  -0.079  1.00  0.00     0.032 A 
HETATM   17  H   UNL     1      38.145 -12.730  -2.930  1.00  0.00     0.169 HD
ENDROOT
BRANCH   1  18
HETATM   18  N   UNL     1      41.144 -14.572   2.064  1.00  0.00    -0.323 N 
HETATM   19  C   UNL     1      42.396 -14.272   2.568  1.00  0.00     0.257 C 
HETATM   20  O   UNL     1      43.088 -13.308   2.263  1.00  0.00    -0.267 OA
HETATM   21  H   UNL     1      40.664 -15.355   2.490  1.00  0.00     0.169 HD
BRANCH  19  22
HETATM   22  C   UNL     1      42.895 -15.182   3.635  1.00  0.00     0.044 A 
HETATM   23  C   UNL     1      43.181 -16.555   3.415  1.00  0.00     0.008 A 
HETATM   24  C   UNL     1      43.600 -17.337   4.507  1.00  0.00     0.045 A 
HETATM   25  C   UNL     1      43.191 -17.413   2.276  1.00  0.00     0.032 A 
HETATM   26  N   UNL     1      43.776 -18.631   4.044  1.00  0.00    -0.352 N 
HETATM   27  C   UNL     1      43.777 -16.778   5.785  1.00  0.00     0.030 A 
HETATM   28  C   UNL     1      43.534 -18.675   2.692  1.00  0.00     0.092 A 
HETATM   29  C   UNL     1      43.530 -15.417   5.969  1.00  0.00     0.003 A 
HETATM   30  C   UNL     1      43.093 -14.629   4.913  1.00  0.00     0.018 A 
BRANCH  26  31
HETATM   31  C   UNL     1      44.182 -19.811   4.812  1.00  0.00     0.081 C 
HETATM   32  C   UNL     1      44.042 -21.116   4.027  1.00  0.00     0.032 C 
HETATM   33  C   UNL     1      43.498 -19.879   6.177  1.00  0.00     0.032 C 
ENDBRANCH  26  31
ENDBRANCH  19  22
ENDBRANCH   1  18
TORSDOF 3
ENDMDL
MODEL 7
REMARK VINA RESULT:      -8.9      3.073      4.747
REMARK  3 active torsions:
REMARK  status: ('A' for Active; 'I' for Inactive)
REMARK    1  A    between atoms: C_2  and  N_3 
REMARK    2  A    between atoms: C_6  and  C_7 
REMARK       I    between atoms: C_7  and  N_8 
REMARK    3  A    between atoms: N_8  and  C_9 
ROOT
HETATM    1  C   UNL     1      41.831 -10.925   5.223  1.00  0.00     0.036 A 
HETATM    2  C   UNL     1      42.529 -11.208   6.397  1.00  0.00     0.049 A 
HETATM    3  C   UNL     1      42.790 -10.207   7.362  1.00  0.00     0.061 A 
HETATM    4  C   UNL     1      42.352  -8.896   7.131  1.00  0.00     0.050 A 
HETATM    5  N   UNL     1      42.497  -7.802   8.000  1.00  0.00    -0.324 N 
HETATM    6  C   UNL     1      42.545  -7.794   9.366  1.00  0.00     0.245 C 
HETATM    7  O   UNL     1      42.507  -6.701   9.937  1.00  0.00    -0.271 OA
HETATM    8  C   UNL     1      42.418  -9.122  10.105  1.00  0.00     0.180 C 
HETATM    9  N   UNL     1      43.484 -10.035   9.729  1.00  0.00    -0.334 N 
HETATM   10  C   UNL     1      43.652 -10.625   8.499  1.00  0.00     0.256 C 
HETATM   11  O   UNL     1      44.494 -11.501   8.313  1.00  0.00    -0.267 OA
HETATM   12  C   UNL     1      42.578  -8.956  11.621  1.00  0.00     0.037 C 
HETATM   13  C   UNL     1      43.245 -10.255  12.050  1.00  0.00     0.022 C 
HETATM   14  C   UNL     1      44.192 -10.535  10.896  1.00  0.00     0.127 C 
HETATM   15  C   UNL     1      41.709  -8.605   5.918  1.00  0.00     0.033 A 
HETATM   16  C   UNL     1      41.434  -9.610   4.986  1.00  0.00     0.032 A 
HETATM   17  H   UNL     1      42.367  -6.869   7.624  1.00  0.00     0.169 HD
ENDROOT
BRANCH   1  18
HETATM   18  N   UNL     1      41.498 -11.881   4.240  1.00  0.00    -0.323 N 
HETATM   19  C   UNL     1      40.374 -12.684   4.188  1.00  0.00     0.257 C 
HETATM   20  O   UNL     1      39.435 -12.670   4.976  1.00  0.00    -0.267 OA
HETATM   21  H   UNL     1      42.137 -11.953   3.459  1.00  0.00     0.169 HD
BRANCH  19  22
HETATM   22  C   UNL     1      40.285 -13.592   3.012  1.00  0.00     0.044 A 
HETATM   23  C   UNL     1      39.905 -13.152   1.718  1.00  0.00     0.008 A 
HETATM   24  C   UNL     1      39.804 -14.105   0.687  1.00  0.00     0.045 A 
HETATM   25  C   UNL     1      39.611 -11.888   1.128  1.00  0.00     0.032 A 
HETATM   26  N   UNL     1      39.388 -13.437  -0.453  1.00  0.00    -0.352 N 
HETATM   27  C   UNL     1      40.110 -15.460   0.908  1.00  0.00     0.030 A 
HETATM   28  C   UNL     1      39.276 -12.094  -0.187  1.00  0.00     0.092 A 
HETATM   29  C   UNL     1      40.520 -15.862   2.179  1.00  0.00     0.003 A 
HETATM   30  C   UNL     1      40.605 -14.946   3.218  1.00  0.00     0.018 A 
BRANCH  26  31
HETATM   31  C   UNL     1      39.116 -14.005  -1.777  1.00  0.00     0.081 C 
HETATM   32  C   UNL     1      40.307 -13.901  -2.730  1.00  0.00     0.032 C 
HETATM   33  C   UNL     1      37.830 -13.455  -2.392  1.00  0.00     0.032 C 
ENDBRANCH  26  31
ENDBRANCH  19  22
ENDBRANCH   1  18
TORSDOF 3
ENDMDL
MODEL 8
REMARK VINA RESULT:      -8.8     17.906     20.341
REMARK  3 active torsions:
REMARK  status: ('A' for Active; 'I' for Inactive)
REMARK    1  A    between atoms: C_2  and  N_3 
REMARK    2  A    between atoms: C_6  and  C_7 
REMARK       I    between atoms: C_7  and  N_8 
REMARK    3  A    between atoms: N_8  and  C_9 
ROOT
HETATM    1  C   UNL     1      41.885 -30.920   2.115  1.00  0.00     0.036 A 
HETATM    2  C   UNL     1      41.179 -32.122   2.178  1.00  0.00     0.049 A 
HETATM    3  C   UNL     1      40.506 -32.523   3.355  1.00  0.00     0.061 A 
HETATM    4  C   UNL     1      40.557 -31.706   4.492  1.00  0.00     0.050 A 
HETATM    5  N   UNL     1      39.917 -31.942   5.720  1.00  0.00    -0.324 N 
HETATM    6  C   UNL     1      38.743 -32.601   5.961  1.00  0.00     0.245 C 
HETATM    7  O   UNL     1      38.275 -32.546   7.101  1.00  0.00    -0.271 OA
HETATM    8  C   UNL     1      37.975 -33.172   4.775  1.00  0.00     0.180 C 
HETATM    9  N   UNL     1      38.774 -34.147   4.051  1.00  0.00    -0.334 N 
HETATM   10  C   UNL     1      39.904 -33.883   3.316  1.00  0.00     0.256 C 
HETATM   11  O   UNL     1      40.432 -34.744   2.613  1.00  0.00    -0.267 OA
HETATM   12  C   UNL     1      36.731 -33.954   5.216  1.00  0.00     0.037 C 
HETATM   13  C   UNL     1      36.616 -35.054   4.169  1.00  0.00     0.022 C 
HETATM   14  C   UNL     1      38.070 -35.409   3.906  1.00  0.00     0.127 C 
HETATM   15  C   UNL     1      41.324 -30.532   4.443  1.00  0.00     0.033 A 
HETATM   16  C   UNL     1      41.962 -30.134   3.264  1.00  0.00     0.032 A 
HETATM   17  H   UNL     1      40.226 -31.419   6.532  1.00  0.00     0.169 HD
ENDROOT
BRANCH   1  18
HETATM   18  N   UNL     1      42.542 -30.438   0.964  1.00  0.00    -0.323 N 
HETATM   19  C   UNL     1      43.900 -30.430   0.707  1.00  0.00     0.257 C 
HETATM   20  O   UNL     1      44.777 -30.890   1.428  1.00  0.00    -0.267 OA
HETATM   21  H   UNL     1      41.942 -30.102   0.221  1.00  0.00     0.169 HD
BRANCH  19  22
HETATM   22  C   UNL     1      44.302 -29.870  -0.612  1.00  0.00     0.044 A 
HETATM   23  C   UNL     1      44.330 -30.637  -1.806  1.00  0.00     0.008 A 
HETATM   24  C   UNL     1      44.776 -30.020  -2.990  1.00  0.00     0.045 A 
HETATM   25  C   UNL     1      43.960 -31.967  -2.159  1.00  0.00     0.032 A 
HETATM   26  N   UNL     1      44.744 -30.978  -3.991  1.00  0.00    -0.352 N 
HETATM   27  C   UNL     1      45.148 -28.664  -3.016  1.00  0.00     0.030 A 
HETATM   28  C   UNL     1      44.245 -32.155  -3.488  1.00  0.00     0.092 A 
HETATM   29  C   UNL     1      45.074 -27.919  -1.838  1.00  0.00     0.003 A 
HETATM   30  C   UNL     1      44.660 -28.510  -0.652  1.00  0.00     0.018 A 
BRANCH  26  31
HETATM   31  C   UNL     1      45.139 -30.822  -5.394  1.00  0.00     0.081 C 
HETATM   32  C   UNL     1      43.949 -30.808  -6.354  1.00  0.00     0.032 C 
HETATM   33  C   UNL     1      46.210 -31.829  -5.810  1.00  0.00     0.032 C 
ENDBRANCH  26  31
ENDBRANCH  19  22
ENDBRANCH   1  18
TORSDOF 3
ENDMDL
MODEL 9
REMARK VINA RESULT:      -8.8      2.512      9.841
REMARK  3 active torsions:
REMARK  status: ('A' for Active; 'I' for Inactive)
REMARK    1  A    between atoms: C_2  and  N_3 
REMARK    2  A    between atoms: C_6  and  C_7 
REMARK       I    between atoms: C_7  and  N_8 
REMARK    3  A    between atoms: N_8  and  C_9 
ROOT
HETATM    1  C   UNL     1      39.916 -11.755   6.014  1.00  0.00     0.036 A 
HETATM    2  C   UNL     1      40.469 -13.036   6.006  1.00  0.00     0.049 A 
HETATM    3  C   UNL     1      40.531 -13.806   4.821  1.00  0.00     0.061 A 
HETATM    4  C   UNL     1      40.014 -13.282   3.629  1.00  0.00     0.050 A 
HETATM    5  N   UNL     1      40.031 -13.900   2.368  1.00  0.00    -0.324 N 
HETATM    6  C   UNL     1      40.946 -14.778   1.857  1.00  0.00     0.245 C 
HETATM    7  O   UNL     1      40.860 -15.069   0.661  1.00  0.00    -0.271 OA
HETATM    8  C   UNL     1      42.137 -15.172   2.724  1.00  0.00     0.180 C 
HETATM    9  N   UNL     1      41.702 -15.806   3.957  1.00  0.00    -0.334 N 
HETATM   10  C   UNL     1      41.029 -15.198   4.989  1.00  0.00     0.256 C 
HETATM   11  O   UNL     1      40.832 -15.771   6.058  1.00  0.00    -0.267 OA
HETATM   12  C   UNL     1      43.020 -16.227   2.046  1.00  0.00     0.037 C 
HETATM   13  C   UNL     1      43.542 -17.054   3.213  1.00  0.00     0.022 C 
HETATM   14  C   UNL     1      42.343 -17.096   4.146  1.00  0.00     0.127 C 
HETATM   15  C   UNL     1      39.400 -12.020   3.659  1.00  0.00     0.033 A 
HETATM   16  C   UNL     1      39.370 -11.259   4.831  1.00  0.00     0.032 A 
HETATM   17  H   UNL     1      39.416 -13.539   1.647  1.00  0.00     0.169 HD
ENDROOT
BRANCH   1  18
HETATM   18  N   UNL     1      39.861 -10.915   7.147  1.00  0.00    -0.323 N 
HETATM   19  C   UNL     1      40.712  -9.875   7.470  1.00  0.00     0.257 C 
HETATM   20  O   UNL     1      41.650  -9.468   6.793  1.00  0.00    -0.267 OA
HETATM   21  H   UNL     1      39.079 -11.065   7.770  1.00  0.00     0.169 HD
BRANCH  19  22
HETATM   22  C   UNL     1      40.393  -9.150   8.730  1.00  0.00     0.044 A 
HETATM   23  C   UNL     1      41.291  -9.064   9.825  1.00  0.00     0.008 A 
HETATM   24  C   UNL     1      40.868  -8.396  10.990  1.00  0.00     0.045 A 
HETATM   25  C   UNL     1      42.635  -9.477  10.063  1.00  0.00     0.032 A 
HETATM   26  N   UNL     1      41.899  -8.482  11.912  1.00  0.00    -0.352 N 
HETATM   27  C   UNL     1      39.603  -7.787  11.067  1.00  0.00     0.030 A 
HETATM   28  C   UNL     1      42.970  -9.131  11.348  1.00  0.00     0.092 A 
HETATM   29  C   UNL     1      38.753  -7.850   9.963  1.00  0.00     0.003 A 
HETATM   30  C   UNL     1      39.137  -8.523   8.811  1.00  0.00     0.018 A 
BRANCH  26  31
HETATM   31  C   UNL     1      41.923  -7.960  13.281  1.00  0.00     0.081 C 
HETATM   32  C   UNL     1      43.301  -7.452  13.705  1.00  0.00     0.032 C 
HETATM   33  C   UNL     1      41.332  -8.945  14.288  1.00  0.00     0.032 C 
ENDBRANCH  26  31
ENDBRANCH  19  22
ENDBRANCH   1  18
TORSDOF 3
ENDMDL
MODEL 10
REMARK VINA RESULT:      -8.7      2.195     10.073
REMARK  3 active torsions:
REMARK  status: ('A' for Active; 'I' for Inactive)
REMARK    1  A    between atoms: C_2  and  N_3 
REMARK    2  A    between atoms: C_6  and  C_7 
REMARK       I    between atoms: C_7  and  N_8 
REMARK    3  A    between atoms: N_8  and  C_9 
ROOT
HETATM    1  C   UNL     1      41.828 -11.480   6.119  1.00  0.00     0.036 A 
HETATM    2  C   UNL     1      41.978 -12.856   5.941  1.00  0.00     0.049 A 
HETATM    3  C   UNL     1      41.704 -13.474   4.698  1.00  0.00     0.061 A 
HETATM    4  C   UNL     1      41.257 -12.694   3.623  1.00  0.00     0.050 A 
HETATM    5  N   UNL     1      40.978 -13.145   2.323  1.00  0.00    -0.324 N 
HETATM    6  C   UNL     1      41.545 -14.183   1.636  1.00  0.00     0.245 C 
HETATM    7  O   UNL     1      41.269 -14.302   0.440  1.00  0.00    -0.271 OA
HETATM    8  C   UNL     1      42.642 -14.992   2.320  1.00  0.00     0.180 C 
HETATM    9  N   UNL     1      42.154 -15.613   3.540  1.00  0.00    -0.334 N 
HETATM   10  C   UNL     1      41.785 -14.959   4.691  1.00  0.00     0.256 C 
HETATM   11  O   UNL     1      41.528 -15.570   5.726  1.00  0.00    -0.267 OA
HETATM   12  C   UNL     1      43.112 -16.171   1.457  1.00  0.00     0.037 C 
HETATM   13  C   UNL     1      43.472 -17.237   2.483  1.00  0.00     0.022 C 
HETATM   14  C   UNL     1      42.404 -17.044   3.546  1.00  0.00     0.127 C 
HETATM   15  C   UNL     1      41.045 -11.322   3.829  1.00  0.00     0.033 A 
HETATM   16  C   UNL     1      41.346 -10.720   5.054  1.00  0.00     0.032 A 
HETATM   17  H   UNL     1      40.432 -12.547   1.712  1.00  0.00     0.169 HD
ENDROOT
BRANCH   1  18
HETATM   18  N   UNL     1      42.125 -10.792   7.314  1.00  0.00    -0.323 N 
HETATM   19  C   UNL     1      43.360 -10.358   7.755  1.00  0.00     0.257 C 
HETATM   20  O   UNL     1      44.422 -10.457   7.151  1.00  0.00    -0.267 OA
HETATM   21  H   UNL     1      41.331 -10.550   7.893  1.00  0.00     0.169 HD
BRANCH  19  22
HETATM   22  C   UNL     1      43.363  -9.638   9.058  1.00  0.00     0.044 A 
HETATM   23  C   UNL     1      42.930  -8.295   9.205  1.00  0.00     0.008 A 
HETATM   24  C   UNL     1      43.023  -7.694  10.474  1.00  0.00     0.045 A 
HETATM   25  C   UNL     1      42.343  -7.324   8.341  1.00  0.00     0.032 A 
HETATM   26  N   UNL     1      42.578  -6.388  10.346  1.00  0.00    -0.352 N 
HETATM   27  C   UNL     1      43.491  -8.408  11.591  1.00  0.00     0.030 A 
HETATM   28  C   UNL     1      42.162  -6.166   9.056  1.00  0.00     0.092 A 
HETATM   29  C   UNL     1      43.872  -9.741  11.432  1.00  0.00     0.003 A 
HETATM   30  C   UNL     1      43.813 -10.349  10.185  1.00  0.00     0.018 A 
BRANCH  26  31
HETATM   31  C   UNL     1      42.509  -5.358  11.386  1.00  0.00     0.081 C 
HETATM   32  C   UNL     1      41.200  -5.392  12.177  1.00  0.00     0.032 C 
HETATM   33  C   UNL     1      42.825  -3.964  10.845  1.00  0.00     0.032 C 
ENDBRANCH  26  31
ENDBRANCH  19  22
ENDBRANCH   1  18
TORSDOF 3
ENDMDL
