MODEL 1
REMARK VINA RESULT:      -9.8      0.000      0.000
REMARK  6 active torsions:
REMARK  status: ('A' for Active; 'I' for Inactive)
REMARK    1  A    between atoms: O_2  and  C_3 
REMARK    2  A    between atoms: C_5  and  N_6 
REMARK    3  A    between atoms: C_8  and  C_9 
REMARK    4  A    between atoms: C_9  and  N_10 
REMARK       I    between atoms: N_10  and  C_11 
REMARK       I    between atoms: C_11  and  N_12 
REMARK    5  A    between atoms: N_12  and  C_13 
REMARK    6  A    between atoms: C_13  and  C_14 
ROOT
HETATM    1  N   UNL     1      44.462 -11.598   7.891  1.00  0.00    -0.343 N 
HETATM    2  C   UNL     1      44.099 -11.955   6.619  1.00  0.00     0.316 C 
HETATM    3  N   UNL     1      43.147 -12.936   6.625  1.00  0.00    -0.339 N 
HETATM    4  O   UNL     1      44.583 -11.467   5.607  1.00  0.00    -0.248 OA
HETATM    5  H   UNL     1      44.212 -12.238   8.630  1.00  0.00     0.164 HD
HETATM    6  H   UNL     1      42.585 -13.032   7.457  1.00  0.00     0.164 HD
ENDROOT
BRANCH   1   7
HETATM    7  C   UNL     1      45.536 -10.656   8.148  1.00  0.00     0.130 C 
BRANCH   7   8
HETATM    8  C   UNL     1      45.132  -9.595   9.165  1.00  0.00     0.023 C 
HETATM    9  C   UNL     1      44.153 -10.129  10.217  1.00  0.00     0.129 C 
HETATM   10  N   UNL     1      43.471  -8.929  10.701  1.00  0.00    -0.380 N 
HETATM   11  C   UNL     1      43.733  -7.785   9.828  1.00  0.00     0.123 C 
HETATM   12  C   UNL     1      44.367  -8.408   8.587  1.00  0.00     0.028 C 
BRANCH  10  13
HETATM   13  C   UNL     1      42.848  -8.835  11.926  1.00  0.00     0.032 A 
HETATM   14  C   UNL     1      41.709  -9.601  12.239  1.00  0.00     0.066 A 
HETATM   15  C   UNL     1      41.077  -9.521  13.488  1.00  0.00     0.070 A 
HETATM   16  C   UNL     1      41.585  -8.660  14.456  1.00  0.00     0.037 A 
HETATM   17  C   UNL     1      42.698  -7.877  14.177  1.00  0.00     0.005 A 
HETATM   18  C   UNL     1      43.312  -7.963  12.924  1.00  0.00     0.029 A 
BRANCH  15  19
HETATM   19  O   UNL     1      39.971 -10.226  13.879  1.00  0.00    -0.356 OA
HETATM   20  C   UNL     1      39.268 -10.934  12.866  1.00  0.00     0.210 C 
ENDBRANCH  15  19
ENDBRANCH  10  13
ENDBRANCH   7   8
ENDBRANCH   1   7
BRANCH   3  21
HETATM   21  C   UNL     1      42.587 -13.457   5.397  1.00  0.00     0.162 C 
BRANCH  21  22
HETATM   22  C   UNL     1      43.068 -14.860   5.123  1.00  0.00    -0.040 A 
HETATM   23  C   UNL     1      42.709 -15.520   3.938  1.00  0.00     0.021 A 
HETATM   24  C   UNL     1      43.131 -16.835   3.678  1.00  0.00    -0.025 A 
HETATM   25  C   UNL     1      43.938 -17.503   4.627  1.00  0.00    -0.026 A 
HETATM   26  C   UNL     1      42.766 -17.504   2.498  1.00  0.00     0.012 A 
HETATM   27  C   UNL     1      44.295 -16.840   5.811  1.00  0.00     0.013 A 
HETATM   28  C   UNL     1      44.359 -18.817   4.368  1.00  0.00     0.012 A 
HETATM   29  C   UNL     1      43.860 -15.537   6.059  1.00  0.00     0.010 A 
HETATM   30  C   UNL     1      43.986 -19.467   3.190  1.00  0.00     0.001 A 
HETATM   31  C   UNL     1      43.190 -18.811   2.256  1.00  0.00     0.001 A 
ENDBRANCH  21  22
ENDBRANCH   3  21
TORSDOF 6
ENDMDL
MODEL 2
REMARK VINA RESULT:      -9.6      1.018      1.691
REMARK  6 active torsions:
REMARK  status: ('A' for Active; 'I' for Inactive)
REMARK    1  A    between atoms: O_2  and  C_3 
REMARK    2  A    between atoms: C_5  and  N_6 
REMARK    3  A    between atoms: C_8  and  C_9 
REMARK    4  A    between atoms: C_9  and  N_10 
REMARK       I    between atoms: N_10  and  C_11 
REMARK       I    between atoms: C_11  and  N_12 
REMARK    5  A    between atoms: N_12  and  C_13 
REMARK    6  A    between atoms: C_13  and  C_14 
ROOT
HETATM    1  N   UNL     1      44.356 -11.953   6.801  1.00  0.00    -0.343 N 
HETATM    2  C   UNL     1      44.026 -12.045   5.475  1.00  0.00     0.316 C 
HETATM    3  N   UNL     1      43.219 -13.123   5.232  1.00  0.00    -0.339 N 
HETATM    4  O   UNL     1      44.421 -11.269   4.616  1.00  0.00    -0.248 OA
HETATM    5  H   UNL     1      44.209 -12.778   7.363  1.00  0.00     0.164 HD
HETATM    6  H   UNL     1      42.690 -13.489   6.007  1.00  0.00     0.164 HD
ENDROOT
BRANCH   1   7
HETATM    7  C   UNL     1      45.293 -10.959   7.293  1.00  0.00     0.130 C 
BRANCH   7   8
HETATM    8  C   UNL     1      44.601  -9.885   8.123  1.00  0.00     0.023 C 
HETATM    9  C   UNL     1      44.201 -10.383   9.516  1.00  0.00     0.129 C 
HETATM   10  N   UNL     1      43.112  -9.488   9.909  1.00  0.00    -0.380 N 
HETATM   11  C   UNL     1      42.630  -8.711   8.767  1.00  0.00     0.123 C 
HETATM   12  C   UNL     1      43.268  -9.396   7.561  1.00  0.00     0.028 C 
BRANCH  10  13
HETATM   13  C   UNL     1      42.740  -9.250  11.213  1.00  0.00     0.032 A 
HETATM   14  C   UNL     1      41.580  -9.823  11.770  1.00  0.00     0.066 A 
HETATM   15  C   UNL     1      41.201  -9.595  13.100  1.00  0.00     0.070 A 
HETATM   16  C   UNL     1      41.990  -8.780  13.905  1.00  0.00     0.037 A 
HETATM   17  C   UNL     1      43.133  -8.185  13.386  1.00  0.00     0.005 A 
HETATM   18  C   UNL     1      43.493  -8.415  12.055  1.00  0.00     0.029 A 
BRANCH  15  19
HETATM   19  O   UNL     1      40.096 -10.110  13.722  1.00  0.00    -0.356 OA
HETATM   20  C   UNL     1      39.338 -11.071  12.999  1.00  0.00     0.210 C 
ENDBRANCH  15  19
ENDBRANCH  10  13
ENDBRANCH   7   8
ENDBRANCH   1   7
BRANCH   3  21
HETATM   21  C   UNL     1      42.717 -13.410   3.906  1.00  0.00     0.162 C 
BRANCH  21  22
HETATM   22  C   UNL     1      42.941 -14.854   3.533  1.00  0.00    -0.040 A 
HETATM   23  C   UNL     1      43.265 -15.804   4.513  1.00  0.00     0.021 A 
HETATM   24  C   UNL     1      43.498 -17.150   4.177  1.00  0.00    -0.025 A 
HETATM   25  C   UNL     1      43.400 -17.552   2.826  1.00  0.00    -0.026 A 
HETATM   26  C   UNL     1      43.831 -18.103   5.154  1.00  0.00     0.012 A 
HETATM   27  C   UNL     1      43.077 -16.599   1.848  1.00  0.00     0.013 A 
HETATM   28  C   UNL     1      43.635 -18.895   2.490  1.00  0.00     0.012 A 
HETATM   29  C   UNL     1      42.857 -15.265   2.197  1.00  0.00     0.010 A 
HETATM   30  C   UNL     1      43.966 -19.829   3.473  1.00  0.00     0.001 A 
HETATM   31  C   UNL     1      44.065 -19.433   4.803  1.00  0.00     0.001 A 
ENDBRANCH  21  22
ENDBRANCH   3  21
TORSDOF 6
ENDMDL
MODEL 3
REMARK VINA RESULT:      -9.5      2.185     11.246
REMARK  6 active torsions:
REMARK  status: ('A' for Active; 'I' for Inactive)
REMARK    1  A    between atoms: O_2  and  C_3 
REMARK    2  A    between atoms: C_5  and  N_6 
REMARK    3  A    between atoms: C_8  and  C_9 
REMARK    4  A    between atoms: C_9  and  N_10 
REMARK       I    between atoms: N_10  and  C_11 
REMARK       I    between atoms: C_11  and  N_12 
REMARK    5  A    between atoms: N_12  and  C_13 
REMARK    6  A    between atoms: C_13  and  C_14 
ROOT
HETATM    1  N   UNL     1      43.175 -11.995   7.351  1.00  0.00    -0.343 N 
HETATM    2  C   UNL     1      44.062 -11.264   8.096  1.00  0.00     0.316 C 
HETATM    3  N   UNL     1      43.420 -10.497   9.030  1.00  0.00    -0.339 N 
HETATM    4  O   UNL     1      45.274 -11.283   7.930  1.00  0.00    -0.248 OA
HETATM    5  H   UNL     1      42.209 -11.705   7.382  1.00  0.00     0.164 HD
HETATM    6  H   UNL     1      42.498 -10.787   9.313  1.00  0.00     0.164 HD
ENDROOT
BRANCH   1   7
HETATM    7  C   UNL     1      43.602 -12.802   6.222  1.00  0.00     0.130 C 
BRANCH   7   8
HETATM    8  C   UNL     1      43.851 -14.252   6.620  1.00  0.00     0.023 C 
HETATM    9  C   UNL     1      43.639 -15.227   5.456  1.00  0.00     0.129 C 
HETATM   10  N   UNL     1      43.358 -16.502   6.115  1.00  0.00    -0.380 N 
HETATM   11  C   UNL     1      43.084 -16.311   7.539  1.00  0.00     0.123 C 
HETATM   12  C   UNL     1      42.899 -14.802   7.678  1.00  0.00     0.028 C 
BRANCH  10  13
HETATM   13  C   UNL     1      43.541 -17.734   5.525  1.00  0.00     0.032 A 
HETATM   14  C   UNL     1      43.674 -17.876   4.131  1.00  0.00     0.066 A 
HETATM   15  C   UNL     1      43.873 -19.124   3.524  1.00  0.00     0.070 A 
HETATM   16  C   UNL     1      43.943 -20.265   4.318  1.00  0.00     0.037 A 
HETATM   17  C   UNL     1      43.799 -20.165   5.696  1.00  0.00     0.005 A 
HETATM   18  C   UNL     1      43.594 -18.914   6.285  1.00  0.00     0.029 A 
BRANCH  15  19
HETATM   19  O   UNL     1      44.015 -19.355   2.183  1.00  0.00    -0.356 OA
HETATM   20  C   UNL     1      43.721 -20.666   1.720  1.00  0.00     0.210 C 
ENDBRANCH  15  19
ENDBRANCH  10  13
ENDBRANCH   7   8
ENDBRANCH   1   7
BRANCH   3  21
HETATM   21  C   UNL     1      44.152  -9.658   9.954  1.00  0.00     0.162 C 
BRANCH  21  22
HETATM   22  C   UNL     1      43.363  -9.407  11.214  1.00  0.00    -0.040 A 
HETATM   23  C   UNL     1      43.713  -8.360  12.080  1.00  0.00     0.021 A 
HETATM   24  C   UNL     1      43.000  -8.127  13.270  1.00  0.00    -0.025 A 
HETATM   25  C   UNL     1      41.907  -8.961  13.596  1.00  0.00    -0.026 A 
HETATM   26  C   UNL     1      43.353  -7.086  14.144  1.00  0.00     0.012 A 
HETATM   27  C   UNL     1      41.561 -10.008  12.728  1.00  0.00     0.013 A 
HETATM   28  C   UNL     1      41.197  -8.730  14.785  1.00  0.00     0.012 A 
HETATM   29  C   UNL     1      42.284 -10.232  11.555  1.00  0.00     0.010 A 
HETATM   30  C   UNL     1      41.562  -7.691  15.643  1.00  0.00     0.001 A 
HETATM   31  C   UNL     1      42.639  -6.870  15.324  1.00  0.00     0.001 A 
ENDBRANCH  21  22
ENDBRANCH   3  21
TORSDOF 6
ENDMDL
MODEL 4
REMARK VINA RESULT:      -9.5      0.993      1.685
REMARK  6 active torsions:
REMARK  status: ('A' for Active; 'I' for Inactive)
REMARK    1  A    between atoms: O_2  and  C_3 
REMARK    2  A    between atoms: C_5  and  N_6 
REMARK    3  A    between atoms: C_8  and  C_9 
REMARK    4  A    between atoms: C_9  and  N_10 
REMARK       I    between atoms: N_10  and  C_11 
REMARK       I    between atoms: C_11  and  N_12 
REMARK    5  A    between atoms: N_12  and  C_13 
REMARK    6  A    between atoms: C_13  and  C_14 
ROOT
HETATM    1  N   UNL     1      44.197 -11.590   7.875  1.00  0.00    -0.343 N 
HETATM    2  C   UNL     1      43.779 -11.980   6.630  1.00  0.00     0.316 C 
HETATM    3  N   UNL     1      42.840 -12.971   6.705  1.00  0.00    -0.339 N 
HETATM    4  O   UNL     1      44.208 -11.510   5.586  1.00  0.00    -0.248 OA
HETATM    5  H   UNL     1      43.990 -12.214   8.639  1.00  0.00     0.164 HD
HETATM    6  H   UNL     1      42.320 -13.054   7.564  1.00  0.00     0.164 HD
ENDROOT
BRANCH   1   7
HETATM    7  C   UNL     1      45.270 -10.629   8.059  1.00  0.00     0.130 C 
BRANCH   7   8
HETATM    8  C   UNL     1      44.928  -9.587   9.117  1.00  0.00     0.023 C 
HETATM    9  C   UNL     1      43.970 -10.125  10.186  1.00  0.00     0.129 C 
HETATM   10  N   UNL     1      43.336  -8.922  10.724  1.00  0.00    -0.380 N 
HETATM   11  C   UNL     1      43.598  -7.761   9.874  1.00  0.00     0.123 C 
HETATM   12  C   UNL     1      44.175  -8.365   8.596  1.00  0.00     0.028 C 
BRANCH  10  13
HETATM   13  C   UNL     1      42.756  -8.846  11.971  1.00  0.00     0.032 A 
HETATM   14  C   UNL     1      43.199  -7.926  12.941  1.00  0.00     0.066 A 
HETATM   15  C   UNL     1      42.606  -7.834  14.208  1.00  0.00     0.070 A 
HETATM   16  C   UNL     1      41.544  -8.674  14.527  1.00  0.00     0.037 A 
HETATM   17  C   UNL     1      41.090  -9.606  13.602  1.00  0.00     0.005 A 
HETATM   18  C   UNL     1      41.697  -9.691  12.345  1.00  0.00     0.029 A 
BRANCH  15  19
HETATM   19  O   UNL     1      42.969  -6.972  15.206  1.00  0.00    -0.356 OA
HETATM   20  C   UNL     1      41.955  -6.586  16.124  1.00  0.00     0.210 C 
ENDBRANCH  15  19
ENDBRANCH  10  13
ENDBRANCH   7   8
ENDBRANCH   1   7
BRANCH   3  21
HETATM   21  C   UNL     1      42.228 -13.527   5.517  1.00  0.00     0.162 C 
BRANCH  21  22
HETATM   22  C   UNL     1      42.809 -14.877   5.178  1.00  0.00    -0.040 A 
HETATM   23  C   UNL     1      42.430 -15.543   4.003  1.00  0.00     0.021 A 
HETATM   24  C   UNL     1      42.945 -16.812   3.684  1.00  0.00    -0.025 A 
HETATM   25  C   UNL     1      43.867 -17.425   4.562  1.00  0.00    -0.026 A 
HETATM   26  C   UNL     1      42.561 -17.487   2.513  1.00  0.00     0.012 A 
HETATM   27  C   UNL     1      44.242 -16.756   5.738  1.00  0.00     0.013 A 
HETATM   28  C   UNL     1      44.380 -18.693   4.245  1.00  0.00     0.012 A 
HETATM   29  C   UNL     1      43.715 -15.500   6.045  1.00  0.00     0.010 A 
HETATM   30  C   UNL     1      43.987 -19.350   3.078  1.00  0.00     0.001 A 
HETATM   31  C   UNL     1      43.079 -18.748   2.213  1.00  0.00     0.001 A 
ENDBRANCH  21  22
ENDBRANCH   3  21
TORSDOF 6
ENDMDL
MODEL 5
REMARK VINA RESULT:      -9.4      1.385      2.047
REMARK  6 active torsions:
REMARK  status: ('A' for Active; 'I' for Inactive)
REMARK    1  A    between atoms: O_2  and  C_3 
REMARK    2  A    between atoms: C_5  and  N_6 
REMARK    3  A    between atoms: C_8  and  C_9 
REMARK    4  A    between atoms: C_9  and  N_10 
REMARK       I    between atoms: N_10  and  C_11 
REMARK       I    between atoms: C_11  and  N_12 
REMARK    5  A    between atoms: N_12  and  C_13 
REMARK    6  A    between atoms: C_13  and  C_14 
ROOT
HETATM    1  N   UNL     1      42.471 -11.779   5.232  1.00  0.00    -0.343 N 
HETATM    2  C   UNL     1      43.016 -12.447   4.167  1.00  0.00     0.316 C 
HETATM    3  N   UNL     1      42.334 -13.600   3.896  1.00  0.00    -0.339 N 
HETATM    4  O   UNL     1      44.001 -12.064   3.551  1.00  0.00    -0.248 OA
HETATM    5  H   UNL     1      41.848 -12.305   5.826  1.00  0.00     0.164 HD
HETATM    6  H   UNL     1      41.380 -13.661   4.215  1.00  0.00     0.164 HD
ENDROOT
BRANCH   1   7
HETATM    7  C   UNL     1      43.083 -10.584   5.785  1.00  0.00     0.130 C 
BRANCH   7   8
HETATM    8  C   UNL     1      43.420 -10.747   7.262  1.00  0.00     0.023 C 
HETATM    9  C   UNL     1      42.627  -9.786   8.156  1.00  0.00     0.129 C 
HETATM   10  N   UNL     1      43.446  -9.676   9.363  1.00  0.00    -0.380 N 
HETATM   11  C   UNL     1      44.782 -10.231   9.147  1.00  0.00     0.123 C 
HETATM   12  C   UNL     1      44.863 -10.415   7.633  1.00  0.00     0.028 C 
BRANCH  10  13
HETATM   13  C   UNL     1      42.960  -9.301  10.596  1.00  0.00     0.032 A 
HETATM   14  C   UNL     1      41.630  -9.562  10.979  1.00  0.00     0.066 A 
HETATM   15  C   UNL     1      41.131  -9.195  12.236  1.00  0.00     0.070 A 
HETATM   16  C   UNL     1      41.969  -8.554  13.143  1.00  0.00     0.037 A 
HETATM   17  C   UNL     1      43.283  -8.266  12.794  1.00  0.00     0.005 A 
HETATM   18  C   UNL     1      43.763  -8.630  11.533  1.00  0.00     0.029 A 
BRANCH  15  19
HETATM   19  O   UNL     1      39.858  -9.409  12.692  1.00  0.00    -0.356 OA
HETATM   20  C   UNL     1      39.491 -10.754  12.968  1.00  0.00     0.210 C 
ENDBRANCH  15  19
ENDBRANCH  10  13
ENDBRANCH   7   8
ENDBRANCH   1   7
BRANCH   3  21
HETATM   21  C   UNL     1      42.708 -14.462   2.796  1.00  0.00     0.162 C 
BRANCH  21  22
HETATM   22  C   UNL     1      43.110 -15.833   3.280  1.00  0.00    -0.040 A 
HETATM   23  C   UNL     1      42.981 -16.952   2.444  1.00  0.00     0.021 A 
HETATM   24  C   UNL     1      43.330 -18.239   2.889  1.00  0.00    -0.025 A 
HETATM   25  C   UNL     1      43.826 -18.407   4.201  1.00  0.00    -0.026 A 
HETATM   26  C   UNL     1      43.194 -19.364   2.059  1.00  0.00     0.012 A 
HETATM   27  C   UNL     1      43.952 -17.285   5.035  1.00  0.00     0.013 A 
HETATM   28  C   UNL     1      44.173 -19.692   4.646  1.00  0.00     0.012 A 
HETATM   29  C   UNL     1      43.593 -16.014   4.581  1.00  0.00     0.010 A 
HETATM   30  C   UNL     1      44.031 -20.800   3.809  1.00  0.00     0.001 A 
HETATM   31  C   UNL     1      43.541 -20.636   2.516  1.00  0.00     0.001 A 
ENDBRANCH  21  22
ENDBRANCH   3  21
TORSDOF 6
ENDMDL
MODEL 6
REMARK VINA RESULT:      -9.0      2.441     10.552
REMARK  6 active torsions:
REMARK  status: ('A' for Active; 'I' for Inactive)
REMARK    1  A    between atoms: O_2  and  C_3 
REMARK    2  A    between atoms: C_5  and  N_6 
REMARK    3  A    between atoms: C_8  and  C_9 
REMARK    4  A    between atoms: C_9  and  N_10 
REMARK       I    between atoms: N_10  and  C_11 
REMARK       I    between atoms: C_11  and  N_12 
REMARK    5  A    between atoms: N_12  and  C_13 
REMARK    6  A    between atoms: C_13  and  C_14 
ROOT
HETATM    1  N   UNL     1      43.011 -13.063   5.446  1.00  0.00    -0.343 N 
HETATM    2  C   UNL     1      43.798 -11.972   5.704  1.00  0.00     0.316 C 
HETATM    3  N   UNL     1      44.593 -12.174   6.798  1.00  0.00    -0.339 N 
HETATM    4  O   UNL     1      43.776 -10.941   5.045  1.00  0.00    -0.248 OA
HETATM    5  H   UNL     1      42.909 -13.734   6.192  1.00  0.00     0.164 HD
HETATM    6  H   UNL     1      44.788 -13.127   7.060  1.00  0.00     0.164 HD
ENDROOT
BRANCH   1   7
HETATM    7  C   UNL     1      42.001 -13.053   4.403  1.00  0.00     0.130 C 
BRANCH   7   8
HETATM    8  C   UNL     1      42.125 -14.257   3.478  1.00  0.00     0.023 C 
HETATM    9  C   UNL     1      42.670 -15.497   4.194  1.00  0.00     0.129 C 
HETATM   10  N   UNL     1      43.240 -16.303   3.115  1.00  0.00    -0.380 N 
HETATM   11  C   UNL     1      43.355 -15.526   1.881  1.00  0.00     0.123 C 
HETATM   12  C   UNL     1      43.117 -14.087   2.330  1.00  0.00     0.028 C 
BRANCH  10  13
HETATM   13  C   UNL     1      43.436 -17.664   3.187  1.00  0.00     0.032 A 
HETATM   14  C   UNL     1      43.700 -18.312   4.410  1.00  0.00     0.066 A 
HETATM   15  C   UNL     1      43.889 -19.698   4.493  1.00  0.00     0.070 A 
HETATM   16  C   UNL     1      43.813 -20.469   3.337  1.00  0.00     0.037 A 
HETATM   17  C   UNL     1      43.570 -19.863   2.111  1.00  0.00     0.005 A 
HETATM   18  C   UNL     1      43.393 -18.478   2.043  1.00  0.00     0.029 A 
BRANCH  15  19
HETATM   19  O   UNL     1      44.147 -20.409   5.634  1.00  0.00    -0.356 OA
HETATM   20  C   UNL     1      43.467 -20.002   6.814  1.00  0.00     0.210 C 
ENDBRANCH  15  19
ENDBRANCH  10  13
ENDBRANCH   7   8
ENDBRANCH   1   7
BRANCH   3  21
HETATM   21  C   UNL     1      45.532 -11.169   7.249  1.00  0.00     0.162 C 
BRANCH  21  22
HETATM   22  C   UNL     1      44.946 -10.319   8.348  1.00  0.00    -0.040 A 
HETATM   23  C   UNL     1      44.413 -10.911   9.502  1.00  0.00     0.021 A 
HETATM   24  C   UNL     1      43.843 -10.133  10.526  1.00  0.00    -0.025 A 
HETATM   25  C   UNL     1      43.811  -8.727  10.389  1.00  0.00    -0.026 A 
HETATM   26  C   UNL     1      43.300 -10.722  11.679  1.00  0.00     0.012 A 
HETATM   27  C   UNL     1      44.344  -8.138   9.231  1.00  0.00     0.013 A 
HETATM   28  C   UNL     1      43.241  -7.950  11.410  1.00  0.00     0.012 A 
HETATM   29  C   UNL     1      44.899  -8.925   8.221  1.00  0.00     0.010 A 
HETATM   30  C   UNL     1      42.705  -8.552  12.550  1.00  0.00     0.001 A 
HETATM   31  C   UNL     1      42.734  -9.936  12.684  1.00  0.00     0.001 A 
ENDBRANCH  21  22
ENDBRANCH   3  21
TORSDOF 6
ENDMDL
MODEL 7
REMARK VINA RESULT:      -9.0      7.664     10.897
REMARK  6 active torsions:
REMARK  status: ('A' for Active; 'I' for Inactive)
REMARK    1  A    between atoms: O_2  and  C_3 
REMARK    2  A    between atoms: C_5  and  N_6 
REMARK    3  A    between atoms: C_8  and  C_9 
REMARK    4  A    between atoms: C_9  and  N_10 
REMARK       I    between atoms: N_10  and  C_11 
REMARK       I    between atoms: C_11  and  N_12 
REMARK    5  A    between atoms: N_12  and  C_13 
REMARK    6  A    between atoms: C_13  and  C_14 
ROOT
HETATM    1  N   UNL     1      40.919 -14.211  -0.702  1.00  0.00    -0.343 N 
HETATM    2  C   UNL     1      40.959 -14.094   0.662  1.00  0.00     0.316 C 
HETATM    3  N   UNL     1      42.187 -14.434   1.159  1.00  0.00    -0.339 N 
HETATM    4  O   UNL     1      40.007 -13.747   1.348  1.00  0.00    -0.248 OA
HETATM    5  H   UNL     1      41.652 -14.755  -1.132  1.00  0.00     0.164 HD
HETATM    6  H   UNL     1      42.973 -14.379   0.531  1.00  0.00     0.164 HD
ENDROOT
BRANCH   1   7
HETATM    7  C   UNL     1      39.694 -14.014  -1.455  1.00  0.00     0.130 C 
BRANCH   7   8
HETATM    8  C   UNL     1      39.620 -12.621  -2.070  1.00  0.00     0.023 C 
HETATM    9  C   UNL     1      40.882 -11.793  -1.805  1.00  0.00     0.129 C 
HETATM   10  N   UNL     1      40.426 -10.409  -1.936  1.00  0.00    -0.380 N 
HETATM   11  C   UNL     1      38.965 -10.334  -1.949  1.00  0.00     0.123 C 
HETATM   12  C   UNL     1      38.522 -11.725  -1.502  1.00  0.00     0.028 C 
BRANCH  10  13
HETATM   13  C   UNL     1      41.253  -9.347  -2.226  1.00  0.00     0.032 A 
HETATM   14  C   UNL     1      41.082  -8.569  -3.387  1.00  0.00     0.066 A 
HETATM   15  C   UNL     1      41.911  -7.478  -3.683  1.00  0.00     0.070 A 
HETATM   16  C   UNL     1      42.940  -7.145  -2.807  1.00  0.00     0.037 A 
HETATM   17  C   UNL     1      43.149  -7.900  -1.660  1.00  0.00     0.005 A 
HETATM   18  C   UNL     1      42.318  -8.989  -1.383  1.00  0.00     0.029 A 
BRANCH  15  19
HETATM   19  O   UNL     1      41.817  -6.669  -4.783  1.00  0.00    -0.356 OA
HETATM   20  C   UNL     1      41.084  -7.172  -5.892  1.00  0.00     0.210 C 
ENDBRANCH  15  19
ENDBRANCH  10  13
ENDBRANCH   7   8
ENDBRANCH   1   7
BRANCH   3  21
HETATM   21  C   UNL     1      42.478 -14.363   2.575  1.00  0.00     0.162 C 
BRANCH  21  22
HETATM   22  C   UNL     1      42.927 -15.698   3.114  1.00  0.00    -0.040 A 
HETATM   23  C   UNL     1      42.856 -16.851   2.318  1.00  0.00     0.021 A 
HETATM   24  C   UNL     1      43.250 -18.106   2.813  1.00  0.00    -0.025 A 
HETATM   25  C   UNL     1      43.732 -18.206   4.138  1.00  0.00    -0.026 A 
HETATM   26  C   UNL     1      43.172 -19.265   2.023  1.00  0.00     0.012 A 
HETATM   27  C   UNL     1      43.801 -17.051   4.932  1.00  0.00     0.013 A 
HETATM   28  C   UNL     1      44.124 -19.460   4.634  1.00  0.00     0.012 A 
HETATM   29  C   UNL     1      43.397 -15.813   4.428  1.00  0.00     0.010 A 
HETATM   30  C   UNL     1      44.039 -20.602   3.835  1.00  0.00     0.001 A 
HETATM   31  C   UNL     1      43.563 -20.504   2.531  1.00  0.00     0.001 A 
ENDBRANCH  21  22
ENDBRANCH   3  21
TORSDOF 6
ENDMDL
MODEL 8
REMARK VINA RESULT:      -9.0      2.095      3.426
REMARK  6 active torsions:
REMARK  status: ('A' for Active; 'I' for Inactive)
REMARK    1  A    between atoms: O_2  and  C_3 
REMARK    2  A    between atoms: C_5  and  N_6 
REMARK    3  A    between atoms: C_8  and  C_9 
REMARK    4  A    between atoms: C_9  and  N_10 
REMARK       I    between atoms: N_10  and  C_11 
REMARK       I    between atoms: C_11  and  N_12 
REMARK    5  A    between atoms: N_12  and  C_13 
REMARK    6  A    between atoms: C_13  and  C_14 
ROOT
HETATM    1  N   UNL     1      42.078 -11.930   3.940  1.00  0.00    -0.343 N 
HETATM    2  C   UNL     1      42.754 -12.806   3.132  1.00  0.00     0.316 C 
HETATM    3  N   UNL     1      41.958 -13.848   2.745  1.00  0.00    -0.339 N 
HETATM    4  O   UNL     1      43.928 -12.676   2.814  1.00  0.00    -0.248 OA
HETATM    5  H   UNL     1      41.221 -12.265   4.354  1.00  0.00     0.164 HD
HETATM    6  H   UNL     1      40.961 -13.704   2.769  1.00  0.00     0.164 HD
ENDROOT
BRANCH   1   7
HETATM    7  C   UNL     1      42.737 -10.801   4.571  1.00  0.00     0.130 C 
BRANCH   7   8
HETATM    8  C   UNL     1      43.116 -11.097   6.017  1.00  0.00     0.023 C 
HETATM    9  C   UNL     1      42.770  -9.943   6.965  1.00  0.00     0.129 C 
HETATM   10  N   UNL     1      43.672 -10.140   8.099  1.00  0.00    -0.380 N 
HETATM   11  C   UNL     1      44.719 -11.110   7.779  1.00  0.00     0.123 C 
HETATM   12  C   UNL     1      44.611 -11.280   6.266  1.00  0.00     0.028 C 
BRANCH  10  13
HETATM   13  C   UNL     1      43.442  -9.647   9.365  1.00  0.00     0.032 A 
HETATM   14  C   UNL     1      42.986  -8.332   9.577  1.00  0.00     0.066 A 
HETATM   15  C   UNL     1      42.737  -7.827  10.861  1.00  0.00     0.070 A 
HETATM   16  C   UNL     1      42.942  -8.645  11.968  1.00  0.00     0.037 A 
HETATM   17  C   UNL     1      43.407  -9.944  11.798  1.00  0.00     0.005 A 
HETATM   18  C   UNL     1      43.658 -10.429  10.512  1.00  0.00     0.029 A 
BRANCH  15  19
HETATM   19  O   UNL     1      42.293  -6.568  11.160  1.00  0.00    -0.356 OA
HETATM   20  C   UNL     1      42.735  -5.512  10.317  1.00  0.00     0.210 C 
ENDBRANCH  15  19
ENDBRANCH  10  13
ENDBRANCH   7   8
ENDBRANCH   1   7
BRANCH   3  21
HETATM   21  C   UNL     1      42.445 -14.888   1.865  1.00  0.00     0.162 C 
BRANCH  21  22
HETATM   22  C   UNL     1      42.910 -16.095   2.640  1.00  0.00    -0.040 A 
HETATM   23  C   UNL     1      42.916 -17.366   2.048  1.00  0.00     0.021 A 
HETATM   24  C   UNL     1      43.326 -18.504   2.765  1.00  0.00    -0.025 A 
HETATM   25  C   UNL     1      43.745 -18.362   4.107  1.00  0.00    -0.026 A 
HETATM   26  C   UNL     1      43.325 -19.781   2.179  1.00  0.00     0.012 A 
HETATM   27  C   UNL     1      43.736 -17.089   4.697  1.00  0.00     0.013 A 
HETATM   28  C   UNL     1      44.152 -19.498   4.825  1.00  0.00     0.012 A 
HETATM   29  C   UNL     1      43.318 -15.970   3.974  1.00  0.00     0.010 A 
HETATM   30  C   UNL     1      44.144 -20.760   4.227  1.00  0.00     0.001 A 
HETATM   31  C   UNL     1      43.730 -20.901   2.906  1.00  0.00     0.001 A 
ENDBRANCH  21  22
ENDBRANCH   3  21
TORSDOF 6
ENDMDL
MODEL 9
REMARK VINA RESULT:      -8.9      1.580      2.616
REMARK  6 active torsions:
REMARK  status: ('A' for Active; 'I' for Inactive)
REMARK    1  A    between atoms: O_2  and  C_3 
REMARK    2  A    between atoms: C_5  and  N_6 
REMARK    3  A    between atoms: C_8  and  C_9 
REMARK    4  A    between atoms: C_9  and  N_10 
REMARK       I    between atoms: N_10  and  C_11 
REMARK       I    between atoms: C_11  and  N_12 
REMARK    5  A    between atoms: N_12  and  C_13 
REMARK    6  A    between atoms: C_13  and  C_14 
ROOT
HETATM    1  N   UNL     1      42.844 -12.091   6.893  1.00  0.00    -0.343 N 
HETATM    2  C   UNL     1      42.264 -12.404   5.692  1.00  0.00     0.316 C 
HETATM    3  N   UNL     1      41.308 -13.372   5.835  1.00  0.00    -0.339 N 
HETATM    4  O   UNL     1      42.577 -11.893   4.626  1.00  0.00    -0.248 OA
HETATM    5  H   UNL     1      42.712 -12.748   7.646  1.00  0.00     0.164 HD
HETATM    6  H   UNL     1      40.894 -13.485   6.747  1.00  0.00     0.164 HD
ENDROOT
BRANCH   1   7
HETATM    7  C   UNL     1      43.964 -11.172   6.988  1.00  0.00     0.130 C 
BRANCH   7   8
HETATM    8  C   UNL     1      44.379 -10.926   8.433  1.00  0.00     0.023 C 
HETATM    9  C   UNL     1      43.258 -10.298   9.270  1.00  0.00     0.129 C 
HETATM   10  N   UNL     1      43.967  -9.638  10.366  1.00  0.00    -0.380 N 
HETATM   11  C   UNL     1      45.402  -9.557  10.093  1.00  0.00     0.123 C 
HETATM   12  C   UNL     1      45.516  -9.924   8.615  1.00  0.00     0.028 C 
BRANCH  10  13
HETATM   13  C   UNL     1      43.397  -9.333  11.582  1.00  0.00     0.032 A 
HETATM   14  C   UNL     1      43.531  -8.057  12.164  1.00  0.00     0.066 A 
HETATM   15  C   UNL     1      42.943  -7.734  13.395  1.00  0.00     0.070 A 
HETATM   16  C   UNL     1      42.201  -8.698  14.071  1.00  0.00     0.037 A 
HETATM   17  C   UNL     1      42.061  -9.972  13.535  1.00  0.00     0.005 A 
HETATM   18  C   UNL     1      42.660 -10.281  12.310  1.00  0.00     0.029 A 
BRANCH  15  19
HETATM   19  O   UNL     1      43.019  -6.525  14.031  1.00  0.00    -0.356 OA
HETATM   20  C   UNL     1      42.046  -5.550  13.680  1.00  0.00     0.210 C 
ENDBRANCH  15  19
ENDBRANCH  10  13
ENDBRANCH   7   8
ENDBRANCH   1   7
BRANCH   3  21
HETATM   21  C   UNL     1      40.537 -13.849   4.707  1.00  0.00     0.162 C 
BRANCH  21  22
HETATM   22  C   UNL     1      41.181 -15.053   4.068  1.00  0.00    -0.040 A 
HETATM   23  C   UNL     1      42.174 -15.776   4.744  1.00  0.00     0.021 A 
HETATM   24  C   UNL     1      42.799 -16.888   4.152  1.00  0.00    -0.025 A 
HETATM   25  C   UNL     1      42.415 -17.287   2.852  1.00  0.00    -0.026 A 
HETATM   26  C   UNL     1      43.801 -17.610   4.823  1.00  0.00     0.012 A 
HETATM   27  C   UNL     1      41.422 -16.560   2.178  1.00  0.00     0.013 A 
HETATM   28  C   UNL     1      43.041 -18.396   2.260  1.00  0.00     0.012 A 
HETATM   29  C   UNL     1      40.817 -15.453   2.776  1.00  0.00     0.010 A 
HETATM   30  C   UNL     1      44.035 -19.101   2.940  1.00  0.00     0.001 A 
HETATM   31  C   UNL     1      44.415 -18.708   4.220  1.00  0.00     0.001 A 
ENDBRANCH  21  22
ENDBRANCH   3  21
TORSDOF 6
ENDMDL
MODEL 10
REMARK VINA RESULT:      -8.8      2.305     10.724
REMARK  6 active torsions:
REMARK  status: ('A' for Active; 'I' for Inactive)
REMARK    1  A    between atoms: O_2  and  C_3 
REMARK    2  A    between atoms: C_5  and  N_6 
REMARK    3  A    between atoms: C_8  and  C_9 
REMARK    4  A    between atoms: C_9  and  N_10 
REMARK       I    between atoms: N_10  and  C_11 
REMARK       I    between atoms: C_11  and  N_12 
REMARK    5  A    between atoms: N_12  and  C_13 
REMARK    6  A    between atoms: C_13  and  C_14 
ROOT
HETATM    1  N   UNL     1      41.731 -12.147   6.265  1.00  0.00    -0.343 N 
HETATM    2  C   UNL     1      42.528 -11.061   6.512  1.00  0.00     0.316 C 
HETATM    3  N   UNL     1      43.206 -11.195   7.692  1.00  0.00    -0.339 N 
HETATM    4  O   UNL     1      42.606 -10.087   5.776  1.00  0.00    -0.248 OA
HETATM    5  H   UNL     1      41.533 -12.753   7.047  1.00  0.00     0.164 HD
HETATM    6  H   UNL     1      43.340 -12.129   8.047  1.00  0.00     0.164 HD
ENDROOT
BRANCH   1   7
HETATM    7  C   UNL     1      40.826 -12.194   5.130  1.00  0.00     0.130 C 
BRANCH   7   8
HETATM    8  C   UNL     1      41.314 -13.154   4.052  1.00  0.00     0.023 C 
HETATM    9  C   UNL     1      41.816 -14.482   4.629  1.00  0.00     0.129 C 
HETATM   10  N   UNL     1      42.722 -14.991   3.599  1.00  0.00    -0.380 N 
HETATM   11  C   UNL     1      43.037 -13.956   2.615  1.00  0.00     0.123 C 
HETATM   12  C   UNL     1      42.525 -12.670   3.259  1.00  0.00     0.028 C 
BRANCH  10  13
HETATM   13  C   UNL     1      43.058 -16.319   3.453  1.00  0.00     0.032 A 
HETATM   14  C   UNL     1      43.435 -17.114   4.552  1.00  0.00     0.066 A 
HETATM   15  C   UNL     1      43.766 -18.469   4.413  1.00  0.00     0.070 A 
HETATM   16  C   UNL     1      43.722 -19.057   3.152  1.00  0.00     0.037 A 
HETATM   17  C   UNL     1      43.370 -18.299   2.042  1.00  0.00     0.005 A 
HETATM   18  C   UNL     1      43.051 -16.947   2.196  1.00  0.00     0.029 A 
BRANCH  15  19
HETATM   19  O   UNL     1      44.140 -19.315   5.422  1.00  0.00    -0.356 OA
HETATM   20  C   UNL     1      44.333 -20.681   5.079  1.00  0.00     0.210 C 
ENDBRANCH  15  19
ENDBRANCH  10  13
ENDBRANCH   7   8
ENDBRANCH   1   7
BRANCH   3  21
HETATM   21  C   UNL     1      44.133 -10.184   8.153  1.00  0.00     0.162 C 
BRANCH  21  22
HETATM   22  C   UNL     1      43.748  -9.662   9.515  1.00  0.00    -0.040 A 
HETATM   23  C   UNL     1      43.314  -8.338   9.675  1.00  0.00     0.021 A 
HETATM   24  C   UNL     1      42.972  -7.830  10.942  1.00  0.00    -0.025 A 
HETATM   25  C   UNL     1      43.064  -8.672  12.073  1.00  0.00    -0.026 A 
HETATM   26  C   UNL     1      42.546  -6.502  11.109  1.00  0.00     0.012 A 
HETATM   27  C   UNL     1      43.501  -9.996  11.908  1.00  0.00     0.013 A 
HETATM   28  C   UNL     1      42.725  -8.165  13.337  1.00  0.00     0.012 A 
HETATM   29  C   UNL     1      43.844 -10.483  10.645  1.00  0.00     0.010 A 
HETATM   30  C   UNL     1      42.304  -6.842  13.485  1.00  0.00     0.001 A 
HETATM   31  C   UNL     1      42.215  -6.011  12.373  1.00  0.00     0.001 A 
ENDBRANCH  21  22
ENDBRANCH   3  21
TORSDOF 6
ENDMDL
