MODEL 1
REMARK VINA RESULT:      -8.2      0.000      0.000
REMARK  5 active torsions:
REMARK  status: ('A' for Active; 'I' for Inactive)
REMARK    1  A    between atoms: C_2  and  C_3 
REMARK    2  A    between atoms: N_4  and  C_5 
REMARK    3  A    between atoms: C_5  and  C_6 
REMARK    4  A    between atoms: C_11  and  N_12 
REMARK       I    between atoms: N_12  and  C_13 
REMARK       I    between atoms: C_13  and  N_14 
REMARK    5  A    between atoms: N_14  and  C_15 
ROOT
HETATM    1  N   UNL     1      42.988 -11.672   3.771  1.00  0.00    -0.306 N 
HETATM    2  C   UNL     1      42.978 -13.030   3.639  1.00  0.00     0.321 C 
HETATM    3  N   UNL     1      42.246 -13.723   4.560  1.00  0.00    -0.333 N 
HETATM    4  O   UNL     1      43.549 -13.552   2.686  1.00  0.00    -0.247 OA
HETATM    5  H   UNL     1      43.366 -11.205   2.960  1.00  0.00     0.171 HD
HETATM    6  H   UNL     1      41.452 -13.201   4.909  1.00  0.00     0.165 HD
ENDROOT
BRANCH   1   7
HETATM    7  C   UNL     1      42.844 -10.914   4.919  1.00  0.00     0.080 A 
HETATM    8  C   UNL     1      43.587 -11.062   6.082  1.00  0.00     0.058 A 
HETATM    9  N   UNL     1      42.990 -10.203   6.991  1.00  0.00    -0.272 N 
HETATM   10  N   UNL     1      42.022  -9.439   6.455  1.00  0.00    -0.182 NA
HETATM   11  C   UNL     1      41.911  -9.896   5.210  1.00  0.00     0.170 A 
BRANCH   8  12
HETATM   12  C   UNL     1      44.774 -11.893   6.478  1.00  0.00     0.057 C 
HETATM   13  C   UNL     1      46.139 -11.251   6.301  1.00  0.00     0.011 C 
ENDBRANCH   8  12
BRANCH   9  14
HETATM   14  C   UNL     1      43.264 -10.056   8.412  1.00  0.00     0.155 C 
BRANCH  14  15
HETATM   15  C   UNL     1      44.424  -9.091   8.718  1.00  0.00    -0.003 C 
HETATM   16  C   UNL     1      43.933  -7.682   9.056  1.00  0.00     0.011 C 
HETATM   17  C   UNL     1      45.260  -9.636   9.877  1.00  0.00     0.011 C 
ENDBRANCH  14  15
ENDBRANCH   9  14
ENDBRANCH   1   7
BRANCH   3  18
HETATM   18  C   UNL     1      42.123 -15.191   4.545  1.00  0.00     0.039 C 
HETATM   19  C   UNL     1      40.857 -15.602   5.327  1.00  0.00     0.039 C 
HETATM   20  C   UNL     1      42.009 -15.711   3.076  1.00  0.00     0.070 C 
HETATM   21  C   UNL     1      42.693 -17.042   3.142  1.00  0.00    -0.049 A 
HETATM   22  C   UNL     1      43.464 -17.153   4.301  1.00  0.00    -0.049 A 
HETATM   23  C   UNL     1      42.659 -18.064   2.208  1.00  0.00     0.007 A 
HETATM   24  C   UNL     1      43.381 -15.907   5.128  1.00  0.00     0.070 C 
HETATM   25  C   UNL     1      44.212 -18.290   4.557  1.00  0.00     0.007 A 
HETATM   26  C   UNL     1      44.173 -19.332   3.629  1.00  0.00     0.001 A 
HETATM   27  C   UNL     1      43.403 -19.219   2.462  1.00  0.00     0.001 A 
ENDBRANCH   3  18
TORSDOF 5
ENDMDL
MODEL 2
REMARK VINA RESULT:      -8.2      5.011      7.495
REMARK  5 active torsions:
REMARK  status: ('A' for Active; 'I' for Inactive)
REMARK    1  A    between atoms: C_2  and  C_3 
REMARK    2  A    between atoms: N_4  and  C_5 
REMARK    3  A    between atoms: C_5  and  C_6 
REMARK    4  A    between atoms: C_11  and  N_12 
REMARK       I    between atoms: N_12  and  C_13 
REMARK       I    between atoms: C_13  and  N_14 
REMARK    5  A    between atoms: N_14  and  C_15 
ROOT
HETATM    1  N   UNL     1      39.364 -14.613  -0.179  1.00  0.00    -0.306 N 
HETATM    2  C   UNL     1      40.222 -15.198   0.707  1.00  0.00     0.321 C 
HETATM    3  N   UNL     1      41.375 -14.517   0.974  1.00  0.00    -0.333 N 
HETATM    4  O   UNL     1      39.900 -16.242   1.265  1.00  0.00    -0.247 OA
HETATM    5  H   UNL     1      38.453 -15.046  -0.182  1.00  0.00     0.171 HD
HETATM    6  H   UNL     1      41.271 -13.514   0.895  1.00  0.00     0.165 HD
ENDROOT
BRANCH   1   7
HETATM    7  C   UNL     1      39.654 -13.757  -1.226  1.00  0.00     0.080 A 
HETATM    8  C   UNL     1      39.410 -12.391  -1.244  1.00  0.00     0.058 A 
HETATM    9  N   UNL     1      39.718 -11.997  -2.536  1.00  0.00    -0.272 N 
HETATM   10  N   UNL     1      40.254 -12.976  -3.286  1.00  0.00    -0.182 NA
HETATM   11  C   UNL     1      40.181 -14.050  -2.503  1.00  0.00     0.170 A 
BRANCH   8  12
HETATM   12  C   UNL     1      38.927 -11.392  -0.231  1.00  0.00     0.057 C 
HETATM   13  C   UNL     1      39.882 -11.060   0.901  1.00  0.00     0.011 C 
ENDBRANCH   8  12
BRANCH   9  14
HETATM   14  C   UNL     1      39.512 -10.698  -3.160  1.00  0.00     0.155 C 
BRANCH  14  15
HETATM   15  C   UNL     1      40.822  -9.950  -3.468  1.00  0.00    -0.003 C 
HETATM   16  C   UNL     1      40.640  -8.889  -4.556  1.00  0.00     0.011 C 
HETATM   17  C   UNL     1      41.357  -9.294  -2.194  1.00  0.00     0.011 C 
ENDBRANCH  14  15
ENDBRANCH   9  14
ENDBRANCH   1   7
BRANCH   3  18
HETATM   18  C   UNL     1      42.395 -15.008   1.917  1.00  0.00     0.039 C 
HETATM   19  C   UNL     1      43.519 -13.956   2.040  1.00  0.00     0.039 C 
HETATM   20  C   UNL     1      41.762 -15.247   3.325  1.00  0.00     0.070 C 
HETATM   21  C   UNL     1      42.550 -16.407   3.850  1.00  0.00    -0.049 A 
HETATM   22  C   UNL     1      43.243 -17.050   2.821  1.00  0.00    -0.049 A 
HETATM   23  C   UNL     1      42.610 -16.877   5.151  1.00  0.00     0.007 A 
HETATM   24  C   UNL     1      42.985 -16.391   1.501  1.00  0.00     0.070 C 
HETATM   25  C   UNL     1      44.015 -18.172   3.071  1.00  0.00     0.007 A 
HETATM   26  C   UNL     1      44.094 -18.645   4.381  1.00  0.00     0.001 A 
HETATM   27  C   UNL     1      43.394 -18.003   5.414  1.00  0.00     0.001 A 
ENDBRANCH   3  18
TORSDOF 5
ENDMDL
MODEL 3
REMARK VINA RESULT:      -8.1      1.901      8.243
REMARK  5 active torsions:
REMARK  status: ('A' for Active; 'I' for Inactive)
REMARK    1  A    between atoms: C_2  and  C_3 
REMARK    2  A    between atoms: N_4  and  C_5 
REMARK    3  A    between atoms: C_5  and  C_6 
REMARK    4  A    between atoms: C_11  and  N_12 
REMARK       I    between atoms: N_12  and  C_13 
REMARK       I    between atoms: C_13  and  N_14 
REMARK    5  A    between atoms: N_14  and  C_15 
ROOT
HETATM    1  N   UNL     1      41.647 -15.020   5.001  1.00  0.00    -0.306 N 
HETATM    2  C   UNL     1      41.858 -13.745   5.440  1.00  0.00     0.321 C 
HETATM    3  N   UNL     1      43.122 -13.252   5.283  1.00  0.00    -0.333 N 
HETATM    4  O   UNL     1      40.918 -13.090   5.878  1.00  0.00    -0.247 OA
HETATM    5  H   UNL     1      40.667 -15.257   4.951  1.00  0.00     0.171 HD
HETATM    6  H   UNL     1      43.603 -13.642   4.483  1.00  0.00     0.165 HD
ENDROOT
BRANCH   1   7
HETATM    7  C   UNL     1      42.549 -16.065   4.914  1.00  0.00     0.080 A 
HETATM    8  C   UNL     1      43.045 -16.608   3.737  1.00  0.00     0.058 A 
HETATM    9  N   UNL     1      43.780 -17.711   4.141  1.00  0.00    -0.272 N 
HETATM   10  N   UNL     1      43.888 -17.826   5.477  1.00  0.00    -0.182 NA
HETATM   11  C   UNL     1      43.113 -16.850   5.943  1.00  0.00     0.170 A 
BRANCH   8  12
HETATM   12  C   UNL     1      42.934 -16.251   2.282  1.00  0.00     0.057 C 
HETATM   13  C   UNL     1      43.466 -14.888   1.876  1.00  0.00     0.011 C 
ENDBRANCH   8  12
BRANCH   9  14
HETATM   14  C   UNL     1      44.403 -18.735   3.317  1.00  0.00     0.155 C 
BRANCH  14  15
HETATM   15  C   UNL     1      43.502 -19.960   3.075  1.00  0.00    -0.003 C 
HETATM   16  C   UNL     1      43.592 -20.470   1.635  1.00  0.00     0.011 C 
HETATM   17  C   UNL     1      43.881 -21.083   4.042  1.00  0.00     0.011 C 
ENDBRANCH  14  15
ENDBRANCH   9  14
ENDBRANCH   1   7
BRANCH   3  18
HETATM   18  C   UNL     1      43.506 -11.890   5.693  1.00  0.00     0.039 C 
HETATM   19  C   UNL     1      43.112 -10.895   4.580  1.00  0.00     0.039 C 
HETATM   20  C   UNL     1      42.774 -11.495   7.016  1.00  0.00     0.070 C 
HETATM   21  C   UNL     1      43.773 -10.610   7.695  1.00  0.00    -0.049 A 
HETATM   22  C   UNL     1      45.042 -10.761   7.132  1.00  0.00    -0.049 A 
HETATM   23  C   UNL     1      43.567  -9.759   8.768  1.00  0.00     0.007 A 
HETATM   24  C   UNL     1      45.026 -11.766   6.023  1.00  0.00     0.070 C 
HETATM   25  C   UNL     1      46.131 -10.061   7.624  1.00  0.00     0.007 A 
HETATM   26  C   UNL     1      45.931  -9.190   8.696  1.00  0.00     0.001 A 
HETATM   27  C   UNL     1      44.657  -9.042   9.266  1.00  0.00     0.001 A 
ENDBRANCH   3  18
TORSDOF 5
ENDMDL
MODEL 4
REMARK VINA RESULT:      -8.0      4.538      6.137
REMARK  5 active torsions:
REMARK  status: ('A' for Active; 'I' for Inactive)
REMARK    1  A    between atoms: C_2  and  C_3 
REMARK    2  A    between atoms: N_4  and  C_5 
REMARK    3  A    between atoms: C_5  and  C_6 
REMARK    4  A    between atoms: C_11  and  N_12 
REMARK       I    between atoms: N_12  and  C_13 
REMARK       I    between atoms: C_13  and  N_14 
REMARK    5  A    between atoms: N_14  and  C_15 
ROOT
HETATM    1  N   UNL     1      39.007 -13.805   2.635  1.00  0.00    -0.306 N 
HETATM    2  C   UNL     1      39.952 -14.789   2.606  1.00  0.00     0.321 C 
HETATM    3  N   UNL     1      41.254 -14.379   2.567  1.00  0.00    -0.333 N 
HETATM    4  O   UNL     1      39.608 -15.964   2.686  1.00  0.00    -0.247 OA
HETATM    5  H   UNL     1      38.089 -14.153   2.868  1.00  0.00     0.171 HD
HETATM    6  H   UNL     1      41.403 -13.490   3.028  1.00  0.00     0.165 HD
ENDROOT
BRANCH   1   7
HETATM    7  C   UNL     1      39.077 -12.524   2.118  1.00  0.00     0.080 A 
HETATM    8  C   UNL     1      39.133 -12.199   0.770  1.00  0.00     0.058 A 
HETATM    9  N   UNL     1      39.347 -10.830   0.748  1.00  0.00    -0.272 N 
HETATM   10  N   UNL     1      39.301 -10.257   1.963  1.00  0.00    -0.182 NA
HETATM   11  C   UNL     1      39.173 -11.288   2.795  1.00  0.00     0.170 A 
BRANCH   8  12
HETATM   12  C   UNL     1      39.020 -12.979  -0.509  1.00  0.00     0.057 C 
HETATM   13  C   UNL     1      40.210 -13.845  -0.881  1.00  0.00     0.011 C 
ENDBRANCH   8  12
BRANCH   9  14
HETATM   14  C   UNL     1      39.632  -9.977  -0.396  1.00  0.00     0.155 C 
BRANCH  14  15
HETATM   15  C   UNL     1      41.046 -10.174  -0.973  1.00  0.00    -0.003 C 
HETATM   16  C   UNL     1      41.026 -10.439  -2.480  1.00  0.00     0.011 C 
HETATM   17  C   UNL     1      41.903  -8.942  -0.679  1.00  0.00     0.011 C 
ENDBRANCH  14  15
ENDBRANCH   9  14
ENDBRANCH   1   7
BRANCH   3  18
HETATM   18  C   UNL     1      42.389 -15.317   2.546  1.00  0.00     0.039 C 
HETATM   19  C   UNL     1      43.604 -14.629   1.885  1.00  0.00     0.039 C 
HETATM   20  C   UNL     1      42.770 -15.739   4.001  1.00  0.00     0.070 C 
HETATM   21  C   UNL     1      43.249 -17.148   3.823  1.00  0.00    -0.049 A 
HETATM   22  C   UNL     1      42.848 -17.661   2.587  1.00  0.00    -0.049 A 
HETATM   23  C   UNL     1      43.960 -17.926   4.721  1.00  0.00     0.007 A 
HETATM   24  C   UNL     1      42.054 -16.654   1.814  1.00  0.00     0.070 C 
HETATM   25  C   UNL     1      43.154 -18.961   2.219  1.00  0.00     0.007 A 
HETATM   26  C   UNL     1      43.882 -19.749   3.112  1.00  0.00     0.001 A 
HETATM   27  C   UNL     1      44.280 -19.235   4.355  1.00  0.00     0.001 A 
ENDBRANCH   3  18
TORSDOF 5
ENDMDL
MODEL 5
REMARK VINA RESULT:      -7.9      1.611      2.458
REMARK  5 active torsions:
REMARK  status: ('A' for Active; 'I' for Inactive)
REMARK    1  A    between atoms: C_2  and  C_3 
REMARK    2  A    between atoms: N_4  and  C_5 
REMARK    3  A    between atoms: C_5  and  C_6 
REMARK    4  A    between atoms: C_11  and  N_12 
REMARK       I    between atoms: N_12  and  C_13 
REMARK       I    between atoms: C_13  and  N_14 
REMARK    5  A    between atoms: N_14  and  C_15 
ROOT
HETATM    1  N   UNL     1      43.493 -11.451   5.642  1.00  0.00    -0.306 N 
HETATM    2  C   UNL     1      43.260 -12.706   5.159  1.00  0.00     0.321 C 
HETATM    3  N   UNL     1      42.992 -13.673   6.085  1.00  0.00    -0.333 N 
HETATM    4  O   UNL     1      43.231 -12.895   3.947  1.00  0.00    -0.247 OA
HETATM    5  H   UNL     1      43.482 -10.748   4.919  1.00  0.00     0.171 HD
HETATM    6  H   UNL     1      42.535 -13.312   6.913  1.00  0.00     0.165 HD
ENDROOT
BRANCH   1   7
HETATM    7  C   UNL     1      44.015 -11.081   6.868  1.00  0.00     0.080 A 
HETATM    8  C   UNL     1      43.424 -10.201   7.765  1.00  0.00     0.058 A 
HETATM    9  N   UNL     1      44.372 -10.025   8.760  1.00  0.00    -0.272 N 
HETATM   10  N   UNL     1      45.449 -10.818   8.625  1.00  0.00    -0.182 NA
HETATM   11  C   UNL     1      45.248 -11.430   7.461  1.00  0.00     0.170 A 
BRANCH   8  12
HETATM   12  C   UNL     1      42.101  -9.492   7.830  1.00  0.00     0.057 C 
HETATM   13  C   UNL     1      41.952  -8.254   6.963  1.00  0.00     0.011 C 
ENDBRANCH   8  12
BRANCH   9  14
HETATM   14  C   UNL     1      44.348  -9.094   9.879  1.00  0.00     0.155 C 
BRANCH  14  15
HETATM   15  C   UNL     1      43.409  -9.529  11.019  1.00  0.00    -0.003 C 
HETATM   16  C   UNL     1      43.770 -10.909  11.573  1.00  0.00     0.011 C 
HETATM   17  C   UNL     1      43.448  -8.496  12.146  1.00  0.00     0.011 C 
ENDBRANCH  14  15
ENDBRANCH   9  14
ENDBRANCH   1   7
BRANCH   3  18
HETATM   18  C   UNL     1      42.706 -15.072   5.724  1.00  0.00     0.039 C 
HETATM   19  C   UNL     1      41.633 -15.635   6.682  1.00  0.00     0.039 C 
HETATM   20  C   UNL     1      42.175 -15.155   4.256  1.00  0.00     0.070 C 
HETATM   21  C   UNL     1      42.701 -16.477   3.788  1.00  0.00    -0.049 A 
HETATM   22  C   UNL     1      43.717 -16.939   4.629  1.00  0.00    -0.049 A 
HETATM   23  C   UNL     1      42.323 -17.195   2.666  1.00  0.00     0.007 A 
HETATM   24  C   UNL     1      43.980 -15.972   5.742  1.00  0.00     0.070 C 
HETATM   25  C   UNL     1      44.372 -18.131   4.370  1.00  0.00     0.007 A 
HETATM   26  C   UNL     1      43.990 -18.869   3.250  1.00  0.00     0.001 A 
HETATM   27  C   UNL     1      42.973 -18.403   2.402  1.00  0.00     0.001 A 
ENDBRANCH   3  18
TORSDOF 5
ENDMDL
MODEL 6
REMARK VINA RESULT:      -7.7      3.616      9.171
REMARK  5 active torsions:
REMARK  status: ('A' for Active; 'I' for Inactive)
REMARK    1  A    between atoms: C_2  and  C_3 
REMARK    2  A    between atoms: N_4  and  C_5 
REMARK    3  A    between atoms: C_5  and  C_6 
REMARK    4  A    between atoms: C_11  and  N_12 
REMARK       I    between atoms: N_12  and  C_13 
REMARK       I    between atoms: C_13  and  N_14 
REMARK    5  A    between atoms: N_14  and  C_15 
ROOT
HETATM    1  N   UNL     1      42.707  -9.298   7.610  1.00  0.00    -0.306 N 
HETATM    2  C   UNL     1      42.720  -9.032   8.949  1.00  0.00     0.321 C 
HETATM    3  N   UNL     1      42.936 -10.096   9.777  1.00  0.00    -0.333 N 
HETATM    4  O   UNL     1      42.613  -7.873   9.338  1.00  0.00    -0.247 OA
HETATM    5  H   UNL     1      42.750  -8.463   7.047  1.00  0.00     0.171 HD
HETATM    6  H   UNL     1      43.510 -10.815   9.357  1.00  0.00     0.165 HD
ENDROOT
BRANCH   1   7
HETATM    7  C   UNL     1      42.355 -10.470   6.966  1.00  0.00     0.080 A 
HETATM    8  C   UNL     1      43.195 -11.552   6.739  1.00  0.00     0.058 A 
HETATM    9  N   UNL     1      42.457 -12.408   5.939  1.00  0.00    -0.272 N 
HETATM   10  N   UNL     1      41.185 -12.012   5.756  1.00  0.00    -0.182 NA
HETATM   11  C   UNL     1      41.135 -10.822   6.348  1.00  0.00     0.170 A 
BRANCH   8  12
HETATM   12  C   UNL     1      44.594 -11.906   7.156  1.00  0.00     0.057 C 
HETATM   13  C   UNL     1      45.719 -11.305   6.331  1.00  0.00     0.011 C 
ENDBRANCH   8  12
BRANCH   9  14
HETATM   14  C   UNL     1      42.891 -13.630   5.278  1.00  0.00     0.155 C 
BRANCH  14  15
HETATM   15  C   UNL     1      42.645 -14.901   6.111  1.00  0.00    -0.003 C 
HETATM   16  C   UNL     1      41.722 -15.892   5.397  1.00  0.00     0.011 C 
HETATM   17  C   UNL     1      43.978 -15.578   6.431  1.00  0.00     0.011 C 
ENDBRANCH  14  15
ENDBRANCH   9  14
ENDBRANCH   1   7
BRANCH   3  18
HETATM   18  C   UNL     1      42.992  -9.971  11.244  1.00  0.00     0.039 C 
HETATM   19  C   UNL     1      43.768 -11.172  11.826  1.00  0.00     0.039 C 
HETATM   20  C   UNL     1      43.719  -8.648  11.648  1.00  0.00     0.070 C 
HETATM   21  C   UNL     1      43.022  -8.261  12.915  1.00  0.00    -0.049 A 
HETATM   22  C   UNL     1      41.816  -8.952  13.056  1.00  0.00    -0.049 A 
HETATM   23  C   UNL     1      43.421  -7.326  13.856  1.00  0.00     0.007 A 
HETATM   24  C   UNL     1      41.578  -9.867  11.895  1.00  0.00     0.070 C 
HETATM   25  C   UNL     1      40.986  -8.729  14.142  1.00  0.00     0.007 A 
HETATM   26  C   UNL     1      41.386  -7.798  15.103  1.00  0.00     0.001 A 
HETATM   27  C   UNL     1      42.594  -7.100  14.959  1.00  0.00     0.001 A 
ENDBRANCH   3  18
TORSDOF 5
ENDMDL
MODEL 7
REMARK VINA RESULT:      -7.4      2.799      4.419
REMARK  5 active torsions:
REMARK  status: ('A' for Active; 'I' for Inactive)
REMARK    1  A    between atoms: C_2  and  C_3 
REMARK    2  A    between atoms: N_4  and  C_5 
REMARK    3  A    between atoms: C_5  and  C_6 
REMARK    4  A    between atoms: C_11  and  N_12 
REMARK       I    between atoms: N_12  and  C_13 
REMARK       I    between atoms: C_13  and  N_14 
REMARK    5  A    between atoms: N_14  and  C_15 
ROOT
HETATM    1  N   UNL     1      41.417  -9.242   7.527  1.00  0.00    -0.306 N 
HETATM    2  C   UNL     1      42.139 -10.042   6.690  1.00  0.00     0.321 C 
HETATM    3  N   UNL     1      42.538 -11.246   7.195  1.00  0.00    -0.333 N 
HETATM    4  O   UNL     1      42.331  -9.690   5.530  1.00  0.00    -0.247 OA
HETATM    5  H   UNL     1      40.979  -8.470   7.047  1.00  0.00     0.171 HD
HETATM    6  H   UNL     1      41.902 -11.614   7.891  1.00  0.00     0.165 HD
ENDROOT
BRANCH   1   7
HETATM    7  C   UNL     1      41.458  -9.177   8.908  1.00  0.00     0.080 A 
HETATM    8  C   UNL     1      42.567  -8.830   9.668  1.00  0.00     0.058 A 
HETATM    9  N   UNL     1      42.177  -9.053  10.979  1.00  0.00    -0.272 N 
HETATM   10  N   UNL     1      40.881  -9.387  11.107  1.00  0.00    -0.182 NA
HETATM   11  C   UNL     1      40.456  -9.496   9.851  1.00  0.00     0.170 A 
BRANCH   8  12
HETATM   12  C   UNL     1      43.944  -8.322   9.353  1.00  0.00     0.057 C 
HETATM   13  C   UNL     1      45.031  -9.369   9.187  1.00  0.00     0.011 C 
ENDBRANCH   8  12
BRANCH   9  14
HETATM   14  C   UNL     1      42.987  -8.996  12.187  1.00  0.00     0.155 C 
BRANCH  14  15
HETATM   15  C   UNL     1      42.379  -8.114  13.293  1.00  0.00    -0.003 C 
HETATM   16  C   UNL     1      41.802  -8.943  14.443  1.00  0.00     0.011 C 
HETATM   17  C   UNL     1      43.440  -7.154  13.833  1.00  0.00     0.011 C 
ENDBRANCH  14  15
ENDBRANCH   9  14
ENDBRANCH   1   7
BRANCH   3  18
HETATM   18  C   UNL     1      43.311 -12.227   6.414  1.00  0.00     0.039 C 
HETATM   19  C   UNL     1      44.642 -11.584   5.967  1.00  0.00     0.039 C 
HETATM   20  C   UNL     1      43.618 -13.489   7.281  1.00  0.00     0.070 C 
HETATM   21  C   UNL     1      43.611 -14.595   6.271  1.00  0.00    -0.049 A 
HETATM   22  C   UNL     1      42.997 -14.186   5.084  1.00  0.00    -0.049 A 
HETATM   23  C   UNL     1      44.084 -15.888   6.419  1.00  0.00     0.007 A 
HETATM   24  C   UNL     1      42.525 -12.768   5.180  1.00  0.00     0.070 C 
HETATM   25  C   UNL     1      42.850 -15.057   4.018  1.00  0.00     0.007 A 
HETATM   26  C   UNL     1      43.336 -16.358   4.152  1.00  0.00     0.001 A 
HETATM   27  C   UNL     1      43.948 -16.771   5.346  1.00  0.00     0.001 A 
ENDBRANCH   3  18
TORSDOF 5
ENDMDL
MODEL 8
REMARK VINA RESULT:      -7.3      2.615      4.199
REMARK  5 active torsions:
REMARK  status: ('A' for Active; 'I' for Inactive)
REMARK    1  A    between atoms: C_2  and  C_3 
REMARK    2  A    between atoms: N_4  and  C_5 
REMARK    3  A    between atoms: C_5  and  C_6 
REMARK    4  A    between atoms: C_11  and  N_12 
REMARK       I    between atoms: N_12  and  C_13 
REMARK       I    between atoms: C_13  and  N_14 
REMARK    5  A    between atoms: N_14  and  C_15 
ROOT
HETATM    1  N   UNL     1      44.522 -10.690   8.293  1.00  0.00    -0.306 N 
HETATM    2  C   UNL     1      44.181 -11.534   7.277  1.00  0.00     0.321 C 
HETATM    3  N   UNL     1      42.846 -11.763   7.100  1.00  0.00    -0.333 N 
HETATM    4  O   UNL     1      45.054 -11.983   6.541  1.00  0.00    -0.247 OA
HETATM    5  H   UNL     1      45.487 -10.399   8.250  1.00  0.00     0.171 HD
HETATM    6  H   UNL     1      42.270 -10.978   7.376  1.00  0.00     0.165 HD
ENDROOT
BRANCH   1   7
HETATM    7  C   UNL     1      43.846 -10.441   9.474  1.00  0.00     0.080 A 
HETATM    8  C   UNL     1      42.945  -9.406   9.685  1.00  0.00     0.058 A 
HETATM    9  N   UNL     1      42.651  -9.468  11.038  1.00  0.00    -0.272 N 
HETATM   10  N   UNL     1      43.192 -10.531  11.659  1.00  0.00    -0.182 NA
HETATM   11  C   UNL     1      43.944 -11.098  10.719  1.00  0.00     0.170 A 
BRANCH   8  12
HETATM   12  C   UNL     1      42.316  -8.359   8.810  1.00  0.00     0.057 C 
HETATM   13  C   UNL     1      43.137  -7.107   8.557  1.00  0.00     0.011 C 
ENDBRANCH   8  12
BRANCH   9  14
HETATM   14  C   UNL     1      41.874  -8.534  11.839  1.00  0.00     0.155 C 
BRANCH  14  15
HETATM   15  C   UNL     1      42.702  -7.357  12.386  1.00  0.00    -0.003 C 
HETATM   16  C   UNL     1      42.056  -6.004  12.083  1.00  0.00     0.011 C 
HETATM   17  C   UNL     1      42.889  -7.511  13.896  1.00  0.00     0.011 C 
ENDBRANCH  14  15
ENDBRANCH   9  14
ENDBRANCH   1   7
BRANCH   3  18
HETATM   18  C   UNL     1      42.316 -12.637   6.040  1.00  0.00     0.039 C 
HETATM   19  C   UNL     1      40.774 -12.547   6.032  1.00  0.00     0.039 C 
HETATM   20  C   UNL     1      42.862 -12.190   4.646  1.00  0.00     0.070 C 
HETATM   21  C   UNL     1      42.965 -13.485   3.900  1.00  0.00    -0.049 A 
HETATM   22  C   UNL     1      42.912 -14.573   4.774  1.00  0.00    -0.049 A 
HETATM   23  C   UNL     1      43.134 -13.673   2.539  1.00  0.00     0.007 A 
HETATM   24  C   UNL     1      42.775 -14.120   6.195  1.00  0.00     0.070 C 
HETATM   25  C   UNL     1      43.021 -15.873   4.307  1.00  0.00     0.007 A 
HETATM   26  C   UNL     1      43.177 -16.073   2.935  1.00  0.00     0.001 A 
HETATM   27  C   UNL     1      43.235 -14.981   2.057  1.00  0.00     0.001 A 
ENDBRANCH   3  18
TORSDOF 5
ENDMDL
MODEL 9
REMARK VINA RESULT:      -7.3      4.208      7.207
REMARK  5 active torsions:
REMARK  status: ('A' for Active; 'I' for Inactive)
REMARK    1  A    between atoms: C_2  and  C_3 
REMARK    2  A    between atoms: N_4  and  C_5 
REMARK    3  A    between atoms: C_5  and  C_6 
REMARK    4  A    between atoms: C_11  and  N_12 
REMARK       I    between atoms: N_12  and  C_13 
REMARK       I    between atoms: C_13  and  N_14 
REMARK    5  A    between atoms: N_14  and  C_15 
ROOT
HETATM    1  N   UNL     1      39.951 -13.353   4.346  1.00  0.00    -0.306 N 
HETATM    2  C   UNL     1      39.831 -12.845   3.085  1.00  0.00     0.321 C 
HETATM    3  N   UNL     1      40.043 -13.719   2.057  1.00  0.00    -0.333 N 
HETATM    4  O   UNL     1      39.479 -11.680   2.930  1.00  0.00    -0.247 OA
HETATM    5  H   UNL     1      39.589 -12.730   5.052  1.00  0.00     0.171 HD
HETATM    6  H   UNL     1      39.794 -14.672   2.289  1.00  0.00     0.165 HD
ENDROOT
BRANCH   1   7
HETATM    7  C   UNL     1      40.733 -14.407   4.783  1.00  0.00     0.080 A 
HETATM    8  C   UNL     1      42.082 -14.580   4.506  1.00  0.00     0.058 A 
HETATM    9  N   UNL     1      42.387 -15.832   5.014  1.00  0.00    -0.272 N 
HETATM   10  N   UNL     1      41.375 -16.398   5.696  1.00  0.00    -0.182 NA
HETATM   11  C   UNL     1      40.364 -15.550   5.524  1.00  0.00     0.170 A 
BRANCH   8  12
HETATM   12  C   UNL     1      43.136 -13.749   3.831  1.00  0.00     0.057 C 
HETATM   13  C   UNL     1      43.420 -14.069   2.374  1.00  0.00     0.011 C 
ENDBRANCH   8  12
BRANCH   9  14
HETATM   14  C   UNL     1      43.622 -16.589   4.878  1.00  0.00     0.155 C 
BRANCH  14  15
HETATM   15  C   UNL     1      43.451 -17.909   4.104  1.00  0.00    -0.003 C 
HETATM   16  C   UNL     1      43.231 -17.679   2.607  1.00  0.00     0.011 C 
HETATM   17  C   UNL     1      44.680 -18.796   4.312  1.00  0.00     0.011 C 
ENDBRANCH  14  15
ENDBRANCH   9  14
ENDBRANCH   1   7
BRANCH   3  18
HETATM   18  C   UNL     1      39.938 -13.329   0.640  1.00  0.00     0.039 C 
HETATM   19  C   UNL     1      41.098 -12.372   0.290  1.00  0.00     0.039 C 
HETATM   20  C   UNL     1      40.023 -14.592  -0.277  1.00  0.00     0.070 C 
HETATM   21  C   UNL     1      39.139 -14.224  -1.429  1.00  0.00    -0.049 A 
HETATM   22  C   UNL     1      38.320 -13.139  -1.107  1.00  0.00    -0.049 A 
HETATM   23  C   UNL     1      39.047 -14.843  -2.664  1.00  0.00     0.007 A 
HETATM   24  C   UNL     1      38.565 -12.673   0.295  1.00  0.00     0.070 C 
HETATM   25  C   UNL     1      37.397 -12.645  -2.014  1.00  0.00     0.007 A 
HETATM   26  C   UNL     1      37.307 -13.254  -3.266  1.00  0.00     0.001 A 
HETATM   27  C   UNL     1      38.125 -14.347  -3.589  1.00  0.00     0.001 A 
ENDBRANCH   3  18
TORSDOF 5
ENDMDL
MODEL 10
REMARK VINA RESULT:      -7.3      2.234      8.814
REMARK  5 active torsions:
REMARK  status: ('A' for Active; 'I' for Inactive)
REMARK    1  A    between atoms: C_2  and  C_3 
REMARK    2  A    between atoms: N_4  and  C_5 
REMARK    3  A    between atoms: C_5  and  C_6 
REMARK    4  A    between atoms: C_11  and  N_12 
REMARK       I    between atoms: N_12  and  C_13 
REMARK       I    between atoms: C_13  and  N_14 
REMARK    5  A    between atoms: N_14  and  C_15 
ROOT
HETATM    1  N   UNL     1      44.681 -12.352   6.741  1.00  0.00    -0.306 N 
HETATM    2  C   UNL     1      44.909 -11.301   7.582  1.00  0.00     0.321 C 
HETATM    3  N   UNL     1      43.886 -10.962   8.420  1.00  0.00    -0.333 N 
HETATM    4  O   UNL     1      46.014 -10.767   7.601  1.00  0.00    -0.247 OA
HETATM    5  H   UNL     1      45.524 -12.686   6.298  1.00  0.00     0.171 HD
HETATM    6  H   UNL     1      43.305 -11.750   8.674  1.00  0.00     0.165 HD
ENDROOT
BRANCH   1   7
HETATM    7  C   UNL     1      43.481 -12.792   6.214  1.00  0.00     0.080 A 
HETATM    8  C   UNL     1      43.076 -14.117   6.123  1.00  0.00     0.058 A 
HETATM    9  N   UNL     1      41.896 -14.074   5.398  1.00  0.00    -0.272 N 
HETATM   10  N   UNL     1      41.466 -12.826   5.141  1.00  0.00    -0.182 NA
HETATM   11  C   UNL     1      42.444 -12.052   5.604  1.00  0.00     0.170 A 
BRANCH   8  12
HETATM   12  C   UNL     1      43.630 -15.425   6.611  1.00  0.00     0.057 C 
HETATM   13  C   UNL     1      43.119 -15.919   7.953  1.00  0.00     0.011 C 
ENDBRANCH   8  12
BRANCH   9  14
HETATM   14  C   UNL     1      41.111 -15.184   4.879  1.00  0.00     0.155 C 
BRANCH  14  15
HETATM   15  C   UNL     1      41.429 -15.529   3.413  1.00  0.00    -0.003 C 
HETATM   16  C   UNL     1      42.261 -16.807   3.285  1.00  0.00     0.011 C 
HETATM   17  C   UNL     1      40.129 -15.680   2.622  1.00  0.00     0.011 C 
ENDBRANCH  14  15
ENDBRANCH   9  14
ENDBRANCH   1   7
BRANCH   3  18
HETATM   18  C   UNL     1      43.980  -9.862   9.395  1.00  0.00     0.039 C 
HETATM   19  C   UNL     1      45.293 -10.005  10.196  1.00  0.00     0.039 C 
HETATM   20  C   UNL     1      43.977  -8.484   8.659  1.00  0.00     0.070 C 
HETATM   21  C   UNL     1      43.275  -7.589   9.634  1.00  0.00    -0.049 A 
HETATM   22  C   UNL     1      42.590  -8.336  10.596  1.00  0.00    -0.049 A 
HETATM   23  C   UNL     1      43.221  -6.206   9.635  1.00  0.00     0.007 A 
HETATM   24  C   UNL     1      42.756  -9.805  10.361  1.00  0.00     0.070 C 
HETATM   25  C   UNL     1      41.842  -7.716  11.583  1.00  0.00     0.007 A 
HETATM   26  C   UNL     1      41.793  -6.322  11.601  1.00  0.00     0.001 A 
HETATM   27  C   UNL     1      42.477  -5.572  10.633  1.00  0.00     0.001 A 
ENDBRANCH   3  18
TORSDOF 5
ENDMDL
