MODEL 1
REMARK VINA RESULT:     -10.0      0.000      0.000
REMARK  6 active torsions:
REMARK  status: ('A' for Active; 'I' for Inactive)
REMARK    1  A    between atoms: O_2  and  C_3 
REMARK    2  A    between atoms: C_5  and  N_6 
REMARK    3  A    between atoms: C_7  and  C_9 
REMARK    4  A    between atoms: C_7  and  O_8 
REMARK       I    between atoms: C_9  and  N_10 
REMARK    5  A    between atoms: N_10  and  C_11 
REMARK    6  A    between atoms: C_11  and  C_12 
ROOT
HETATM    1  N   UNL     1      40.458 -14.007   3.705  1.00  0.00    -0.254 N 
HETATM    2  C   UNL     1      40.451 -14.838   2.487  1.00  0.00     0.256 C 
HETATM    3  C   UNL     1      39.984 -14.144   1.222  1.00  0.00     0.034 A 
HETATM    4  C   UNL     1      39.436 -12.875   1.314  1.00  0.00     0.048 A 
HETATM    5  N   UNL     1      39.325 -12.286   2.559  1.00  0.00    -0.308 N 
HETATM    6  C   UNL     1      39.779 -12.796   3.733  1.00  0.00     0.330 C 
HETATM    7  O   UNL     1      39.521 -12.139   4.743  1.00  0.00    -0.246 OA
HETATM    8  C   UNL     1      40.035 -14.752  -0.047  1.00  0.00     0.015 A 
HETATM    9  C   UNL     1      39.580 -14.079  -1.184  1.00  0.00     0.001 A 
HETATM   10  C   UNL     1      39.049 -12.798  -1.067  1.00  0.00     0.002 A 
HETATM   11  C   UNL     1      38.968 -12.196   0.186  1.00  0.00     0.030 A 
HETATM   12  H   UNL     1      38.877 -11.383   2.652  1.00  0.00     0.170 HD
ENDROOT
BRANCH   2  13
HETATM   13  C   UNL     1      41.910 -15.413   2.196  1.00  0.00     0.279 C 
HETATM   14  N   UNL     1      42.031 -16.759   2.509  1.00  0.00    -0.352 N 
HETATM   15  H   UNL     1      41.173 -17.246   2.754  1.00  0.00     0.162 HD
HETATM   16  O   UNL     1      42.835 -14.755   1.725  1.00  0.00    -0.268 OA
BRANCH  14  17
HETATM   17  C   UNL     1      43.207 -17.528   2.187  1.00  0.00     0.163 C 
BRANCH  17  18
HETATM   18  C   UNL     1      43.514 -18.527   3.272  1.00  0.00    -0.019 A 
HETATM   19  C   UNL     1      43.702 -19.894   3.015  1.00  0.00     0.042 A 
HETATM   20 CL   UNL     1      43.590 -20.541   1.416  1.00  0.00    -0.084 Cl
HETATM   21  C   UNL     1      43.973 -20.785   4.059  1.00  0.00     0.024 A 
HETATM   22  C   UNL     1      44.057 -20.322   5.372  1.00  0.00     0.002 A 
HETATM   23  C   UNL     1      43.863 -18.971   5.643  1.00  0.00     0.001 A 
HETATM   24  C   UNL     1      43.589 -18.080   4.604  1.00  0.00     0.010 A 
ENDBRANCH  17  18
ENDBRANCH  14  17
ENDBRANCH   2  13
BRANCH   2  25
HETATM   25  O   UNL     1      39.490 -15.878   2.700  1.00  0.00    -0.359 OA
HETATM   26  H   UNL     1      39.890 -16.646   2.257  1.00  0.00     0.213 HD
ENDBRANCH   2  25
BRANCH   1  27
HETATM   27  C   UNL     1      41.135 -14.481   4.905  1.00  0.00     0.045 A 
HETATM   28  C   UNL     1      42.358 -13.919   5.311  1.00  0.00     0.066 A 
HETATM   29  C   UNL     1      43.031 -14.343   6.466  1.00  0.00     0.070 A 
HETATM   30  C   UNL     1      42.503 -15.379   7.226  1.00  0.00     0.037 A 
HETATM   31  C   UNL     1      41.303 -15.970   6.839  1.00  0.00     0.005 A 
HETATM   32  C   UNL     1      40.628 -15.524   5.696  1.00  0.00     0.030 A 
BRANCH  29  33
HETATM   33  O   UNL     1      44.204 -13.686   6.723  1.00  0.00    -0.356 OA
HETATM   34  C   UNL     1      44.101 -12.294   6.991  1.00  0.00     0.210 C 
ENDBRANCH  29  33
ENDBRANCH   1  27
TORSDOF 6
ENDMDL
MODEL 2
REMARK VINA RESULT:      -9.1      2.323      6.437
REMARK  6 active torsions:
REMARK  status: ('A' for Active; 'I' for Inactive)
REMARK    1  A    between atoms: O_2  and  C_3 
REMARK    2  A    between atoms: C_5  and  N_6 
REMARK    3  A    between atoms: C_7  and  C_9 
REMARK    4  A    between atoms: C_7  and  O_8 
REMARK       I    between atoms: C_9  and  N_10 
REMARK    5  A    between atoms: N_10  and  C_11 
REMARK    6  A    between atoms: C_11  and  C_12 
ROOT
HETATM    1  N   UNL     1      43.026 -15.352   4.527  1.00  0.00    -0.254 N 
HETATM    2  C   UNL     1      42.806 -16.049   3.246  1.00  0.00     0.256 C 
HETATM    3  C   UNL     1      43.140 -17.529   3.239  1.00  0.00     0.034 A 
HETATM    4  C   UNL     1      43.782 -18.079   4.336  1.00  0.00     0.048 A 
HETATM    5  N   UNL     1      44.106 -17.258   5.399  1.00  0.00    -0.308 N 
HETATM    6  C   UNL     1      43.785 -15.944   5.527  1.00  0.00     0.330 C 
HETATM    7  O   UNL     1      44.227 -15.376   6.527  1.00  0.00    -0.246 OA
HETATM    8  C   UNL     1      42.870 -18.368   2.141  1.00  0.00     0.015 A 
HETATM    9  C   UNL     1      43.208 -19.724   2.174  1.00  0.00     0.001 A 
HETATM   10  C   UNL     1      43.839 -20.256   3.294  1.00  0.00     0.002 A 
HETATM   11  C   UNL     1      44.135 -19.430   4.376  1.00  0.00     0.030 A 
HETATM   12  H   UNL     1      44.625 -17.630   6.185  1.00  0.00     0.170 HD
ENDROOT
BRANCH   2  13
HETATM   13  C   UNL     1      41.284 -15.909   2.790  1.00  0.00     0.279 C 
HETATM   14  N   UNL     1      41.142 -15.239   1.584  1.00  0.00    -0.352 N 
HETATM   15  H   UNL     1      42.000 -15.036   1.075  1.00  0.00     0.162 HD
HETATM   16  O   UNL     1      40.327 -16.359   3.416  1.00  0.00    -0.268 OA
BRANCH  14  17
HETATM   17  C   UNL     1      39.878 -15.129   0.901  1.00  0.00     0.163 C 
BRANCH  17  18
HETATM   18  C   UNL     1      40.015 -14.323  -0.364  1.00  0.00    -0.019 A 
HETATM   19  C   UNL     1      40.602 -13.048  -0.392  1.00  0.00     0.042 A 
HETATM   20 CL   UNL     1      41.213 -12.298   1.040  1.00  0.00    -0.084 Cl
HETATM   21  C   UNL     1      40.696 -12.332  -1.591  1.00  0.00     0.024 A 
HETATM   22  C   UNL     1      40.204 -12.880  -2.775  1.00  0.00     0.002 A 
HETATM   23  C   UNL     1      39.611 -14.139  -2.762  1.00  0.00     0.001 A 
HETATM   24  C   UNL     1      39.513 -14.854  -1.566  1.00  0.00     0.010 A 
ENDBRANCH  17  18
ENDBRANCH  14  17
ENDBRANCH   2  13
BRANCH   2  25
HETATM   25  O   UNL     1      43.712 -15.474   2.299  1.00  0.00    -0.359 OA
HETATM   26  H   UNL     1      43.133 -14.927   1.740  1.00  0.00     0.213 HD
ENDBRANCH   2  25
BRANCH   1  27
HETATM   27  C   UNL     1      42.492 -14.012   4.726  1.00  0.00     0.045 A 
HETATM   28  C   UNL     1      41.321 -13.808   5.478  1.00  0.00     0.066 A 
HETATM   29  C   UNL     1      40.785 -12.531   5.700  1.00  0.00     0.070 A 
HETATM   30  C   UNL     1      41.399 -11.422   5.133  1.00  0.00     0.037 A 
HETATM   31  C   UNL     1      42.548 -11.593   4.365  1.00  0.00     0.005 A 
HETATM   32  C   UNL     1      43.088 -12.869   4.168  1.00  0.00     0.030 A 
BRANCH  29  33
HETATM   33  O   UNL     1      39.647 -12.508   6.460  1.00  0.00    -0.356 OA
HETATM   34  C   UNL     1      39.094 -11.226   6.728  1.00  0.00     0.210 C 
ENDBRANCH  29  33
ENDBRANCH   1  27
TORSDOF 6
ENDMDL
MODEL 3
REMARK VINA RESULT:      -8.8      1.523      5.026
REMARK  6 active torsions:
REMARK  status: ('A' for Active; 'I' for Inactive)
REMARK    1  A    between atoms: O_2  and  C_3 
REMARK    2  A    between atoms: C_5  and  N_6 
REMARK    3  A    between atoms: C_7  and  C_9 
REMARK    4  A    between atoms: C_7  and  O_8 
REMARK       I    between atoms: C_9  and  N_10 
REMARK    5  A    between atoms: N_10  and  C_11 
REMARK    6  A    between atoms: C_11  and  C_12 
ROOT
HETATM    1  N   UNL     1      40.994 -13.756   2.599  1.00  0.00    -0.254 N 
HETATM    2  C   UNL     1      42.354 -14.001   3.115  1.00  0.00     0.256 C 
HETATM    3  C   UNL     1      42.444 -14.349   4.589  1.00  0.00     0.034 A 
HETATM    4  C   UNL     1      41.310 -14.237   5.376  1.00  0.00     0.048 A 
HETATM    5  N   UNL     1      40.134 -13.805   4.795  1.00  0.00    -0.308 N 
HETATM    6  C   UNL     1      39.939 -13.542   3.476  1.00  0.00     0.330 C 
HETATM    7  O   UNL     1      38.828 -13.103   3.172  1.00  0.00    -0.246 OA
HETATM    8  C   UNL     1      43.646 -14.735   5.211  1.00  0.00     0.015 A 
HETATM    9  C   UNL     1      43.685 -15.032   6.576  1.00  0.00     0.001 A 
HETATM   10  C   UNL     1      42.528 -14.928   7.343  1.00  0.00     0.002 A 
HETATM   11  C   UNL     1      41.338 -14.521   6.744  1.00  0.00     0.030 A 
HETATM   12  H   UNL     1      39.310 -13.664   5.365  1.00  0.00     0.170 HD
ENDROOT
BRANCH   2  13
HETATM   13  C   UNL     1      43.049 -15.189   2.309  1.00  0.00     0.279 C 
HETATM   14  N   UNL     1      42.702 -16.443   2.791  1.00  0.00    -0.352 N 
HETATM   15  H   UNL     1      41.967 -16.471   3.493  1.00  0.00     0.162 HD
HETATM   16  O   UNL     1      43.797 -15.031   1.346  1.00  0.00    -0.268 OA
BRANCH  14  17
HETATM   17  C   UNL     1      43.084 -17.663   2.126  1.00  0.00     0.163 C 
BRANCH  17  18
HETATM   18  C   UNL     1      43.469 -18.725   3.123  1.00  0.00    -0.019 A 
HETATM   19  C   UNL     1      43.634 -20.073   2.771  1.00  0.00     0.042 A 
HETATM   20 CL   UNL     1      43.401 -20.624   1.149  1.00  0.00    -0.084 Cl
HETATM   21  C   UNL     1      43.980 -21.025   3.737  1.00  0.00     0.024 A 
HETATM   22  C   UNL     1      44.163 -20.642   5.065  1.00  0.00     0.002 A 
HETATM   23  C   UNL     1      43.994 -19.310   5.431  1.00  0.00     0.001 A 
HETATM   24  C   UNL     1      43.645 -18.359   4.470  1.00  0.00     0.010 A 
ENDBRANCH  17  18
ENDBRANCH  14  17
ENDBRANCH   2  13
BRANCH   2  25
HETATM   25  O   UNL     1      43.073 -12.769   2.993  1.00  0.00    -0.359 OA
HETATM   26  H   UNL     1      43.828 -12.891   3.592  1.00  0.00     0.213 HD
ENDBRANCH   2  25
BRANCH   1  27
HETATM   27  C   UNL     1      40.763 -13.684   1.163  1.00  0.00     0.045 A 
HETATM   28  C   UNL     1      41.131 -12.540   0.432  1.00  0.00     0.066 A 
HETATM   29  C   UNL     1      40.935 -12.441  -0.953  1.00  0.00     0.070 A 
HETATM   30  C   UNL     1      40.323 -13.484  -1.636  1.00  0.00     0.037 A 
HETATM   31  C   UNL     1      39.928 -14.622  -0.936  1.00  0.00     0.005 A 
HETATM   32  C   UNL     1      40.149 -14.721   0.443  1.00  0.00     0.030 A 
BRANCH  29  33
HETATM   33  O   UNL     1      41.357 -11.265  -1.512  1.00  0.00    -0.356 OA
HETATM   34  C   UNL     1      41.269 -10.108  -0.690  1.00  0.00     0.210 C 
ENDBRANCH  29  33
ENDBRANCH   1  27
TORSDOF 6
ENDMDL
MODEL 4
REMARK VINA RESULT:      -8.7      2.541      6.810
REMARK  6 active torsions:
REMARK  status: ('A' for Active; 'I' for Inactive)
REMARK    1  A    between atoms: O_2  and  C_3 
REMARK    2  A    between atoms: C_5  and  N_6 
REMARK    3  A    between atoms: C_7  and  C_9 
REMARK    4  A    between atoms: C_7  and  O_8 
REMARK       I    between atoms: C_9  and  N_10 
REMARK    5  A    between atoms: N_10  and  C_11 
REMARK    6  A    between atoms: C_11  and  C_12 
ROOT
HETATM    1  N   UNL     1      41.899 -13.681   3.462  1.00  0.00    -0.254 N 
HETATM    2  C   UNL     1      42.164 -14.682   2.411  1.00  0.00     0.256 C 
HETATM    3  C   UNL     1      42.775 -15.986   2.886  1.00  0.00     0.034 A 
HETATM    4  C   UNL     1      43.205 -16.089   4.198  1.00  0.00     0.048 A 
HETATM    5  N   UNL     1      43.071 -14.995   5.031  1.00  0.00    -0.308 N 
HETATM    6  C   UNL     1      42.473 -13.815   4.719  1.00  0.00     0.330 C 
HETATM    7  O   UNL     1      42.517 -12.942   5.587  1.00  0.00    -0.246 OA
HETATM    8  C   UNL     1      42.972 -17.092   2.036  1.00  0.00     0.015 A 
HETATM    9  C   UNL     1      43.553 -18.269   2.514  1.00  0.00     0.001 A 
HETATM   10  C   UNL     1      43.962 -18.353   3.841  1.00  0.00     0.002 A 
HETATM   11  C   UNL     1      43.795 -17.258   4.685  1.00  0.00     0.030 A 
HETATM   12  H   UNL     1      43.429 -15.034   5.977  1.00  0.00     0.170 HD
ENDROOT
BRANCH   2  13
HETATM   13  C   UNL     1      40.817 -15.047   1.639  1.00  0.00     0.279 C 
HETATM   14  N   UNL     1      40.814 -14.608   0.322  1.00  0.00    -0.352 N 
HETATM   15  H   UNL     1      41.691 -14.234  -0.032  1.00  0.00     0.162 HD
HETATM   16  O   UNL     1      39.879 -15.669   2.133  1.00  0.00    -0.268 OA
BRANCH  14  17
HETATM   17  C   UNL     1      39.772 -14.957  -0.610  1.00  0.00     0.163 C 
BRANCH  17  18
HETATM   18  C   UNL     1      39.024 -13.733  -1.068  1.00  0.00    -0.019 A 
HETATM   19  C   UNL     1      38.336 -13.675  -2.290  1.00  0.00     0.042 A 
HETATM   20 CL   UNL     1      38.300 -15.020  -3.376  1.00  0.00    -0.084 Cl
HETATM   21  C   UNL     1      37.665 -12.510  -2.677  1.00  0.00     0.024 A 
HETATM   22  C   UNL     1      37.675 -11.387  -1.849  1.00  0.00     0.002 A 
HETATM   23  C   UNL     1      38.361 -11.426  -0.638  1.00  0.00     0.001 A 
HETATM   24  C   UNL     1      39.034 -12.587  -0.252  1.00  0.00     0.010 A 
ENDBRANCH  17  18
ENDBRANCH  14  17
ENDBRANCH   2  13
BRANCH   2  25
HETATM   25  O   UNL     1      43.152 -14.119   1.541  1.00  0.00    -0.359 OA
HETATM   26  H   UNL     1      42.723 -13.314   1.206  1.00  0.00     0.213 HD
ENDBRANCH   2  25
BRANCH   1  27
HETATM   27  C   UNL     1      41.077 -12.516   3.166  1.00  0.00     0.045 A 
HETATM   28  C   UNL     1      41.574 -11.465   2.375  1.00  0.00     0.066 A 
HETATM   29  C   UNL     1      40.806 -10.335   2.061  1.00  0.00     0.070 A 
HETATM   30  C   UNL     1      39.520 -10.216   2.572  1.00  0.00     0.037 A 
HETATM   31  C   UNL     1      39.006 -11.230   3.376  1.00  0.00     0.005 A 
HETATM   32  C   UNL     1      39.773 -12.365   3.665  1.00  0.00     0.030 A 
BRANCH  29  33
HETATM   33  O   UNL     1      41.437  -9.410   1.273  1.00  0.00    -0.356 OA
HETATM   34  C   UNL     1      41.699  -9.799  -0.069  1.00  0.00     0.210 C 
ENDBRANCH  29  33
ENDBRANCH   1  27
TORSDOF 6
ENDMDL
MODEL 5
REMARK VINA RESULT:      -8.2      3.105      7.479
REMARK  6 active torsions:
REMARK  status: ('A' for Active; 'I' for Inactive)
REMARK    1  A    between atoms: O_2  and  C_3 
REMARK    2  A    between atoms: C_5  and  N_6 
REMARK    3  A    between atoms: C_7  and  C_9 
REMARK    4  A    between atoms: C_7  and  O_8 
REMARK       I    between atoms: C_9  and  N_10 
REMARK    5  A    between atoms: N_10  and  C_11 
REMARK    6  A    between atoms: C_11  and  C_12 
ROOT
HETATM    1  N   UNL     1      41.909 -15.173   2.676  1.00  0.00    -0.254 N 
HETATM    2  C   UNL     1      41.304 -15.107   4.020  1.00  0.00     0.256 C 
HETATM    3  C   UNL     1      42.128 -15.713   5.141  1.00  0.00     0.034 A 
HETATM    4  C   UNL     1      43.269 -16.430   4.825  1.00  0.00     0.048 A 
HETATM    5  N   UNL     1      43.617 -16.579   3.495  1.00  0.00    -0.308 N 
HETATM    6  C   UNL     1      42.986 -16.015   2.432  1.00  0.00     0.330 C 
HETATM    7  O   UNL     1      43.418 -16.327   1.321  1.00  0.00    -0.246 OA
HETATM    8  C   UNL     1      41.758 -15.621   6.496  1.00  0.00     0.015 A 
HETATM    9  C   UNL     1      42.540 -16.208   7.495  1.00  0.00     0.001 A 
HETATM   10  C   UNL     1      43.691 -16.910   7.152  1.00  0.00     0.002 A 
HETATM   11  C   UNL     1      44.054 -17.030   5.813  1.00  0.00     0.030 A 
HETATM   12  H   UNL     1      44.416 -17.146   3.243  1.00  0.00     0.170 HD
ENDROOT
BRANCH   2  13
HETATM   13  C   UNL     1      41.006 -13.593   4.421  1.00  0.00     0.279 C 
HETATM   14  N   UNL     1      42.151 -12.889   4.762  1.00  0.00    -0.352 N 
HETATM   15  H   UNL     1      43.038 -13.360   4.596  1.00  0.00     0.162 HD
HETATM   16  O   UNL     1      39.889 -13.079   4.414  1.00  0.00    -0.268 OA
BRANCH  14  17
HETATM   17  C   UNL     1      42.146 -11.469   5.009  1.00  0.00     0.163 C 
BRANCH  17  18
HETATM   18  C   UNL     1      43.234 -11.084   5.976  1.00  0.00    -0.019 A 
HETATM   19  C   UNL     1      42.998 -10.291   7.109  1.00  0.00     0.042 A 
HETATM   20 CL   UNL     1      41.422  -9.685   7.481  1.00  0.00    -0.084 Cl
HETATM   21  C   UNL     1      44.045  -9.950   7.973  1.00  0.00     0.024 A 
HETATM   22  C   UNL     1      45.340 -10.396   7.714  1.00  0.00     0.002 A 
HETATM   23  C   UNL     1      45.592 -11.176   6.589  1.00  0.00     0.001 A 
HETATM   24  C   UNL     1      44.550 -11.514   5.724  1.00  0.00     0.010 A 
ENDBRANCH  17  18
ENDBRANCH  14  17
ENDBRANCH   2  13
BRANCH   2  25
HETATM   25  O   UNL     1      40.115 -15.903   3.979  1.00  0.00    -0.359 OA
HETATM   26  H   UNL     1      39.640 -15.636   4.784  1.00  0.00     0.213 HD
ENDBRANCH   2  25
BRANCH   1  27
HETATM   27  C   UNL     1      41.342 -14.394   1.584  1.00  0.00     0.045 A 
HETATM   28  C   UNL     1      40.488 -14.992   0.641  1.00  0.00     0.066 A 
HETATM   29  C   UNL     1      39.914 -14.270  -0.415  1.00  0.00     0.070 A 
HETATM   30  C   UNL     1      40.221 -12.924  -0.572  1.00  0.00     0.037 A 
HETATM   31  C   UNL     1      41.081 -12.308   0.334  1.00  0.00     0.005 A 
HETATM   32  C   UNL     1      41.630 -13.032   1.398  1.00  0.00     0.030 A 
BRANCH  29  33
HETATM   33  O   UNL     1      39.099 -15.000  -1.238  1.00  0.00    -0.356 OA
HETATM   34  C   UNL     1      39.091 -14.628  -2.610  1.00  0.00     0.210 C 
ENDBRANCH  29  33
ENDBRANCH   1  27
TORSDOF 6
ENDMDL
MODEL 6
REMARK VINA RESULT:      -8.0      2.422      5.804
REMARK  6 active torsions:
REMARK  status: ('A' for Active; 'I' for Inactive)
REMARK    1  A    between atoms: O_2  and  C_3 
REMARK    2  A    between atoms: C_5  and  N_6 
REMARK    3  A    between atoms: C_7  and  C_9 
REMARK    4  A    between atoms: C_7  and  O_8 
REMARK       I    between atoms: C_9  and  N_10 
REMARK    5  A    between atoms: N_10  and  C_11 
REMARK    6  A    between atoms: C_11  and  C_12 
ROOT
HETATM    1  N   UNL     1      41.365 -11.188   3.131  1.00  0.00    -0.254 N 
HETATM    2  C   UNL     1      42.186 -12.279   3.689  1.00  0.00     0.256 C 
HETATM    3  C   UNL     1      42.793 -12.011   5.053  1.00  0.00     0.034 A 
HETATM    4  C   UNL     1      42.699 -10.740   5.593  1.00  0.00     0.048 A 
HETATM    5  N   UNL     1      42.063  -9.752   4.866  1.00  0.00    -0.308 N 
HETATM    6  C   UNL     1      41.429  -9.912   3.675  1.00  0.00     0.330 C 
HETATM    7  O   UNL     1      40.980  -8.887   3.161  1.00  0.00    -0.246 OA
HETATM    8  C   UNL     1      43.495 -12.990   5.782  1.00  0.00     0.015 A 
HETATM    9  C   UNL     1      44.050 -12.694   7.030  1.00  0.00     0.001 A 
HETATM   10  C   UNL     1      43.929 -11.413   7.559  1.00  0.00     0.002 A 
HETATM   11  C   UNL     1      43.259 -10.429   6.835  1.00  0.00     0.030 A 
HETATM   12  H   UNL     1      42.034  -8.804   5.220  1.00  0.00     0.170 HD
ENDROOT
BRANCH   2  13
HETATM   13  C   UNL     1      41.326 -13.616   3.811  1.00  0.00     0.279 C 
HETATM   14  N   UNL     1      41.840 -14.659   3.055  1.00  0.00    -0.352 N 
HETATM   15  H   UNL     1      42.750 -14.502   2.627  1.00  0.00     0.162 HD
HETATM   16  O   UNL     1      40.324 -13.736   4.512  1.00  0.00    -0.268 OA
BRANCH  14  17
HETATM   17  C   UNL     1      41.322 -16.002   3.129  1.00  0.00     0.163 C 
BRANCH  17  18
HETATM   18  C   UNL     1      42.395 -16.974   3.544  1.00  0.00    -0.019 A 
HETATM   19  C   UNL     1      42.777 -17.159   4.882  1.00  0.00     0.042 A 
HETATM   20 CL   UNL     1      42.037 -16.272   6.168  1.00  0.00    -0.084 Cl
HETATM   21  C   UNL     1      43.789 -18.066   5.216  1.00  0.00     0.024 A 
HETATM   22  C   UNL     1      44.433 -18.796   4.218  1.00  0.00     0.002 A 
HETATM   23  C   UNL     1      44.073 -18.616   2.886  1.00  0.00     0.001 A 
HETATM   24  C   UNL     1      43.065 -17.710   2.550  1.00  0.00     0.010 A 
ENDBRANCH  17  18
ENDBRANCH  14  17
ENDBRANCH   2  13
BRANCH   2  25
HETATM   25  O   UNL     1      43.313 -12.436   2.821  1.00  0.00    -0.359 OA
HETATM   26  H   UNL     1      43.904 -13.021   3.325  1.00  0.00     0.213 HD
ENDBRANCH   2  25
BRANCH   1  27
HETATM   27  C   UNL     1      40.523 -11.433   1.968  1.00  0.00     0.045 A 
HETATM   28  C   UNL     1      41.090 -11.604   0.692  1.00  0.00     0.066 A 
HETATM   29  C   UNL     1      40.310 -11.854  -0.446  1.00  0.00     0.070 A 
HETATM   30  C   UNL     1      38.927 -11.900  -0.334  1.00  0.00     0.037 A 
HETATM   31  C   UNL     1      38.334 -11.713   0.912  1.00  0.00     0.005 A 
HETATM   32  C   UNL     1      39.122 -11.487   2.047  1.00  0.00     0.030 A 
BRANCH  29  33
HETATM   33  O   UNL     1      41.019 -12.005  -1.608  1.00  0.00    -0.356 OA
HETATM   34  C   UNL     1      40.506 -12.947  -2.541  1.00  0.00     0.210 C 
ENDBRANCH  29  33
ENDBRANCH   1  27
TORSDOF 6
ENDMDL
MODEL 7
REMARK VINA RESULT:      -7.9      3.243      6.315
REMARK  6 active torsions:
REMARK  status: ('A' for Active; 'I' for Inactive)
REMARK    1  A    between atoms: O_2  and  C_3 
REMARK    2  A    between atoms: C_5  and  N_6 
REMARK    3  A    between atoms: C_7  and  C_9 
REMARK    4  A    between atoms: C_7  and  O_8 
REMARK       I    between atoms: C_9  and  N_10 
REMARK    5  A    between atoms: N_10  and  C_11 
REMARK    6  A    between atoms: C_11  and  C_12 
ROOT
HETATM    1  N   UNL     1      41.091 -12.933   4.817  1.00  0.00    -0.254 N 
HETATM    2  C   UNL     1      42.164 -13.034   3.809  1.00  0.00     0.256 C 
HETATM    3  C   UNL     1      42.382 -14.414   3.219  1.00  0.00     0.034 A 
HETATM    4  C   UNL     1      41.717 -15.495   3.773  1.00  0.00     0.048 A 
HETATM    5  N   UNL     1      40.881 -15.282   4.851  1.00  0.00    -0.308 N 
HETATM    6  C   UNL     1      40.566 -14.079   5.400  1.00  0.00     0.330 C 
HETATM    7  O   UNL     1      39.850 -14.114   6.401  1.00  0.00    -0.246 OA
HETATM    8  C   UNL     1      43.275 -14.659   2.158  1.00  0.00     0.015 A 
HETATM    9  C   UNL     1      43.456 -15.950   1.656  1.00  0.00     0.001 A 
HETATM   10  C   UNL     1      42.764 -17.018   2.219  1.00  0.00     0.002 A 
HETATM   11  C   UNL     1      41.897 -16.792   3.286  1.00  0.00     0.030 A 
HETATM   12  H   UNL     1      40.429 -16.067   5.304  1.00  0.00     0.170 HD
ENDROOT
BRANCH   2  13
HETATM   13  C   UNL     1      41.878 -12.042   2.593  1.00  0.00     0.279 C 
HETATM   14  N   UNL     1      40.744 -12.386   1.872  1.00  0.00    -0.352 N 
HETATM   15  H   UNL     1      40.166 -13.126   2.263  1.00  0.00     0.162 HD
HETATM   16  O   UNL     1      42.565 -11.060   2.321  1.00  0.00    -0.268 OA
BRANCH  14  17
HETATM   17  C   UNL     1      40.204 -11.550   0.829  1.00  0.00     0.163 C 
BRANCH  17  18
HETATM   18  C   UNL     1      40.364 -12.200  -0.521  1.00  0.00    -0.019 A 
HETATM   19  C   UNL     1      41.061 -11.594  -1.577  1.00  0.00     0.042 A 
HETATM   20 CL   UNL     1      41.793 -10.037  -1.408  1.00  0.00    -0.084 Cl
HETATM   21  C   UNL     1      41.173 -12.233  -2.817  1.00  0.00     0.024 A 
HETATM   22  C   UNL     1      40.587 -13.483  -3.018  1.00  0.00     0.002 A 
HETATM   23  C   UNL     1      39.885 -14.092  -1.982  1.00  0.00     0.001 A 
HETATM   24  C   UNL     1      39.769 -13.455  -0.745  1.00  0.00     0.010 A 
ENDBRANCH  17  18
ENDBRANCH  14  17
ENDBRANCH   2  13
BRANCH   2  25
HETATM   25  O   UNL     1      43.392 -12.731   4.479  1.00  0.00    -0.359 OA
HETATM   26  H   UNL     1      43.765 -12.009   3.946  1.00  0.00     0.213 HD
ENDBRANCH   2  25
BRANCH   1  27
HETATM   27  C   UNL     1      40.616 -11.625   5.246  1.00  0.00     0.045 A 
HETATM   28  C   UNL     1      41.418 -10.796   6.051  1.00  0.00     0.066 A 
HETATM   29  C   UNL     1      40.998  -9.526   6.472  1.00  0.00     0.070 A 
HETATM   30  C   UNL     1      39.733  -9.071   6.121  1.00  0.00     0.037 A 
HETATM   31  C   UNL     1      38.907  -9.878   5.343  1.00  0.00     0.005 A 
HETATM   32  C   UNL     1      39.345 -11.135   4.908  1.00  0.00     0.030 A 
BRANCH  29  33
HETATM   33  O   UNL     1      41.903  -8.846   7.242  1.00  0.00    -0.356 OA
HETATM   34  C   UNL     1      41.628  -7.469   7.468  1.00  0.00     0.210 C 
ENDBRANCH  29  33
ENDBRANCH   1  27
TORSDOF 6
ENDMDL
MODEL 8
REMARK VINA RESULT:      -7.9      3.844      7.677
REMARK  6 active torsions:
REMARK  status: ('A' for Active; 'I' for Inactive)
REMARK    1  A    between atoms: O_2  and  C_3 
REMARK    2  A    between atoms: C_5  and  N_6 
REMARK    3  A    between atoms: C_7  and  C_9 
REMARK    4  A    between atoms: C_7  and  O_8 
REMARK       I    between atoms: C_9  and  N_10 
REMARK    5  A    between atoms: N_10  and  C_11 
REMARK    6  A    between atoms: C_11  and  C_12 
ROOT
HETATM    1  N   UNL     1      41.211 -13.222   4.640  1.00  0.00    -0.254 N 
HETATM    2  C   UNL     1      42.145 -13.711   5.672  1.00  0.00     0.256 C 
HETATM    3  C   UNL     1      42.846 -15.019   5.356  1.00  0.00     0.034 A 
HETATM    4  C   UNL     1      42.446 -15.745   4.247  1.00  0.00     0.048 A 
HETATM    5  N   UNL     1      41.414 -15.258   3.467  1.00  0.00    -0.308 N 
HETATM    6  C   UNL     1      40.779 -14.068   3.628  1.00  0.00     0.330 C 
HETATM    7  O   UNL     1      39.839 -13.851   2.862  1.00  0.00    -0.246 OA
HETATM    8  C   UNL     1      43.859 -15.560   6.171  1.00  0.00     0.015 A 
HETATM    9  C   UNL     1      44.467 -16.776   5.848  1.00  0.00     0.001 A 
HETATM   10  C   UNL     1      44.058 -17.479   4.719  1.00  0.00     0.002 A 
HETATM   11  C   UNL     1      43.039 -16.967   3.919  1.00  0.00     0.030 A 
HETATM   12  H   UNL     1      41.072 -15.801   2.685  1.00  0.00     0.170 HD
ENDROOT
BRANCH   2  13
HETATM   13  C   UNL     1      43.280 -12.627   5.955  1.00  0.00     0.279 C 
HETATM   14  N   UNL     1      43.280 -12.176   7.267  1.00  0.00    -0.352 N 
HETATM   15  H   UNL     1      42.666 -12.665   7.914  1.00  0.00     0.162 HD
HETATM   16  O   UNL     1      44.092 -12.236   5.119  1.00  0.00    -0.268 OA
BRANCH  14  17
HETATM   17  C   UNL     1      44.308 -11.313   7.791  1.00  0.00     0.163 C 
BRANCH  17  18
HETATM   18  C   UNL     1      43.798  -9.906   7.960  1.00  0.00    -0.019 A 
HETATM   19  C   UNL     1      44.343  -9.007   8.890  1.00  0.00     0.042 A 
HETATM   20 CL   UNL     1      45.652  -9.455   9.927  1.00  0.00    -0.084 Cl
HETATM   21  C   UNL     1      43.827  -7.712   9.018  1.00  0.00     0.024 A 
HETATM   22  C   UNL     1      42.759  -7.301   8.221  1.00  0.00     0.002 A 
HETATM   23  C   UNL     1      42.202  -8.184   7.301  1.00  0.00     0.001 A 
HETATM   24  C   UNL     1      42.713  -9.477   7.174  1.00  0.00     0.010 A 
ENDBRANCH  17  18
ENDBRANCH  14  17
ENDBRANCH   2  13
BRANCH   2  25
HETATM   25  O   UNL     1      41.364 -13.996   6.838  1.00  0.00    -0.359 OA
HETATM   26  H   UNL     1      42.009 -13.925   7.562  1.00  0.00     0.213 HD
ENDBRANCH   2  25
BRANCH   1  27
HETATM   27  C   UNL     1      40.696 -11.862   4.713  1.00  0.00     0.045 A 
HETATM   28  C   UNL     1      39.839 -11.472   5.757  1.00  0.00     0.066 A 
HETATM   29  C   UNL     1      39.333 -10.168   5.864  1.00  0.00     0.070 A 
HETATM   30  C   UNL     1      39.651  -9.227   4.893  1.00  0.00     0.037 A 
HETATM   31  C   UNL     1      40.481  -9.589   3.834  1.00  0.00     0.005 A 
HETATM   32  C   UNL     1      40.999 -10.887   3.749  1.00  0.00     0.030 A 
BRANCH  29  33
HETATM   33  O   UNL     1      38.521  -9.952   6.944  1.00  0.00    -0.356 OA
HETATM   34  C   UNL     1      39.079 -10.238   8.220  1.00  0.00     0.210 C 
ENDBRANCH  29  33
ENDBRANCH   1  27
TORSDOF 6
ENDMDL
MODEL 9
REMARK VINA RESULT:      -7.9      2.024      2.895
REMARK  6 active torsions:
REMARK  status: ('A' for Active; 'I' for Inactive)
REMARK    1  A    between atoms: O_2  and  C_3 
REMARK    2  A    between atoms: C_5  and  N_6 
REMARK    3  A    between atoms: C_7  and  C_9 
REMARK    4  A    between atoms: C_7  and  O_8 
REMARK       I    between atoms: C_9  and  N_10 
REMARK    5  A    between atoms: N_10  and  C_11 
REMARK    6  A    between atoms: C_11  and  C_12 
ROOT
HETATM    1  N   UNL     1      39.717 -12.231   2.470  1.00  0.00    -0.254 N 
HETATM    2  C   UNL     1      39.860 -13.562   1.851  1.00  0.00     0.256 C 
HETATM    3  C   UNL     1      39.598 -13.623   0.358  1.00  0.00     0.034 A 
HETATM    4  C   UNL     1      39.080 -12.508  -0.280  1.00  0.00     0.048 A 
HETATM    5  N   UNL     1      38.809 -11.378   0.467  1.00  0.00    -0.308 N 
HETATM    6  C   UNL     1      39.076 -11.205   1.788  1.00  0.00     0.330 C 
HETATM    7  O   UNL     1      38.695 -10.142   2.281  1.00  0.00    -0.246 OA
HETATM    8  C   UNL     1      39.813 -14.784  -0.409  1.00  0.00     0.015 A 
HETATM    9  C   UNL     1      39.544 -14.798  -1.780  1.00  0.00     0.001 A 
HETATM   10  C   UNL     1      39.038 -13.660  -2.401  1.00  0.00     0.002 A 
HETATM   11  C   UNL     1      38.797 -12.514  -1.648  1.00  0.00     0.030 A 
HETATM   12  H   UNL     1      38.379 -10.574   0.029  1.00  0.00     0.170 HD
ENDROOT
BRANCH   2  13
HETATM   13  C   UNL     1      41.329 -14.134   2.095  1.00  0.00     0.279 C 
HETATM   14  N   UNL     1      41.357 -15.174   3.012  1.00  0.00    -0.352 N 
HETATM   15  H   UNL     1      40.455 -15.533   3.318  1.00  0.00     0.162 HD
HETATM   16  O   UNL     1      42.337 -13.726   1.523  1.00  0.00    -0.268 OA
BRANCH  14  17
HETATM   17  C   UNL     1      42.545 -15.947   3.274  1.00  0.00     0.163 C 
BRANCH  17  18
HETATM   18  C   UNL     1      42.833 -16.010   4.751  1.00  0.00    -0.019 A 
HETATM   19  C   UNL     1      43.623 -17.016   5.329  1.00  0.00     0.042 A 
HETATM   20 CL   UNL     1      44.329 -18.275   4.377  1.00  0.00    -0.084 Cl
HETATM   21  C   UNL     1      43.853 -17.038   6.709  1.00  0.00     0.024 A 
HETATM   22  C   UNL     1      43.294 -16.059   7.529  1.00  0.00     0.002 A 
HETATM   23  C   UNL     1      42.501 -15.060   6.972  1.00  0.00     0.001 A 
HETATM   24  C   UNL     1      42.268 -15.037   5.596  1.00  0.00     0.010 A 
ENDBRANCH  17  18
ENDBRANCH  14  17
ENDBRANCH   2  13
BRANCH   2  25
HETATM   25  O   UNL     1      38.850 -14.397   2.426  1.00  0.00    -0.359 OA
HETATM   26  H   UNL     1      38.040 -13.868   2.328  1.00  0.00     0.213 HD
ENDBRANCH   2  25
BRANCH   1  27
HETATM   27  C   UNL     1      40.202 -12.003   3.824  1.00  0.00     0.045 A 
HETATM   28  C   UNL     1      41.499 -11.508   4.051  1.00  0.00     0.066 A 
HETATM   29  C   UNL     1      41.994 -11.266   5.341  1.00  0.00     0.070 A 
HETATM   30  C   UNL     1      41.202 -11.555   6.445  1.00  0.00     0.037 A 
HETATM   31  C   UNL     1      39.920 -12.066   6.254  1.00  0.00     0.005 A 
HETATM   32  C   UNL     1      39.427 -12.283   4.961  1.00  0.00     0.030 A 
BRANCH  29  33
HETATM   33  O   UNL     1      43.271 -10.777   5.385  1.00  0.00    -0.356 OA
HETATM   34  C   UNL     1      44.249 -11.497   4.646  1.00  0.00     0.210 C 
ENDBRANCH  29  33
ENDBRANCH   1  27
TORSDOF 6
ENDMDL
MODEL 10
REMARK VINA RESULT:      -7.8      2.502      6.102
REMARK  6 active torsions:
REMARK  status: ('A' for Active; 'I' for Inactive)
REMARK    1  A    between atoms: O_2  and  C_3 
REMARK    2  A    between atoms: C_5  and  N_6 
REMARK    3  A    between atoms: C_7  and  C_9 
REMARK    4  A    between atoms: C_7  and  O_8 
REMARK       I    between atoms: C_9  and  N_10 
REMARK    5  A    between atoms: N_10  and  C_11 
REMARK    6  A    between atoms: C_11  and  C_12 
ROOT
HETATM    1  N   UNL     1      41.929 -13.743   3.698  1.00  0.00    -0.254 N 
HETATM    2  C   UNL     1      40.488 -13.511   3.484  1.00  0.00     0.256 C 
HETATM    3  C   UNL     1      40.070 -12.059   3.351  1.00  0.00     0.034 A 
HETATM    4  C   UNL     1      40.998 -11.065   3.614  1.00  0.00     0.048 A 
HETATM    5  N   UNL     1      42.275 -11.429   3.997  1.00  0.00    -0.308 N 
HETATM    6  C   UNL     1      42.761 -12.696   4.072  1.00  0.00     0.330 C 
HETATM    7  O   UNL     1      43.911 -12.808   4.499  1.00  0.00    -0.246 OA
HETATM    8  C   UNL     1      38.758 -11.669   3.019  1.00  0.00     0.015 A 
HETATM    9  C   UNL     1      38.415 -10.318   2.922  1.00  0.00     0.001 A 
HETATM   10  C   UNL     1      39.370  -9.338   3.175  1.00  0.00     0.002 A 
HETATM   11  C   UNL     1      40.664  -9.711   3.530  1.00  0.00     0.030 A 
HETATM   12  H   UNL     1      42.950 -10.717   4.246  1.00  0.00     0.170 HD
ENDROOT
BRANCH   2  13
HETATM   13  C   UNL     1      39.992 -14.265   2.169  1.00  0.00     0.279 C 
HETATM   14  N   UNL     1      40.295 -13.575   1.005  1.00  0.00    -0.352 N 
HETATM   15  H   UNL     1      40.895 -12.760   1.105  1.00  0.00     0.162 HD
HETATM   16  O   UNL     1      39.421 -15.354   2.166  1.00  0.00    -0.268 OA
BRANCH  14  17
HETATM   17  C   UNL     1      40.083 -14.134  -0.307  1.00  0.00     0.163 C 
BRANCH  17  18
HETATM   18  C   UNL     1      39.041 -13.354  -1.065  1.00  0.00    -0.019 A 
HETATM   19  C   UNL     1      38.358 -13.877  -2.173  1.00  0.00     0.042 A 
HETATM   20 CL   UNL     1      38.668 -15.472  -2.761  1.00  0.00    -0.084 Cl
HETATM   21  C   UNL     1      37.406 -13.108  -2.852  1.00  0.00     0.024 A 
HETATM   22  C   UNL     1      37.127 -11.808  -2.434  1.00  0.00     0.002 A 
HETATM   23  C   UNL     1      37.802 -11.272  -1.341  1.00  0.00     0.001 A 
HETATM   24  C   UNL     1      38.755 -12.036  -0.664  1.00  0.00     0.010 A 
ENDBRANCH  17  18
ENDBRANCH  14  17
ENDBRANCH   2  13
BRANCH   2  25
HETATM   25  O   UNL     1      39.815 -13.971   4.661  1.00  0.00    -0.359 OA
HETATM   26  H   UNL     1      40.394 -14.681   4.986  1.00  0.00     0.213 HD
ENDBRANCH   2  25
BRANCH   1  27
HETATM   27  C   UNL     1      42.476 -15.087   3.569  1.00  0.00     0.045 A 
HETATM   28  C   UNL     1      42.561 -15.939   4.684  1.00  0.00     0.066 A 
HETATM   29  C   UNL     1      43.071 -17.242   4.595  1.00  0.00     0.070 A 
HETATM   30  C   UNL     1      43.547 -17.710   3.377  1.00  0.00     0.037 A 
HETATM   31  C   UNL     1      43.496 -16.882   2.258  1.00  0.00     0.005 A 
HETATM   32  C   UNL     1      42.965 -15.591   2.353  1.00  0.00     0.030 A 
BRANCH  29  33
HETATM   33  O   UNL     1      43.074 -17.942   5.771  1.00  0.00    -0.356 OA
HETATM   34  C   UNL     1      43.476 -17.224   6.931  1.00  0.00     0.210 C 
ENDBRANCH  29  33
ENDBRANCH   1  27
TORSDOF 6
ENDMDL
