MODEL 1
REMARK VINA RESULT:      -8.6      0.000      0.000
REMARK  3 active torsions:
REMARK  status: ('A' for Active; 'I' for Inactive)
REMARK    1  A    between atoms: C_6  and  C_7 
REMARK    2  A    between atoms: C_13  and  C_14 
REMARK    3  A    between atoms: C_14  and  C_15 
ROOT
HETATM    1  C   UNL     1      43.950 -20.141   6.001  1.00  0.00     0.070 C 
HETATM    2  C   UNL     1      43.613 -18.758   5.523  1.00  0.00     0.033 A 
HETATM    3  N   UNL     1      43.479 -17.808   6.464  1.00  0.00    -0.246 NA
HETATM    4  C   UNL     1      43.186 -16.578   6.000  1.00  0.00     0.112 A 
HETATM    5  C   UNL     1      43.003 -16.204   4.672  1.00  0.00     0.043 A 
HETATM    6  C   UNL     1      43.147 -17.229   3.698  1.00  0.00     0.065 A 
HETATM    7  C   UNL     1      43.465 -18.519   4.165  1.00  0.00     0.044 A 
HETATM    8  S   UNL     1      43.004 -15.287   7.091  1.00  0.00    -0.063 SA
HETATM    9  C   UNL     1      42.720 -14.165   5.833  1.00  0.00     0.085 A 
HETATM   10  C   UNL     1      42.702 -14.798   4.602  1.00  0.00     0.061 A 
HETATM   11  N   UNL     1      42.438 -14.132   3.451  1.00  0.00    -0.397 N 
HETATM   12  H   UNL     1      42.045 -13.186   3.521  1.00  0.00     0.156 HD
HETATM   13  H   UNL     1      42.061 -14.609   2.633  1.00  0.00     0.156 HD
ENDROOT
BRANCH   9  14
HETATM   14  C   UNL     1      42.437 -12.762   6.108  1.00  0.00     0.201 C 
HETATM   15  O   UNL     1      41.344 -12.246   5.861  1.00  0.00    -0.286 OA
BRANCH  14  16
HETATM   16  C   UNL     1      43.475 -11.861   6.677  1.00  0.00     0.018 A 
HETATM   17  C   UNL     1      43.055 -10.713   7.363  1.00  0.00     0.055 A 
HETATM   18  C   UNL     1      44.027  -9.866   7.848  1.00  0.00     0.106 A 
HETATM   19  C   UNL     1      45.367 -10.118   7.665  1.00  0.00     0.105 A 
HETATM   20  O   UNL     1      43.807  -8.715   8.536  1.00  0.00    -0.323 OA
HETATM   21  O   UNL     1      46.155  -9.157   8.216  1.00  0.00    -0.323 OA
HETATM   22  C   UNL     1      45.813 -11.230   6.982  1.00  0.00     0.040 A 
HETATM   23  C   UNL     1      45.160  -8.263   8.755  1.00  0.00     0.352 A 
HETATM   24  C   UNL     1      44.852 -12.109   6.472  1.00  0.00     0.018 A 
ENDBRANCH  14  16
ENDBRANCH   9  14
BRANCH   6  25
HETATM   25  C   UNL     1      43.033 -16.993   2.216  1.00  0.00     0.418 C 
HETATM   26  F   UNL     1      43.909 -16.061   1.743  1.00  0.00    -0.166 F 
HETATM   27  F   UNL     1      43.249 -18.121   1.487  1.00  0.00    -0.166 F 
HETATM   28  F   UNL     1      41.800 -16.546   1.841  1.00  0.00    -0.166 F 
ENDBRANCH   6  25
TORSDOF 3
ENDMDL
MODEL 2
REMARK VINA RESULT:      -8.2      4.889      7.476
REMARK  3 active torsions:
REMARK  status: ('A' for Active; 'I' for Inactive)
REMARK    1  A    between atoms: C_6  and  C_7 
REMARK    2  A    between atoms: C_13  and  C_14 
REMARK    3  A    between atoms: C_14  and  C_15 
ROOT
HETATM    1  C   UNL     1      44.356 -19.133   4.356  1.00  0.00     0.070 C 
HETATM    2  C   UNL     1      43.637 -17.819   4.251  1.00  0.00     0.033 A 
HETATM    3  N   UNL     1      43.641 -17.220   3.049  1.00  0.00    -0.246 NA
HETATM    4  C   UNL     1      42.980 -16.048   2.988  1.00  0.00     0.112 A 
HETATM    5  C   UNL     1      42.315 -15.407   4.029  1.00  0.00     0.043 A 
HETATM    6  C   UNL     1      42.328 -16.060   5.291  1.00  0.00     0.065 A 
HETATM    7  C   UNL     1      43.006 -17.293   5.369  1.00  0.00     0.044 A 
HETATM    8  S   UNL     1      42.903 -15.198   1.518  1.00  0.00    -0.063 SA
HETATM    9  C   UNL     1      41.937 -13.962   2.197  1.00  0.00     0.085 A 
HETATM   10  C   UNL     1      41.741 -14.176   3.550  1.00  0.00     0.061 A 
HETATM   11  N   UNL     1      41.055 -13.302   4.328  1.00  0.00    -0.397 N 
HETATM   12  H   UNL     1      40.857 -12.370   3.946  1.00  0.00     0.156 HD
HETATM   13  H   UNL     1      41.214 -13.244   5.333  1.00  0.00     0.156 HD
ENDROOT
BRANCH   9  14
HETATM   14  C   UNL     1      41.506 -12.811   1.414  1.00  0.00     0.201 C 
HETATM   15  O   UNL     1      41.615 -11.652   1.824  1.00  0.00    -0.286 OA
BRANCH  14  16
HETATM   16  C   UNL     1      40.874 -12.977   0.078  1.00  0.00     0.018 A 
HETATM   17  C   UNL     1      40.122 -14.136  -0.163  1.00  0.00     0.055 A 
HETATM   18  C   UNL     1      39.577 -14.296  -1.418  1.00  0.00     0.106 A 
HETATM   19  C   UNL     1      39.766 -13.366  -2.415  1.00  0.00     0.105 A 
HETATM   20  O   UNL     1      38.822 -15.348  -1.828  1.00  0.00    -0.323 OA
HETATM   21  O   UNL     1      39.150 -13.719  -3.575  1.00  0.00    -0.323 OA
HETATM   22  C   UNL     1      40.513 -12.225  -2.216  1.00  0.00     0.040 A 
HETATM   23  C   UNL     1      38.565 -14.984  -3.200  1.00  0.00     0.352 A 
HETATM   24  C   UNL     1      41.084 -12.033  -0.953  1.00  0.00     0.018 A 
ENDBRANCH  14  16
ENDBRANCH   9  14
BRANCH   6  25
HETATM   25  C   UNL     1      41.619 -15.535   6.510  1.00  0.00     0.418 C 
HETATM   26  F   UNL     1      42.000 -14.273   6.861  1.00  0.00    -0.166 F 
HETATM   27  F   UNL     1      40.268 -15.493   6.355  1.00  0.00    -0.166 F 
HETATM   28  F   UNL     1      41.836 -16.296   7.621  1.00  0.00    -0.166 F 
ENDBRANCH   6  25
TORSDOF 3
ENDMDL
MODEL 3
REMARK VINA RESULT:      -8.2      4.499      6.272
REMARK  3 active torsions:
REMARK  status: ('A' for Active; 'I' for Inactive)
REMARK    1  A    between atoms: C_6  and  C_7 
REMARK    2  A    between atoms: C_13  and  C_14 
REMARK    3  A    between atoms: C_14  and  C_15 
ROOT
HETATM    1  C   UNL     1      44.029 -20.939   3.162  1.00  0.00     0.070 C 
HETATM    2  C   UNL     1      43.793 -19.514   3.571  1.00  0.00     0.033 A 
HETATM    3  N   UNL     1      43.622 -18.620   2.582  1.00  0.00    -0.246 NA
HETATM    4  C   UNL     1      43.404 -17.353   2.983  1.00  0.00     0.112 A 
HETATM    5  C   UNL     1      43.347 -16.887   4.293  1.00  0.00     0.043 A 
HETATM    6  C   UNL     1      43.534 -17.852   5.320  1.00  0.00     0.065 A 
HETATM    7  C   UNL     1      43.752 -19.184   4.918  1.00  0.00     0.044 A 
HETATM    8  S   UNL     1      43.160 -16.132   1.826  1.00  0.00    -0.063 SA
HETATM    9  C   UNL     1      42.921 -14.938   3.026  1.00  0.00     0.085 A 
HETATM   10  C   UNL     1      43.096 -15.469   4.293  1.00  0.00     0.061 A 
HETATM   11  N   UNL     1      43.016 -14.709   5.412  1.00  0.00    -0.397 N 
HETATM   12  H   UNL     1      43.031 -13.688   5.303  1.00  0.00     0.156 HD
HETATM   13  H   UNL     1      43.490 -14.978   6.274  1.00  0.00     0.156 HD
ENDROOT
BRANCH   9  14
HETATM   14  C   UNL     1      42.676 -13.544   2.681  1.00  0.00     0.201 C 
HETATM   15  O   UNL     1      43.492 -12.649   2.919  1.00  0.00    -0.286 OA
BRANCH  14  16
HETATM   16  C   UNL     1      41.401 -13.117   2.045  1.00  0.00     0.018 A 
HETATM   17  C   UNL     1      41.309 -13.157   0.647  1.00  0.00     0.055 A 
HETATM   18  C   UNL     1      40.136 -12.719   0.070  1.00  0.00     0.106 A 
HETATM   19  C   UNL     1      39.087 -12.247   0.826  1.00  0.00     0.105 A 
HETATM   20  O   UNL     1      39.870 -12.688  -1.262  1.00  0.00    -0.323 OA
HETATM   21  O   UNL     1      38.031 -11.861   0.062  1.00  0.00    -0.323 OA
HETATM   22  C   UNL     1      39.152 -12.180   2.201  1.00  0.00     0.040 A 
HETATM   23  C   UNL     1      38.538 -12.131  -1.262  1.00  0.00     0.352 A 
HETATM   24  C   UNL     1      40.330 -12.613   2.819  1.00  0.00     0.018 A 
ENDBRANCH  14  16
ENDBRANCH   9  14
BRANCH   6  25
HETATM   25  C   UNL     1      43.455 -17.534   6.789  1.00  0.00     0.418 C 
HETATM   26  F   UNL     1      44.491 -16.767   7.237  1.00  0.00    -0.166 F 
HETATM   27  F   UNL     1      42.318 -16.865   7.121  1.00  0.00    -0.166 F 
HETATM   28  F   UNL     1      43.469 -18.647   7.577  1.00  0.00    -0.166 F 
ENDBRANCH   6  25
TORSDOF 3
ENDMDL
MODEL 4
REMARK VINA RESULT:      -8.0      5.124      7.996
REMARK  3 active torsions:
REMARK  status: ('A' for Active; 'I' for Inactive)
REMARK    1  A    between atoms: C_6  and  C_7 
REMARK    2  A    between atoms: C_13  and  C_14 
REMARK    3  A    between atoms: C_14  and  C_15 
ROOT
HETATM    1  C   UNL     1      42.038  -8.759  -1.573  1.00  0.00     0.070 C 
HETATM    2  C   UNL     1      41.578 -10.070  -1.003  1.00  0.00     0.033 A 
HETATM    3  N   UNL     1      41.906 -10.324   0.275  1.00  0.00    -0.246 NA
HETATM    4  C   UNL     1      41.471 -11.504   0.757  1.00  0.00     0.112 A 
HETATM    5  C   UNL     1      40.737 -12.469   0.073  1.00  0.00     0.043 A 
HETATM    6  C   UNL     1      40.407 -12.177  -1.278  1.00  0.00     0.065 A 
HETATM    7  C   UNL     1      40.845 -10.942  -1.795  1.00  0.00     0.044 A 
HETATM    8  S   UNL     1      41.811 -11.935   2.365  1.00  0.00    -0.063 SA
HETATM    9  C   UNL     1      40.952 -13.407   2.231  1.00  0.00     0.085 A 
HETATM   10  C   UNL     1      40.474 -13.585   0.944  1.00  0.00     0.061 A 
HETATM   11  N   UNL     1      39.808 -14.704   0.568  1.00  0.00    -0.397 N 
HETATM   12  H   UNL     1      39.841 -15.517   1.194  1.00  0.00     0.156 HD
HETATM   13  H   UNL     1      39.785 -15.010  -0.404  1.00  0.00     0.156 HD
ENDROOT
BRANCH   9  14
HETATM   14  C   UNL     1      40.871 -14.350   3.339  1.00  0.00     0.201 C 
HETATM   15  O   UNL     1      39.993 -14.281   4.204  1.00  0.00    -0.286 OA
BRANCH  14  16
HETATM   16  C   UNL     1      41.872 -15.437   3.505  1.00  0.00     0.018 A 
HETATM   17  C   UNL     1      41.802 -16.542   2.645  1.00  0.00     0.055 A 
HETATM   18  C   UNL     1      42.710 -17.561   2.837  1.00  0.00     0.106 A 
HETATM   19  C   UNL     1      43.650 -17.516   3.841  1.00  0.00     0.105 A 
HETATM   20  O   UNL     1      42.791 -18.701   2.102  1.00  0.00    -0.323 OA
HETATM   21  O   UNL     1      44.441 -18.622   3.859  1.00  0.00    -0.323 OA
HETATM   22  C   UNL     1      43.735 -16.452   4.713  1.00  0.00     0.040 A 
HETATM   23  C   UNL     1      43.883 -19.375   2.763  1.00  0.00     0.352 A 
HETATM   24  C   UNL     1      42.825 -15.401   4.549  1.00  0.00     0.018 A 
ENDBRANCH  14  16
ENDBRANCH   9  14
BRANCH   6  25
HETATM   25  C   UNL     1      39.579 -13.083  -2.149  1.00  0.00     0.418 C 
HETATM   26  F   UNL     1      39.304 -12.557  -3.377  1.00  0.00    -0.166 F 
HETATM   27  F   UNL     1      40.177 -14.284  -2.377  1.00  0.00    -0.166 F 
HETATM   28  F   UNL     1      38.362 -13.378  -1.607  1.00  0.00    -0.166 F 
ENDBRANCH   6  25
TORSDOF 3
ENDMDL
MODEL 5
REMARK VINA RESULT:      -8.0      3.322      4.181
REMARK  3 active torsions:
REMARK  status: ('A' for Active; 'I' for Inactive)
REMARK    1  A    between atoms: C_6  and  C_7 
REMARK    2  A    between atoms: C_13  and  C_14 
REMARK    3  A    between atoms: C_14  and  C_15 
ROOT
HETATM    1  C   UNL     1      43.640 -19.743   2.089  1.00  0.00     0.070 C 
HETATM    2  C   UNL     1      43.506 -18.495   2.913  1.00  0.00     0.033 A 
HETATM    3  N   UNL     1      43.328 -17.343   2.244  1.00  0.00    -0.246 NA
HETATM    4  C   UNL     1      43.203 -16.245   3.015  1.00  0.00     0.112 A 
HETATM    5  C   UNL     1      43.246 -16.187   4.404  1.00  0.00     0.043 A 
HETATM    6  C   UNL     1      43.438 -17.418   5.087  1.00  0.00     0.065 A 
HETATM    7  C   UNL     1      43.560 -18.579   4.297  1.00  0.00     0.044 A 
HETATM    8  S   UNL     1      42.961 -14.728   2.286  1.00  0.00    -0.063 SA
HETATM    9  C   UNL     1      42.856 -13.936   3.797  1.00  0.00     0.085 A 
HETATM   10  C   UNL     1      43.073 -14.824   4.837  1.00  0.00     0.061 A 
HETATM   11  N   UNL     1      43.099 -14.428   6.133  1.00  0.00    -0.397 N 
HETATM   12  H   UNL     1      43.163 -13.422   6.328  1.00  0.00     0.156 HD
HETATM   13  H   UNL     1      43.606 -14.956   6.843  1.00  0.00     0.156 HD
ENDROOT
BRANCH   9  14
HETATM   14  C   UNL     1      42.669 -12.494   3.895  1.00  0.00     0.201 C 
HETATM   15  O   UNL     1      43.419 -11.690   3.336  1.00  0.00    -0.286 OA
BRANCH  14  16
HETATM   16  C   UNL     1      41.568 -11.911   4.708  1.00  0.00     0.018 A 
HETATM   17  C   UNL     1      41.899 -10.983   5.706  1.00  0.00     0.055 A 
HETATM   18  C   UNL     1      40.874 -10.483   6.479  1.00  0.00     0.106 A 
HETATM   19  C   UNL     1      39.568 -10.877   6.297  1.00  0.00     0.105 A 
HETATM   20  O   UNL     1      41.007  -9.579   7.485  1.00  0.00    -0.323 OA
HETATM   21  O   UNL     1      38.718 -10.269   7.166  1.00  0.00    -0.323 OA
HETATM   22  C   UNL     1      39.212 -11.799   5.336  1.00  0.00     0.040 A 
HETATM   23  C   UNL     1      39.638  -9.457   7.926  1.00  0.00     0.352 A 
HETATM   24  C   UNL     1      40.229 -12.331   4.535  1.00  0.00     0.018 A 
ENDBRANCH  14  16
ENDBRANCH   9  14
BRANCH   6  25
HETATM   25  C   UNL     1      43.461 -17.547   6.586  1.00  0.00     0.418 C 
HETATM   26  F   UNL     1      43.485 -18.839   7.022  1.00  0.00    -0.166 F 
HETATM   27  F   UNL     1      44.538 -16.936   7.150  1.00  0.00    -0.166 F 
HETATM   28  F   UNL     1      42.369 -16.989   7.185  1.00  0.00    -0.166 F 
ENDBRANCH   6  25
TORSDOF 3
ENDMDL
MODEL 6
REMARK VINA RESULT:      -8.0      2.519      2.960
REMARK  3 active torsions:
REMARK  status: ('A' for Active; 'I' for Inactive)
REMARK    1  A    between atoms: C_6  and  C_7 
REMARK    2  A    between atoms: C_13  and  C_14 
REMARK    3  A    between atoms: C_14  and  C_15 
ROOT
HETATM    1  C   UNL     1      43.413 -18.940   2.132  1.00  0.00     0.070 C 
HETATM    2  C   UNL     1      43.352 -17.797   3.104  1.00  0.00     0.033 A 
HETATM    3  N   UNL     1      43.250 -16.562   2.583  1.00  0.00    -0.246 NA
HETATM    4  C   UNL     1      43.189 -15.562   3.483  1.00  0.00     0.112 A 
HETATM    5  C   UNL     1      43.228 -15.679   4.870  1.00  0.00     0.043 A 
HETATM    6  C   UNL     1      43.340 -16.995   5.394  1.00  0.00     0.065 A 
HETATM    7  C   UNL     1      43.393 -18.054   4.467  1.00  0.00     0.044 A 
HETATM    8  S   UNL     1      43.046 -13.955   2.949  1.00  0.00    -0.063 SA
HETATM    9  C   UNL     1      42.982 -13.351   4.547  1.00  0.00     0.085 A 
HETATM   10  C   UNL     1      43.138 -14.372   5.468  1.00  0.00     0.061 A 
HETATM   11  N   UNL     1      43.181 -14.141   6.803  1.00  0.00    -0.397 N 
HETATM   12  H   UNL     1      43.307 -13.173   7.120  1.00  0.00     0.156 HD
HETATM   13  H   UNL     1      43.650 -14.784   7.441  1.00  0.00     0.156 HD
ENDROOT
BRANCH   9  14
HETATM   14  C   UNL     1      42.884 -11.923   4.822  1.00  0.00     0.201 C 
HETATM   15  O   UNL     1      42.174 -11.167   4.153  1.00  0.00    -0.286 OA
BRANCH  14  16
HETATM   16  C   UNL     1      43.669 -11.290   5.915  1.00  0.00     0.018 A 
HETATM   17  C   UNL     1      42.985 -10.516   6.863  1.00  0.00     0.055 A 
HETATM   18  C   UNL     1      43.730  -9.902   7.846  1.00  0.00     0.106 A 
HETATM   19  C   UNL     1      45.099 -10.025   7.903  1.00  0.00     0.105 A 
HETATM   20  O   UNL     1      43.239  -9.121   8.843  1.00  0.00    -0.323 OA
HETATM   21  O   UNL     1      45.639  -9.337   8.944  1.00  0.00    -0.323 OA
HETATM   22  C   UNL     1      45.803 -10.766   6.977  1.00  0.00     0.040 A 
HETATM   23  C   UNL     1      44.455  -8.755   9.529  1.00  0.00     0.352 A 
HETATM   24  C   UNL     1      45.078 -11.400   5.963  1.00  0.00     0.018 A 
ENDBRANCH  14  16
ENDBRANCH   9  14
BRANCH   6  25
HETATM   25  C   UNL     1      43.346 -17.309   6.866  1.00  0.00     0.418 C 
HETATM   26  F   UNL     1      44.450 -16.844   7.518  1.00  0.00    -0.166 F 
HETATM   27  F   UNL     1      42.272 -16.787   7.519  1.00  0.00    -0.166 F 
HETATM   28  F   UNL     1      43.316 -18.648   7.125  1.00  0.00    -0.166 F 
ENDBRANCH   6  25
TORSDOF 3
ENDMDL
MODEL 7
REMARK VINA RESULT:      -7.9      1.828      3.186
REMARK  3 active torsions:
REMARK  status: ('A' for Active; 'I' for Inactive)
REMARK    1  A    between atoms: C_6  and  C_7 
REMARK    2  A    between atoms: C_13  and  C_14 
REMARK    3  A    between atoms: C_14  and  C_15 
ROOT
HETATM    1  C   UNL     1      40.575 -14.191   0.083  1.00  0.00     0.070 C 
HETATM    2  C   UNL     1      41.295 -14.545   1.352  1.00  0.00     0.033 A 
HETATM    3  N   UNL     1      41.391 -13.582   2.284  1.00  0.00    -0.246 NA
HETATM    4  C   UNL     1      42.035 -13.936   3.413  1.00  0.00     0.112 A 
HETATM    5  C   UNL     1      42.605 -15.173   3.699  1.00  0.00     0.043 A 
HETATM    6  C   UNL     1      42.494 -16.172   2.696  1.00  0.00     0.065 A 
HETATM    7  C   UNL     1      41.813 -15.822   1.513  1.00  0.00     0.044 A 
HETATM    8  S   UNL     1      42.209 -12.808   4.673  1.00  0.00    -0.063 SA
HETATM    9  C   UNL     1      43.013 -13.938   5.673  1.00  0.00     0.085 A 
HETATM   10  C   UNL     1      43.198 -15.140   5.011  1.00  0.00     0.061 A 
HETATM   11  N   UNL     1      43.863 -16.179   5.573  1.00  0.00    -0.397 N 
HETATM   12  H   UNL     1      44.414 -15.997   6.420  1.00  0.00     0.156 HD
HETATM   13  H   UNL     1      44.320 -16.890   5.003  1.00  0.00     0.156 HD
ENDROOT
BRANCH   9  14
HETATM   14  C   UNL     1      43.504 -13.576   6.996  1.00  0.00     0.201 C 
HETATM   15  O   UNL     1      43.364 -14.309   7.979  1.00  0.00    -0.286 OA
BRANCH  14  16
HETATM   16  C   UNL     1      44.178 -12.273   7.241  1.00  0.00     0.018 A 
HETATM   17  C   UNL     1      43.527 -11.328   8.046  1.00  0.00     0.055 A 
HETATM   18  C   UNL     1      44.145 -10.110   8.230  1.00  0.00     0.106 A 
HETATM   19  C   UNL     1      45.352  -9.812   7.642  1.00  0.00     0.105 A 
HETATM   20  O   UNL     1      43.664  -9.080   8.976  1.00  0.00    -0.323 OA
HETATM   21  O   UNL     1      45.781  -8.558   7.946  1.00  0.00    -0.323 OA
HETATM   22  C   UNL     1      46.010 -10.713   6.832  1.00  0.00     0.040 A 
HETATM   23  C   UNL     1      44.700  -8.094   8.782  1.00  0.00     0.352 A 
HETATM   24  C   UNL     1      45.409 -11.958   6.621  1.00  0.00     0.018 A 
ENDBRANCH  14  16
ENDBRANCH   9  14
BRANCH   6  25
HETATM   25  C   UNL     1      43.008 -17.577   2.856  1.00  0.00     0.418 C 
HETATM   26  F   UNL     1      42.676 -18.146   4.050  1.00  0.00    -0.166 F 
HETATM   27  F   UNL     1      42.545 -18.420   1.893  1.00  0.00    -0.166 F 
HETATM   28  F   UNL     1      44.369 -17.658   2.789  1.00  0.00    -0.166 F 
ENDBRANCH   6  25
TORSDOF 3
ENDMDL
MODEL 8
REMARK VINA RESULT:      -7.9      2.675      4.097
REMARK  3 active torsions:
REMARK  status: ('A' for Active; 'I' for Inactive)
REMARK    1  A    between atoms: C_6  and  C_7 
REMARK    2  A    between atoms: C_13  and  C_14 
REMARK    3  A    between atoms: C_14  and  C_15 
ROOT
HETATM    1  C   UNL     1      40.723 -11.720  -0.602  1.00  0.00     0.070 C 
HETATM    2  C   UNL     1      41.114 -12.443   0.655  1.00  0.00     0.033 A 
HETATM    3  N   UNL     1      41.816 -11.744   1.562  1.00  0.00    -0.246 NA
HETATM    4  C   UNL     1      42.143 -12.419   2.681  1.00  0.00     0.112 A 
HETATM    5  C   UNL     1      41.837 -13.743   2.979  1.00  0.00     0.043 A 
HETATM    6  C   UNL     1      41.097 -14.461   2.001  1.00  0.00     0.065 A 
HETATM    7  C   UNL     1      40.737 -13.767   0.830  1.00  0.00     0.044 A 
HETATM    8  S   UNL     1      43.020 -11.639   3.910  1.00  0.00    -0.063 SA
HETATM    9  C   UNL     1      42.989 -13.023   4.913  1.00  0.00     0.085 A 
HETATM   10  C   UNL     1      42.369 -14.083   4.274  1.00  0.00     0.061 A 
HETATM   11  N   UNL     1      42.269 -15.311   4.840  1.00  0.00    -0.397 N 
HETATM   12  H   UNL     1      42.844 -15.507   5.668  1.00  0.00     0.156 HD
HETATM   13  H   UNL     1      42.169 -16.152   4.274  1.00  0.00     0.156 HD
ENDROOT
BRANCH   9  14
HETATM   14  C   UNL     1      43.645 -13.040   6.214  1.00  0.00     0.201 C 
HETATM   15  O   UNL     1      43.749 -14.068   6.890  1.00  0.00    -0.286 OA
BRANCH  14  16
HETATM   16  C   UNL     1      44.200 -11.799   6.817  1.00  0.00     0.018 A 
HETATM   17  C   UNL     1      43.306 -10.872   7.373  1.00  0.00     0.055 A 
HETATM   18  C   UNL     1      43.831  -9.708   7.890  1.00  0.00     0.106 A 
HETATM   19  C   UNL     1      45.181  -9.444   7.860  1.00  0.00     0.105 A 
HETATM   20  O   UNL     1      43.120  -8.704   8.467  1.00  0.00    -0.323 OA
HETATM   21  O   UNL     1      45.486  -8.241   8.415  1.00  0.00    -0.323 OA
HETATM   22  C   UNL     1      46.084 -10.327   7.307  1.00  0.00     0.040 A 
HETATM   23  C   UNL     1      44.173  -7.771   8.786  1.00  0.00     0.352 A 
HETATM   24  C   UNL     1      45.584 -11.518   6.769  1.00  0.00     0.018 A 
ENDBRANCH  14  16
ENDBRANCH   9  14
BRANCH   6  25
HETATM   25  C   UNL     1      40.639 -15.884   2.179  1.00  0.00     0.418 C 
HETATM   26  F   UNL     1      39.841 -16.330   1.167  1.00  0.00    -0.166 F 
HETATM   27  F   UNL     1      41.675 -16.762   2.261  1.00  0.00    -0.166 F 
HETATM   28  F   UNL     1      39.910 -16.071   3.317  1.00  0.00    -0.166 F 
ENDBRANCH   6  25
TORSDOF 3
ENDMDL
MODEL 9
REMARK VINA RESULT:      -7.9      5.761      8.117
REMARK  3 active torsions:
REMARK  status: ('A' for Active; 'I' for Inactive)
REMARK    1  A    between atoms: C_6  and  C_7 
REMARK    2  A    between atoms: C_13  and  C_14 
REMARK    3  A    between atoms: C_14  and  C_15 
ROOT
HETATM    1  C   UNL     1      41.740  -8.531  -0.369  1.00  0.00     0.070 C 
HETATM    2  C   UNL     1      41.201  -9.930  -0.444  1.00  0.00     0.033 A 
HETATM    3  N   UNL     1      41.558 -10.771   0.541  1.00  0.00    -0.246 NA
HETATM    4  C   UNL     1      41.049 -12.015   0.448  1.00  0.00     0.112 A 
HETATM    5  C   UNL     1      40.215 -12.506  -0.551  1.00  0.00     0.043 A 
HETATM    6  C   UNL     1      39.855 -11.597  -1.583  1.00  0.00     0.065 A 
HETATM    7  C   UNL     1      40.369 -10.289  -1.495  1.00  0.00     0.044 A 
HETATM    8  S   UNL     1      41.417 -13.168   1.642  1.00  0.00    -0.063 SA
HETATM    9  C   UNL     1      40.440 -14.358   0.899  1.00  0.00     0.085 A 
HETATM   10  C   UNL     1      39.898 -13.885  -0.283  1.00  0.00     0.061 A 
HETATM   11  N   UNL     1      39.131 -14.661  -1.088  1.00  0.00    -0.397 N 
HETATM   12  H   UNL     1      39.124 -15.673  -0.917  1.00  0.00     0.156 HD
HETATM   13  H   UNL     1      39.045 -14.472  -2.086  1.00  0.00     0.156 HD
ENDROOT
BRANCH   9  14
HETATM   14  C   UNL     1      40.328 -15.705   1.444  1.00  0.00     0.201 C 
HETATM   15  O   UNL     1      39.431 -16.483   1.107  1.00  0.00    -0.286 OA
BRANCH  14  16
HETATM   16  C   UNL     1      41.280 -16.206   2.470  1.00  0.00     0.018 A 
HETATM   17  C   UNL     1      40.923 -16.093   3.821  1.00  0.00     0.055 A 
HETATM   18  C   UNL     1      41.833 -16.523   4.762  1.00  0.00     0.106 A 
HETATM   19  C   UNL     1      43.058 -17.038   4.405  1.00  0.00     0.105 A 
HETATM   20  O   UNL     1      41.657 -16.492   6.109  1.00  0.00    -0.323 OA
HETATM   21  O   UNL     1      43.804 -17.395   5.484  1.00  0.00    -0.323 OA
HETATM   22  C   UNL     1      43.446 -17.147   3.087  1.00  0.00     0.040 A 
HETATM   23  C   UNL     1      42.915 -17.035   6.562  1.00  0.00     0.352 A 
HETATM   24  C   UNL     1      42.548 -16.716   2.105  1.00  0.00     0.018 A 
ENDBRANCH  14  16
ENDBRANCH   9  14
BRANCH   6  25
HETATM   25  C   UNL     1      38.924 -11.944  -2.713  1.00  0.00     0.418 C 
HETATM   26  F   UNL     1      37.682 -12.326  -2.299  1.00  0.00    -0.166 F 
HETATM   27  F   UNL     1      38.734 -10.907  -3.574  1.00  0.00    -0.166 F 
HETATM   28  F   UNL     1      39.378 -12.977  -3.481  1.00  0.00    -0.166 F 
ENDBRANCH   6  25
TORSDOF 3
ENDMDL
MODEL 10
REMARK VINA RESULT:      -7.8      5.217      7.795
REMARK  3 active torsions:
REMARK  status: ('A' for Active; 'I' for Inactive)
REMARK    1  A    between atoms: C_6  and  C_7 
REMARK    2  A    between atoms: C_13  and  C_14 
REMARK    3  A    between atoms: C_14  and  C_15 
ROOT
HETATM    1  C   UNL     1      38.231 -14.597  -3.682  1.00  0.00     0.070 C 
HETATM    2  C   UNL     1      39.003 -14.052  -2.515  1.00  0.00     0.033 A 
HETATM    3  N   UNL     1      39.209 -14.886  -1.482  1.00  0.00    -0.246 NA
HETATM    4  C   UNL     1      39.912 -14.368  -0.456  1.00  0.00     0.112 A 
HETATM    5  C   UNL     1      40.428 -13.079  -0.360  1.00  0.00     0.043 A 
HETATM    6  C   UNL     1      40.192 -12.216  -1.464  1.00  0.00     0.065 A 
HETATM    7  C   UNL     1      39.468 -12.745  -2.551  1.00  0.00     0.044 A 
HETATM    8  S   UNL     1      40.250 -15.330   0.904  1.00  0.00    -0.063 SA
HETATM    9  C   UNL     1      41.140 -14.080   1.659  1.00  0.00     0.085 A 
HETATM   10  C   UNL     1      41.113 -12.925   0.897  1.00  0.00     0.061 A 
HETATM   11  N   UNL     1      41.698 -11.773   1.309  1.00  0.00    -0.397 N 
HETATM   12  H   UNL     1      41.987 -11.705   2.292  1.00  0.00     0.156 HD
HETATM   13  H   UNL     1      41.384 -10.865   0.970  1.00  0.00     0.156 HD
ENDROOT
BRANCH   9  14
HETATM   14  C   UNL     1      41.729 -14.251   2.981  1.00  0.00     0.201 C 
HETATM   15  O   UNL     1      41.792 -13.332   3.802  1.00  0.00    -0.286 OA
BRANCH  14  16
HETATM   16  C   UNL     1      42.322 -15.549   3.401  1.00  0.00     0.018 A 
HETATM   17  C   UNL     1      42.221 -15.920   4.750  1.00  0.00     0.055 A 
HETATM   18  C   UNL     1      42.811 -17.105   5.133  1.00  0.00     0.106 A 
HETATM   19  C   UNL     1      43.488 -17.901   4.238  1.00  0.00     0.105 A 
HETATM   20  O   UNL     1      42.812 -17.621   6.389  1.00  0.00    -0.323 OA
HETATM   21  O   UNL     1      43.998 -19.018   4.822  1.00  0.00    -0.323 OA
HETATM   22  C   UNL     1      43.619 -17.557   2.910  1.00  0.00     0.040 A 
HETATM   23  C   UNL     1      43.577 -18.829   6.189  1.00  0.00     0.352 A 
HETATM   24  C   UNL     1      43.035 -16.358   2.487  1.00  0.00     0.018 A 
ENDBRANCH  14  16
ENDBRANCH   9  14
BRANCH   6  25
HETATM   25  C   UNL     1      40.719 -10.809  -1.551  1.00  0.00     0.418 C 
HETATM   26  F   UNL     1      40.249  -9.990  -0.566  1.00  0.00    -0.166 F 
HETATM   27  F   UNL     1      42.076 -10.750  -1.477  1.00  0.00    -0.166 F 
HETATM   28  F   UNL     1      40.389 -10.187  -2.719  1.00  0.00    -0.166 F 
ENDBRANCH   6  25
TORSDOF 3
ENDMDL
