MODEL 1
REMARK VINA RESULT:      -9.1      0.000      0.000
REMARK  10 active torsions:
REMARK  status: ('A' for Active; 'I' for Inactive)
REMARK    1  A    between atoms: C_6  and  C_7 
REMARK    2  A    between atoms: C_7  and  O_8 
REMARK    3  A    between atoms: O_8  and  C_9 
REMARK    4  A    between atoms: C_12  and  C_13 
REMARK    5  A    between atoms: N_14  and  N_15 
REMARK       I    between atoms: N_15  and  C_16 
REMARK    6  A    between atoms: C_16  and  C_17 
REMARK    7  A    between atoms: N_20  and  C_21 
REMARK    8  A    between atoms: C_25  and  N_26 
REMARK    9  A    between atoms: C_27  and  C_28 
REMARK   10  A    between atoms: C_28  and  N_29 
ROOT
HETATM    1  C   UNL     1      40.689 -10.213   6.570  1.00  0.00     0.170 C 
HETATM    2  N   UNL     1      40.613  -9.065   7.299  1.00  0.00    -0.152 NA
HETATM    3  N   UNL     1      41.695  -8.986   8.054  1.00  0.00     0.012 NA
HETATM    4  N   UNL     1      42.472 -10.081   7.842  1.00  0.00    -0.215 N 
HETATM    5  C   UNL     1      41.921 -10.819   6.797  1.00  0.00     0.096 C 
ENDROOT
BRANCH   1   6
HETATM    6  C   UNL     1      39.679 -10.615   5.601  1.00  0.00     0.293 C 
HETATM    7  N   UNL     1      39.740 -10.019   4.352  1.00  0.00    -0.242 N 
HETATM    8  H   UNL     1      39.007 -10.277   3.701  1.00  0.00     0.192 HD
HETATM    9  O   UNL     1      38.731 -11.331   5.911  1.00  0.00    -0.264 OA
BRANCH   7  10
HETATM   10  N   UNL     1      40.813  -9.285   3.948  1.00  0.00    -0.184 NA
HETATM   11  C   UNL     1      41.738  -9.833   3.215  1.00  0.00     0.150 C 
BRANCH  11  12
HETATM   12  C   UNL     1      41.812 -11.193   2.655  1.00  0.00    -0.017 A 
HETATM   13  C   UNL     1      42.931 -11.954   3.002  1.00  0.00     0.016 A 
HETATM   14  C   UNL     1      43.049 -13.258   2.525  1.00  0.00     0.037 A 
HETATM   15  C   UNL     1      42.048 -13.815   1.727  1.00  0.00     0.069 A 
HETATM   16  C   UNL     1      40.932 -13.050   1.383  1.00  0.00     0.037 A 
HETATM   17  C   UNL     1      40.803 -11.739   1.860  1.00  0.00     0.016 A 
BRANCH  15  18
HETATM   18  O   UNL     1      42.283 -15.101   1.337  1.00  0.00    -0.347 OA
BRANCH  18  19
HETATM   19  C   UNL     1      41.534 -16.125   1.993  1.00  0.00     0.214 C 
BRANCH  19  20
HETATM   20  C   UNL     1      42.511 -17.050   2.677  1.00  0.00    -0.033 A 
HETATM   21  C   UNL     1      42.784 -18.310   2.120  1.00  0.00     0.033 A 
HETATM   22  C   UNL     1      43.700 -19.167   2.730  1.00  0.00     0.034 A 
HETATM   23  C   UNL     1      44.358 -18.782   3.894  1.00  0.00     0.024 A 
HETATM   24 CL   UNL     1      44.021 -20.706   2.032  1.00  0.00    -0.084 Cl
HETATM   25  C   UNL     1      44.093 -17.532   4.456  1.00  0.00     0.002 A 
HETATM   26  C   UNL     1      43.174 -16.669   3.851  1.00  0.00     0.009 A 
ENDBRANCH  19  20
ENDBRANCH  18  19
ENDBRANCH  15  18
ENDBRANCH  11  12
ENDBRANCH   7  10
ENDBRANCH   1   6
BRANCH   5  27
HETATM   27  C   UNL     1      42.515 -11.989   6.119  1.00  0.00     0.296 C 
BRANCH  27  28
HETATM   28  N   UNL     1      42.083 -13.350   6.653  1.00  0.00    -0.066 N 
HETATM   29  H   UNL     1      41.626 -13.133   7.549  1.00  0.00     0.280 HD
HETATM   30  C   UNL     1      41.032 -14.046   5.811  1.00  0.00     0.235 C 
HETATM   31  C   UNL     1      40.514 -15.273   6.548  1.00  0.00     0.028 C 
HETATM   32  C   UNL     1      41.647 -16.215   6.939  1.00  0.00     0.003 C 
HETATM   33  C   UNL     1      42.713 -15.483   7.743  1.00  0.00     0.028 C 
HETATM   34  C   UNL     1      43.236 -14.259   7.003  1.00  0.00     0.235 C 
ENDBRANCH  27  28
ENDBRANCH   5  27
BRANCH   4  35
HETATM   35  C   UNL     1      43.654 -10.314   8.586  1.00  0.00     0.225 A 
HETATM   36  N   UNL     1      44.838 -10.374   7.974  1.00  0.00    -0.081 NA
HETATM   37  O   UNL     1      45.740 -10.630   9.008  1.00  0.00    -0.103 OA
HETATM   38  N   UNL     1      45.093 -10.677  10.234  1.00  0.00    -0.083 NA
HETATM   39  C   UNL     1      43.799 -10.491   9.972  1.00  0.00     0.201 A 
BRANCH  39  40
HETATM   40  N   UNL     1      42.835 -10.448  10.906  1.00  0.00    -0.379 N 
HETATM   41  H   UNL     1      41.900 -10.138  10.653  1.00  0.00     0.158 HD
HETATM   42  H   UNL     1      43.036 -10.395  11.904  1.00  0.00     0.158 HD
ENDBRANCH  39  40
ENDBRANCH   4  35
TORSDOF 10
ENDMDL
MODEL 2
REMARK VINA RESULT:      -9.0      3.798      8.779
REMARK  10 active torsions:
REMARK  status: ('A' for Active; 'I' for Inactive)
REMARK    1  A    between atoms: C_6  and  C_7 
REMARK    2  A    between atoms: C_7  and  O_8 
REMARK    3  A    between atoms: O_8  and  C_9 
REMARK    4  A    between atoms: C_12  and  C_13 
REMARK    5  A    between atoms: N_14  and  N_15 
REMARK       I    between atoms: N_15  and  C_16 
REMARK    6  A    between atoms: C_16  and  C_17 
REMARK    7  A    between atoms: N_20  and  C_21 
REMARK    8  A    between atoms: C_25  and  N_26 
REMARK    9  A    between atoms: C_27  and  C_28 
REMARK   10  A    between atoms: C_28  and  N_29 
ROOT
HETATM    1  C   UNL     1      40.193 -12.523   4.247  1.00  0.00     0.170 C 
HETATM    2  N   UNL     1      39.984 -11.209   3.961  1.00  0.00    -0.152 NA
HETATM    3  N   UNL     1      39.803 -11.097   2.656  1.00  0.00     0.012 NA
HETATM    4  N   UNL     1      39.910 -12.323   2.081  1.00  0.00    -0.215 N 
HETATM    5  C   UNL     1      40.024 -13.277   3.090  1.00  0.00     0.096 C 
ENDROOT
BRANCH   1   6
HETATM    6  C   UNL     1      40.400 -13.025   5.599  1.00  0.00     0.293 C 
HETATM    7  N   UNL     1      41.679 -13.450   5.918  1.00  0.00    -0.242 N 
HETATM    8  H   UNL     1      41.801 -13.834   6.848  1.00  0.00     0.192 HD
HETATM    9  O   UNL     1      39.466 -13.204   6.375  1.00  0.00    -0.264 OA
BRANCH   7  10
HETATM   10  N   UNL     1      42.750 -13.196   5.117  1.00  0.00    -0.184 NA
HETATM   11  C   UNL     1      43.537 -12.193   5.379  1.00  0.00     0.150 C 
BRANCH  11  12
HETATM   12  C   UNL     1      43.506 -11.241   6.502  1.00  0.00    -0.017 A 
HETATM   13  C   UNL     1      44.414 -11.464   7.539  1.00  0.00     0.016 A 
HETATM   14  C   UNL     1      44.452 -10.585   8.620  1.00  0.00     0.037 A 
HETATM   15  C   UNL     1      43.609  -9.473   8.660  1.00  0.00     0.069 A 
HETATM   16  C   UNL     1      42.702  -9.254   7.620  1.00  0.00     0.037 A 
HETATM   17  C   UNL     1      42.659 -10.131   6.529  1.00  0.00     0.016 A 
BRANCH  15  18
HETATM   18  O   UNL     1      43.755  -8.690   9.767  1.00  0.00    -0.347 OA
BRANCH  18  19
HETATM   19  C   UNL     1      44.235  -9.325  10.953  1.00  0.00     0.214 C 
BRANCH  19  20
HETATM   20  C   UNL     1      43.224  -9.092  12.048  1.00  0.00    -0.033 A 
HETATM   21  C   UNL     1      42.076  -9.899  12.121  1.00  0.00     0.033 A 
HETATM   22  C   UNL     1      41.143  -9.709  13.140  1.00  0.00     0.034 A 
HETATM   23  C   UNL     1      41.340  -8.720  14.099  1.00  0.00     0.024 A 
HETATM   24 CL   UNL     1      39.744 -10.708  13.211  1.00  0.00    -0.084 Cl
HETATM   25  C   UNL     1      42.477  -7.913  14.037  1.00  0.00     0.002 A 
HETATM   26  C   UNL     1      43.415  -8.097  13.016  1.00  0.00     0.009 A 
ENDBRANCH  19  20
ENDBRANCH  18  19
ENDBRANCH  15  18
ENDBRANCH  11  12
ENDBRANCH   7  10
ENDBRANCH   1   6
BRANCH   5  27
HETATM   27  C   UNL     1      39.997 -14.746   2.939  1.00  0.00     0.296 C 
BRANCH  27  28
HETATM   28  N   UNL     1      41.353 -15.440   3.001  1.00  0.00    -0.066 N 
HETATM   29  H   UNL     1      42.011 -14.682   3.223  1.00  0.00     0.280 HD
HETATM   30  C   UNL     1      41.487 -16.446   4.127  1.00  0.00     0.235 C 
HETATM   31  C   UNL     1      42.934 -16.905   4.235  1.00  0.00     0.028 C 
HETATM   32  C   UNL     1      43.451 -17.457   2.913  1.00  0.00     0.003 C 
HETATM   33  C   UNL     1      43.262 -16.447   1.788  1.00  0.00     0.028 C 
HETATM   34  C   UNL     1      41.814 -15.994   1.675  1.00  0.00     0.235 C 
ENDBRANCH  27  28
ENDBRANCH   5  27
BRANCH   4  35
HETATM   35  C   UNL     1      39.853 -12.498   0.677  1.00  0.00     0.225 A 
HETATM   36  N   UNL     1      40.905 -12.979   0.012  1.00  0.00    -0.081 NA
HETATM   37  O   UNL     1      40.486 -12.990  -1.319  1.00  0.00    -0.103 OA
HETATM   38  N   UNL     1      39.173 -12.557  -1.433  1.00  0.00    -0.083 NA
HETATM   39  C   UNL     1      38.784 -12.243  -0.198  1.00  0.00     0.201 A 
BRANCH  39  40
HETATM   40  N   UNL     1      37.557 -11.798   0.120  1.00  0.00    -0.379 N 
HETATM   41  H   UNL     1      37.186 -10.970  -0.338  1.00  0.00     0.158 HD
HETATM   42  H   UNL     1      37.098 -12.027   1.001  1.00  0.00     0.158 HD
ENDBRANCH  39  40
ENDBRANCH   4  35
TORSDOF 10
ENDMDL
MODEL 3
REMARK VINA RESULT:      -8.8      4.289      9.288
REMARK  10 active torsions:
REMARK  status: ('A' for Active; 'I' for Inactive)
REMARK    1  A    between atoms: C_6  and  C_7 
REMARK    2  A    between atoms: C_7  and  O_8 
REMARK    3  A    between atoms: O_8  and  C_9 
REMARK    4  A    between atoms: C_12  and  C_13 
REMARK    5  A    between atoms: N_14  and  N_15 
REMARK       I    between atoms: N_15  and  C_16 
REMARK    6  A    between atoms: C_16  and  C_17 
REMARK    7  A    between atoms: N_20  and  C_21 
REMARK    8  A    between atoms: C_25  and  N_26 
REMARK    9  A    between atoms: C_27  and  C_28 
REMARK   10  A    between atoms: C_28  and  N_29 
ROOT
HETATM    1  C   UNL     1      42.610 -15.733   5.758  1.00  0.00     0.170 C 
HETATM    2  N   UNL     1      43.916 -15.973   6.061  1.00  0.00    -0.152 NA
HETATM    3  N   UNL     1      44.351 -16.936   5.267  1.00  0.00     0.012 NA
HETATM    4  N   UNL     1      43.338 -17.343   4.458  1.00  0.00    -0.215 N 
HETATM    5  C   UNL     1      42.247 -16.498   4.655  1.00  0.00     0.096 C 
ENDROOT
BRANCH   1   6
HETATM    6  C   UNL     1      41.811 -14.709   6.416  1.00  0.00     0.293 C 
HETATM    7  N   UNL     1      42.248 -13.400   6.294  1.00  0.00    -0.242 N 
HETATM    8  H   UNL     1      41.706 -12.702   6.790  1.00  0.00     0.192 HD
HETATM    9  O   UNL     1      40.881 -14.994   7.166  1.00  0.00    -0.264 OA
BRANCH   7  10
HETATM   10  N   UNL     1      43.222 -13.039   5.414  1.00  0.00    -0.184 NA
HETATM   11  C   UNL     1      43.970 -12.002   5.659  1.00  0.00     0.150 C 
BRANCH  11  12
HETATM   12  C   UNL     1      43.989 -11.113   6.833  1.00  0.00    -0.017 A 
HETATM   13  C   UNL     1      42.908 -10.241   6.977  1.00  0.00     0.016 A 
HETATM   14  C   UNL     1      42.855  -9.390   8.080  1.00  0.00     0.037 A 
HETATM   15  C   UNL     1      43.857  -9.424   9.051  1.00  0.00     0.069 A 
HETATM   16  C   UNL     1      44.935 -10.298   8.903  1.00  0.00     0.037 A 
HETATM   17  C   UNL     1      44.996 -11.158   7.799  1.00  0.00     0.016 A 
BRANCH  15  18
HETATM   18  O   UNL     1      43.678  -8.548  10.082  1.00  0.00    -0.347 OA
BRANCH  18  19
HETATM   19  C   UNL     1      44.220  -8.920  11.350  1.00  0.00     0.214 C 
BRANCH  19  20
HETATM   20  C   UNL     1      43.116  -8.825  12.374  1.00  0.00    -0.033 A 
HETATM   21  C   UNL     1      42.027  -9.711  12.311  1.00  0.00     0.033 A 
HETATM   22  C   UNL     1      41.010  -9.648  13.262  1.00  0.00     0.034 A 
HETATM   23  C   UNL     1      41.063  -8.710  14.290  1.00  0.00     0.024 A 
HETATM   24 CL   UNL     1      39.685 -10.742  13.166  1.00  0.00    -0.084 Cl
HETATM   25  C   UNL     1      42.140  -7.826  14.362  1.00  0.00     0.002 A 
HETATM   26  C   UNL     1      43.162  -7.882  13.410  1.00  0.00     0.009 A 
ENDBRANCH  19  20
ENDBRANCH  18  19
ENDBRANCH  15  18
ENDBRANCH  11  12
ENDBRANCH   7  10
ENDBRANCH   1   6
BRANCH   5  27
HETATM   27  C   UNL     1      40.994 -16.461   3.874  1.00  0.00     0.296 C 
BRANCH  27  28
HETATM   28  N   UNL     1      41.060 -15.696   2.557  1.00  0.00    -0.066 N 
HETATM   29  H   UNL     1      41.747 -16.220   1.999  1.00  0.00     0.280 HD
HETATM   30  C   UNL     1      39.773 -15.720   1.757  1.00  0.00     0.235 C 
HETATM   31  C   UNL     1      40.017 -15.129   0.376  1.00  0.00     0.028 C 
HETATM   32  C   UNL     1      40.611 -13.728   0.459  1.00  0.00     0.003 C 
HETATM   33  C   UNL     1      41.876 -13.721   1.306  1.00  0.00     0.028 C 
HETATM   34  C   UNL     1      41.631 -14.305   2.690  1.00  0.00     0.235 C 
ENDBRANCH  27  28
ENDBRANCH   5  27
BRANCH   4  35
HETATM   35  C   UNL     1      43.487 -18.431   3.563  1.00  0.00     0.225 A 
HETATM   36  N   UNL     1      43.177 -18.293   2.273  1.00  0.00    -0.081 NA
HETATM   37  O   UNL     1      43.432 -19.552   1.729  1.00  0.00    -0.103 OA
HETATM   38  N   UNL     1      43.933 -20.419   2.689  1.00  0.00    -0.083 NA
HETATM   39  C   UNL     1      43.958 -19.728   3.828  1.00  0.00     0.201 A 
BRANCH  39  40
HETATM   40  N   UNL     1      44.401 -20.212   4.999  1.00  0.00    -0.379 N 
HETATM   41  H   UNL     1      44.279 -21.198   5.217  1.00  0.00     0.158 HD
HETATM   42  H   UNL     1      44.561 -19.622   5.815  1.00  0.00     0.158 HD
ENDBRANCH  39  40
ENDBRANCH   4  35
TORSDOF 10
ENDMDL
MODEL 4
REMARK VINA RESULT:      -8.7      3.072      4.632
REMARK  10 active torsions:
REMARK  status: ('A' for Active; 'I' for Inactive)
REMARK    1  A    between atoms: C_6  and  C_7 
REMARK    2  A    between atoms: C_7  and  O_8 
REMARK    3  A    between atoms: O_8  and  C_9 
REMARK    4  A    between atoms: C_12  and  C_13 
REMARK    5  A    between atoms: N_14  and  N_15 
REMARK       I    between atoms: N_15  and  C_16 
REMARK    6  A    between atoms: C_16  and  C_17 
REMARK    7  A    between atoms: N_20  and  C_21 
REMARK    8  A    between atoms: C_25  and  N_26 
REMARK    9  A    between atoms: C_27  and  C_28 
REMARK   10  A    between atoms: C_28  and  N_29 
ROOT
HETATM    1  C   UNL     1      39.324  -9.109   9.703  1.00  0.00     0.170 C 
HETATM    2  N   UNL     1      38.514  -8.024   9.555  1.00  0.00    -0.152 NA
HETATM    3  N   UNL     1      38.954  -7.072  10.360  1.00  0.00     0.012 NA
HETATM    4  N   UNL     1      40.033  -7.527  11.049  1.00  0.00    -0.215 N 
HETATM    5  C   UNL     1      40.377  -8.783  10.551  1.00  0.00     0.096 C 
ENDROOT
BRANCH   1   6
HETATM    6  C   UNL     1      39.157 -10.342   8.946  1.00  0.00     0.293 C 
HETATM    7  N   UNL     1      39.841 -10.435   7.745  1.00  0.00    -0.242 N 
HETATM    8  H   UNL     1      39.684 -11.281   7.209  1.00  0.00     0.192 HD
HETATM    9  O   UNL     1      38.340 -11.198   9.273  1.00  0.00    -0.264 OA
BRANCH   7  10
HETATM   10  N   UNL     1      40.810  -9.547   7.390  1.00  0.00    -0.184 NA
HETATM   11  C   UNL     1      41.747  -9.902   6.559  1.00  0.00     0.150 C 
BRANCH  11  12
HETATM   12  C   UNL     1      41.931 -11.172   5.837  1.00  0.00    -0.017 A 
HETATM   13  C   UNL     1      42.864 -12.066   6.369  1.00  0.00     0.016 A 
HETATM   14  C   UNL     1      43.068 -13.296   5.746  1.00  0.00     0.037 A 
HETATM   15  C   UNL     1      42.330 -13.650   4.615  1.00  0.00     0.069 A 
HETATM   16  C   UNL     1      41.399 -12.753   4.088  1.00  0.00     0.037 A 
HETATM   17  C   UNL     1      41.186 -11.515   4.708  1.00  0.00     0.016 A 
BRANCH  15  18
HETATM   18  O   UNL     1      42.621 -14.884   4.111  1.00  0.00    -0.347 OA
BRANCH  18  19
HETATM   19  C   UNL     1      43.403 -15.752   4.932  1.00  0.00     0.214 C 
BRANCH  19  20
HETATM   20  C   UNL     1      43.514 -17.083   4.229  1.00  0.00    -0.033 A 
HETATM   21  C   UNL     1      43.962 -18.210   4.937  1.00  0.00     0.033 A 
HETATM   22  C   UNL     1      44.049 -19.451   4.306  1.00  0.00     0.034 A 
HETATM   23  C   UNL     1      43.690 -19.588   2.968  1.00  0.00     0.024 A 
HETATM   24 CL   UNL     1      44.600 -20.820   5.191  1.00  0.00    -0.084 Cl
HETATM   25  C   UNL     1      43.243 -18.474   2.256  1.00  0.00     0.002 A 
HETATM   26  C   UNL     1      43.155 -17.227   2.882  1.00  0.00     0.009 A 
ENDBRANCH  19  20
ENDBRANCH  18  19
ENDBRANCH  15  18
ENDBRANCH  11  12
ENDBRANCH   7  10
ENDBRANCH   1   6
BRANCH   5  27
HETATM   27  C   UNL     1      41.578  -9.576  10.883  1.00  0.00     0.296 C 
BRANCH  27  28
HETATM   28  N   UNL     1      42.749  -9.435   9.917  1.00  0.00    -0.066 N 
HETATM   29  H   UNL     1      42.350  -9.686   9.003  1.00  0.00     0.280 HD
HETATM   30  C   UNL     1      43.266  -8.018   9.767  1.00  0.00     0.235 C 
HETATM   31  C   UNL     1      44.269  -7.957   8.624  1.00  0.00     0.028 C 
HETATM   32  C   UNL     1      45.401  -8.959   8.812  1.00  0.00     0.003 C 
HETATM   33  C   UNL     1      44.855 -10.368   9.008  1.00  0.00     0.028 C 
HETATM   34  C   UNL     1      43.858 -10.431  10.156  1.00  0.00     0.235 C 
ENDBRANCH  27  28
ENDBRANCH   5  27
BRANCH   4  35
HETATM   35  C   UNL     1      40.658  -6.754  12.056  1.00  0.00     0.225 A 
HETATM   36  N   UNL     1      41.189  -5.565  11.765  1.00  0.00    -0.081 NA
HETATM   37  O   UNL     1      41.715  -5.124  12.980  1.00  0.00    -0.103 OA
HETATM   38  N   UNL     1      41.457  -6.033  13.995  1.00  0.00    -0.083 NA
HETATM   39  C   UNL     1      40.810  -7.047  13.422  1.00  0.00     0.201 A 
BRANCH  39  40
HETATM   40  N   UNL     1      40.363  -8.129  14.079  1.00  0.00    -0.379 N 
HETATM   41  H   UNL     1      40.752  -9.045  13.868  1.00  0.00     0.158 HD
HETATM   42  H   UNL     1      39.454  -8.160  14.538  1.00  0.00     0.158 HD
ENDBRANCH  39  40
ENDBRANCH   4  35
TORSDOF 10
ENDMDL
MODEL 5
REMARK VINA RESULT:      -8.6      2.742      4.307
REMARK  10 active torsions:
REMARK  status: ('A' for Active; 'I' for Inactive)
REMARK    1  A    between atoms: C_6  and  C_7 
REMARK    2  A    between atoms: C_7  and  O_8 
REMARK    3  A    between atoms: O_8  and  C_9 
REMARK    4  A    between atoms: C_12  and  C_13 
REMARK    5  A    between atoms: N_14  and  N_15 
REMARK       I    between atoms: N_15  and  C_16 
REMARK    6  A    between atoms: C_16  and  C_17 
REMARK    7  A    between atoms: N_20  and  C_21 
REMARK    8  A    between atoms: C_25  and  N_26 
REMARK    9  A    between atoms: C_27  and  C_28 
REMARK   10  A    between atoms: C_28  and  N_29 
ROOT
HETATM    1  C   UNL     1      39.650  -8.350   8.177  1.00  0.00     0.170 C 
HETATM    2  N   UNL     1      38.737  -7.562   8.809  1.00  0.00    -0.152 NA
HETATM    3  N   UNL     1      38.696  -7.920  10.081  1.00  0.00     0.012 NA
HETATM    4  N   UNL     1      39.561  -8.948  10.287  1.00  0.00    -0.215 N 
HETATM    5  C   UNL     1      40.286  -9.157   9.116  1.00  0.00     0.096 C 
ENDROOT
BRANCH   1   6
HETATM    6  C   UNL     1      39.982  -8.217   6.766  1.00  0.00     0.293 C 
HETATM    7  N   UNL     1      39.415  -9.139   5.901  1.00  0.00    -0.242 N 
HETATM    8  H   UNL     1      39.686  -9.061   4.927  1.00  0.00     0.192 HD
HETATM    9  O   UNL     1      40.834  -7.426   6.371  1.00  0.00    -0.264 OA
BRANCH   7  10
HETATM   10  N   UNL     1      38.413  -9.976   6.286  1.00  0.00    -0.184 NA
HETATM   11  C   UNL     1      38.489 -11.249   6.023  1.00  0.00     0.150 C 
BRANCH  11  12
HETATM   12  C   UNL     1      39.572 -12.013   5.381  1.00  0.00    -0.017 A 
HETATM   13  C   UNL     1      40.738 -12.196   6.127  1.00  0.00     0.016 A 
HETATM   14  C   UNL     1      41.792 -12.931   5.585  1.00  0.00     0.037 A 
HETATM   15  C   UNL     1      41.678 -13.505   4.318  1.00  0.00     0.069 A 
HETATM   16  C   UNL     1      40.510 -13.320   3.576  1.00  0.00     0.037 A 
HETATM   17  C   UNL     1      39.445 -12.585   4.113  1.00  0.00     0.016 A 
BRANCH  15  18
HETATM   18  O   UNL     1      42.776 -14.207   3.912  1.00  0.00    -0.347 OA
BRANCH  18  19
HETATM   19  C   UNL     1      42.593 -15.138   2.845  1.00  0.00     0.214 C 
BRANCH  19  20
HETATM   20  C   UNL     1      43.118 -16.477   3.300  1.00  0.00    -0.033 A 
HETATM   21  C   UNL     1      43.054 -17.582   2.435  1.00  0.00     0.033 A 
HETATM   22  C   UNL     1      43.554 -18.821   2.835  1.00  0.00     0.034 A 
HETATM   23  C   UNL     1      44.127 -18.976   4.093  1.00  0.00     0.024 A 
HETATM   24 CL   UNL     1      43.466 -20.161   1.760  1.00  0.00    -0.084 Cl
HETATM   25  C   UNL     1      44.196 -17.885   4.961  1.00  0.00     0.002 A 
HETATM   26  C   UNL     1      43.694 -16.641   4.567  1.00  0.00     0.009 A 
ENDBRANCH  19  20
ENDBRANCH  18  19
ENDBRANCH  15  18
ENDBRANCH  11  12
ENDBRANCH   7  10
ENDBRANCH   1   6
BRANCH   5  27
HETATM   27  C   UNL     1      41.445 -10.054   8.931  1.00  0.00     0.296 C 
BRANCH  27  28
HETATM   28  N   UNL     1      42.799  -9.471   9.321  1.00  0.00    -0.066 N 
HETATM   29  H   UNL     1      42.569  -8.550   9.717  1.00  0.00     0.280 HD
HETATM   30  C   UNL     1      43.510 -10.230  10.424  1.00  0.00     0.235 C 
HETATM   31  C   UNL     1      44.727  -9.442  10.886  1.00  0.00     0.028 C 
HETATM   32  C   UNL     1      45.660  -9.114   9.727  1.00  0.00     0.003 C 
HETATM   33  C   UNL     1      44.913  -8.394   8.611  1.00  0.00     0.028 C 
HETATM   34  C   UNL     1      43.699  -9.186   8.143  1.00  0.00     0.235 C 
ENDBRANCH  27  28
ENDBRANCH   5  27
BRANCH   4  35
HETATM   35  C   UNL     1      39.662  -9.601  11.539  1.00  0.00     0.225 A 
HETATM   36  N   UNL     1      40.329  -9.034  12.545  1.00  0.00    -0.081 NA
HETATM   37  O   UNL     1      40.226  -9.962  13.583  1.00  0.00    -0.103 OA
HETATM   38  N   UNL     1      39.461 -11.055  13.201  1.00  0.00    -0.083 NA
HETATM   39  C   UNL     1      39.119 -10.836  11.932  1.00  0.00     0.201 A 
BRANCH  39  40
HETATM   40  N   UNL     1      38.354 -11.661  11.200  1.00  0.00    -0.379 N 
HETATM   41  H   UNL     1      37.982 -12.510  11.619  1.00  0.00     0.158 HD
HETATM   42  H   UNL     1      38.376 -11.676  10.181  1.00  0.00     0.158 HD
ENDBRANCH  39  40
ENDBRANCH   4  35
TORSDOF 10
ENDMDL
MODEL 6
REMARK VINA RESULT:      -8.6      2.354      3.882
REMARK  10 active torsions:
REMARK  status: ('A' for Active; 'I' for Inactive)
REMARK    1  A    between atoms: C_6  and  C_7 
REMARK    2  A    between atoms: C_7  and  O_8 
REMARK    3  A    between atoms: O_8  and  C_9 
REMARK    4  A    between atoms: C_12  and  C_13 
REMARK    5  A    between atoms: N_14  and  N_15 
REMARK       I    between atoms: N_15  and  C_16 
REMARK    6  A    between atoms: C_16  and  C_17 
REMARK    7  A    between atoms: N_20  and  C_21 
REMARK    8  A    between atoms: C_25  and  N_26 
REMARK    9  A    between atoms: C_27  and  C_28 
REMARK   10  A    between atoms: C_28  and  N_29 
ROOT
HETATM    1  C   UNL     1      40.508  -8.801   6.292  1.00  0.00     0.170 C 
HETATM    2  N   UNL     1      39.748  -7.708   6.575  1.00  0.00    -0.152 NA
HETATM    3  N   UNL     1      39.636  -7.615   7.889  1.00  0.00     0.012 NA
HETATM    4  N   UNL     1      40.301  -8.647   8.471  1.00  0.00    -0.215 N 
HETATM    5  C   UNL     1      40.984  -9.349   7.479  1.00  0.00     0.096 C 
ENDROOT
BRANCH   1   6
HETATM    6  C   UNL     1      40.867  -9.198   4.937  1.00  0.00     0.293 C 
HETATM    7  N   UNL     1      40.333 -10.388   4.473  1.00  0.00    -0.242 N 
HETATM    8  H   UNL     1      40.622 -10.673   3.544  1.00  0.00     0.192 HD
HETATM    9  O   UNL     1      41.713  -8.592   4.286  1.00  0.00    -0.264 OA
BRANCH   7  10
HETATM   10  N   UNL     1      39.337 -11.043   5.130  1.00  0.00    -0.184 NA
HETATM   11  C   UNL     1      39.369 -12.340   5.237  1.00  0.00     0.150 C 
BRANCH  11  12
HETATM   12  C   UNL     1      40.395 -13.295   4.787  1.00  0.00    -0.017 A 
HETATM   13  C   UNL     1      41.384 -13.636   5.712  1.00  0.00     0.016 A 
HETATM   14  C   UNL     1      42.371 -14.554   5.356  1.00  0.00     0.037 A 
HETATM   15  C   UNL     1      42.362 -15.152   4.095  1.00  0.00     0.069 A 
HETATM   16  C   UNL     1      41.371 -14.808   3.173  1.00  0.00     0.037 A 
HETATM   17  C   UNL     1      40.374 -13.889   3.523  1.00  0.00     0.016 A 
BRANCH  15  18
HETATM   18  O   UNL     1      43.376 -16.038   3.880  1.00  0.00    -0.347 OA
BRANCH  18  19
HETATM   19  C   UNL     1      43.875 -16.742   5.018  1.00  0.00     0.214 C 
BRANCH  19  20
HETATM   20  C   UNL     1      43.850 -18.217   4.701  1.00  0.00    -0.033 A 
HETATM   21  C   UNL     1      43.785 -18.642   3.363  1.00  0.00     0.033 A 
HETATM   22  C   UNL     1      43.782 -20.001   3.053  1.00  0.00     0.034 A 
HETATM   23  C   UNL     1      43.848 -20.954   4.065  1.00  0.00     0.024 A 
HETATM   24 CL   UNL     1      43.702 -20.500   1.409  1.00  0.00    -0.084 Cl
HETATM   25  C   UNL     1      43.912 -20.544   5.398  1.00  0.00     0.002 A 
HETATM   26  C   UNL     1      43.914 -19.182   5.715  1.00  0.00     0.009 A 
ENDBRANCH  19  20
ENDBRANCH  18  19
ENDBRANCH  15  18
ENDBRANCH  11  12
ENDBRANCH   7  10
ENDBRANCH   1   6
BRANCH   5  27
HETATM   27  C   UNL     1      41.963 -10.438   7.668  1.00  0.00     0.296 C 
BRANCH  27  28
HETATM   28  N   UNL     1      43.429 -10.024   7.605  1.00  0.00    -0.066 N 
HETATM   29  H   UNL     1      43.495  -9.473   6.739  1.00  0.00     0.280 HD
HETATM   30  C   UNL     1      43.864  -9.095   8.721  1.00  0.00     0.235 C 
HETATM   31  C   UNL     1      45.264  -8.570   8.435  1.00  0.00     0.028 C 
HETATM   32  C   UNL     1      46.258  -9.705   8.218  1.00  0.00     0.003 C 
HETATM   33  C   UNL     1      45.776 -10.651   7.126  1.00  0.00     0.028 C 
HETATM   34  C   UNL     1      44.379 -11.182   7.415  1.00  0.00     0.235 C 
ENDBRANCH  27  28
ENDBRANCH   5  27
BRANCH   4  35
HETATM   35  C   UNL     1      40.275  -8.859   9.870  1.00  0.00     0.225 A 
HETATM   36  N   UNL     1      40.997  -8.087  10.684  1.00  0.00    -0.081 NA
HETATM   37  O   UNL     1      40.734  -8.599  11.956  1.00  0.00    -0.103 OA
HETATM   38  N   UNL     1      39.824  -9.644  11.894  1.00  0.00    -0.083 NA
HETATM   39  C   UNL     1      39.547  -9.812  10.602  1.00  0.00     0.201 A 
BRANCH  39  40
HETATM   40  N   UNL     1      38.683 -10.722  10.123  1.00  0.00    -0.379 N 
HETATM   41  H   UNL     1      37.692 -10.638  10.334  1.00  0.00     0.158 HD
HETATM   42  H   UNL     1      38.970 -11.658   9.838  1.00  0.00     0.158 HD
ENDBRANCH  39  40
ENDBRANCH   4  35
TORSDOF 10
ENDMDL
MODEL 7
REMARK VINA RESULT:      -8.6      4.340      9.082
REMARK  10 active torsions:
REMARK  status: ('A' for Active; 'I' for Inactive)
REMARK    1  A    between atoms: C_6  and  C_7 
REMARK    2  A    between atoms: C_7  and  O_8 
REMARK    3  A    between atoms: O_8  and  C_9 
REMARK    4  A    between atoms: C_12  and  C_13 
REMARK    5  A    between atoms: N_14  and  N_15 
REMARK       I    between atoms: N_15  and  C_16 
REMARK    6  A    between atoms: C_16  and  C_17 
REMARK    7  A    between atoms: N_20  and  C_21 
REMARK    8  A    between atoms: C_25  and  N_26 
REMARK    9  A    between atoms: C_27  and  C_28 
REMARK   10  A    between atoms: C_28  and  N_29 
ROOT
HETATM    1  C   UNL     1      39.911 -12.016   2.093  1.00  0.00     0.170 C 
HETATM    2  N   UNL     1      39.656 -10.800   1.537  1.00  0.00    -0.152 NA
HETATM    3  N   UNL     1      39.566 -10.958   0.227  1.00  0.00     0.012 NA
HETATM    4  N   UNL     1      39.778 -12.264  -0.083  1.00  0.00    -0.215 N 
HETATM    5  C   UNL     1      39.867 -12.992   1.102  1.00  0.00     0.096 C 
ENDROOT
BRANCH   1   6
HETATM    6  C   UNL     1      40.044 -12.229   3.528  1.00  0.00     0.293 C 
HETATM    7  N   UNL     1      41.330 -12.350   4.025  1.00  0.00    -0.242 N 
HETATM    8  H   UNL     1      41.407 -12.538   5.019  1.00  0.00     0.192 HD
HETATM    9  O   UNL     1      39.069 -12.438   4.246  1.00  0.00    -0.264 OA
BRANCH   7  10
HETATM   10  N   UNL     1      42.429 -12.048   3.280  1.00  0.00    -0.184 NA
HETATM   11  C   UNL     1      43.498 -11.577   3.855  1.00  0.00     0.150 C 
BRANCH  11  12
HETATM   12  C   UNL     1      43.772 -11.345   5.283  1.00  0.00    -0.017 A 
HETATM   13  C   UNL     1      45.047 -11.685   5.740  1.00  0.00     0.016 A 
HETATM   14  C   UNL     1      45.378 -11.468   7.077  1.00  0.00     0.037 A 
HETATM   15  C   UNL     1      44.456 -10.888   7.950  1.00  0.00     0.069 A 
HETATM   16  C   UNL     1      43.183 -10.549   7.488  1.00  0.00     0.037 A 
HETATM   17  C   UNL     1      42.842 -10.762   6.147  1.00  0.00     0.016 A 
BRANCH  15  18
HETATM   18  O   UNL     1      44.911 -10.721   9.226  1.00  0.00    -0.347 OA
BRANCH  18  19
HETATM   19  C   UNL     1      45.425  -9.433   9.568  1.00  0.00     0.214 C 
BRANCH  19  20
HETATM   20  C   UNL     1      44.319  -8.654  10.237  1.00  0.00    -0.033 A 
HETATM   21  C   UNL     1      43.913  -8.996  11.537  1.00  0.00     0.033 A 
HETATM   22  C   UNL     1      42.906  -8.272  12.176  1.00  0.00     0.034 A 
HETATM   23  C   UNL     1      42.296  -7.198  11.535  1.00  0.00     0.024 A 
HETATM   24 CL   UNL     1      42.423  -8.708  13.768  1.00  0.00    -0.084 Cl
HETATM   25  C   UNL     1      42.692  -6.849  10.243  1.00  0.00     0.002 A 
HETATM   26  C   UNL     1      43.699  -7.573   9.596  1.00  0.00     0.009 A 
ENDBRANCH  19  20
ENDBRANCH  18  19
ENDBRANCH  15  18
ENDBRANCH  11  12
ENDBRANCH   7  10
ENDBRANCH   1   6
BRANCH   5  27
HETATM   27  C   UNL     1      39.927 -14.460   1.246  1.00  0.00     0.296 C 
BRANCH  27  28
HETATM   28  N   UNL     1      41.119 -14.998   2.029  1.00  0.00    -0.066 N 
HETATM   29  H   UNL     1      41.526 -14.162   2.469  1.00  0.00     0.280 HD
HETATM   30  C   UNL     1      40.750 -15.927   3.169  1.00  0.00     0.235 C 
HETATM   31  C   UNL     1      41.983 -16.218   4.012  1.00  0.00     0.028 C 
HETATM   32  C   UNL     1      43.124 -16.775   3.170  1.00  0.00     0.003 C 
HETATM   33  C   UNL     1      43.445 -15.848   2.004  1.00  0.00     0.028 C 
HETATM   34  C   UNL     1      42.214 -15.563   1.156  1.00  0.00     0.235 C 
ENDBRANCH  27  28
ENDBRANCH   5  27
BRANCH   4  35
HETATM   35  C   UNL     1      39.834 -12.714  -1.424  1.00  0.00     0.225 A 
HETATM   36  N   UNL     1      40.978 -12.660  -2.109  1.00  0.00    -0.081 NA
HETATM   37  O   UNL     1      40.642 -13.162  -3.367  1.00  0.00    -0.103 OA
HETATM   38  N   UNL     1      39.311 -13.552  -3.409  1.00  0.00    -0.083 NA
HETATM   39  C   UNL     1      38.808 -13.266  -2.209  1.00  0.00     0.201 A 
BRANCH  39  40
HETATM   40  N   UNL     1      37.541 -13.513  -1.840  1.00  0.00    -0.379 N 
HETATM   41  H   UNL     1      36.776 -13.030  -2.304  1.00  0.00     0.158 HD
HETATM   42  H   UNL     1      37.297 -13.900  -0.929  1.00  0.00     0.158 HD
ENDBRANCH  39  40
ENDBRANCH   4  35
TORSDOF 10
ENDMDL
MODEL 8
REMARK VINA RESULT:      -8.5      3.393      5.191
REMARK  10 active torsions:
REMARK  status: ('A' for Active; 'I' for Inactive)
REMARK    1  A    between atoms: C_6  and  C_7 
REMARK    2  A    between atoms: C_7  and  O_8 
REMARK    3  A    between atoms: O_8  and  C_9 
REMARK    4  A    between atoms: C_12  and  C_13 
REMARK    5  A    between atoms: N_14  and  N_15 
REMARK       I    between atoms: N_15  and  C_16 
REMARK    6  A    between atoms: C_16  and  C_17 
REMARK    7  A    between atoms: N_20  and  C_21 
REMARK    8  A    between atoms: C_25  and  N_26 
REMARK    9  A    between atoms: C_27  and  C_28 
REMARK   10  A    between atoms: C_28  and  N_29 
ROOT
HETATM    1  C   UNL     1      39.091  -8.991   9.810  1.00  0.00     0.170 C 
HETATM    2  N   UNL     1      38.425  -7.867   9.426  1.00  0.00    -0.152 NA
HETATM    3  N   UNL     1      38.707  -6.907  10.290  1.00  0.00     0.012 NA
HETATM    4  N   UNL     1      39.538  -7.395  11.249  1.00  0.00    -0.215 N 
HETATM    5  C   UNL     1      39.911  -8.690  10.893  1.00  0.00     0.096 C 
ENDROOT
BRANCH   1   6
HETATM    6  C   UNL     1      39.040 -10.244   9.070  1.00  0.00     0.293 C 
HETATM    7  N   UNL     1      39.748 -10.298   7.881  1.00  0.00    -0.242 N 
HETATM    8  H   UNL     1      39.670 -11.162   7.356  1.00  0.00     0.192 HD
HETATM    9  O   UNL     1      38.292 -11.162   9.399  1.00  0.00    -0.264 OA
BRANCH   7  10
HETATM   10  N   UNL     1      40.644  -9.337   7.525  1.00  0.00    -0.184 NA
HETATM   11  C   UNL     1      41.798  -9.675   7.027  1.00  0.00     0.150 C 
BRANCH  11  12
HETATM   12  C   UNL     1      42.329 -11.010   6.705  1.00  0.00    -0.017 A 
HETATM   13  C   UNL     1      41.597 -11.773   5.793  1.00  0.00     0.016 A 
HETATM   14  C   UNL     1      42.058 -13.036   5.427  1.00  0.00     0.037 A 
HETATM   15  C   UNL     1      43.257 -13.530   5.945  1.00  0.00     0.069 A 
HETATM   16  C   UNL     1      43.986 -12.764   6.856  1.00  0.00     0.037 A 
HETATM   17  C   UNL     1      43.531 -11.492   7.227  1.00  0.00     0.016 A 
BRANCH  15  18
HETATM   18  O   UNL     1      43.599 -14.773   5.497  1.00  0.00    -0.347 OA
BRANCH  18  19
HETATM   19  C   UNL     1      42.562 -15.755   5.455  1.00  0.00     0.214 C 
BRANCH  19  20
HETATM   20  C   UNL     1      43.033 -16.891   4.580  1.00  0.00    -0.033 A 
HETATM   21  C   UNL     1      43.547 -18.058   5.170  1.00  0.00     0.033 A 
HETATM   22  C   UNL     1      43.967 -19.124   4.375  1.00  0.00     0.034 A 
HETATM   23  C   UNL     1      43.877 -19.047   2.988  1.00  0.00     0.024 A 
HETATM   24 CL   UNL     1      44.593 -20.544   5.117  1.00  0.00    -0.084 Cl
HETATM   25  C   UNL     1      43.368 -17.892   2.392  1.00  0.00     0.002 A 
HETATM   26  C   UNL     1      42.948 -16.819   3.183  1.00  0.00     0.009 A 
ENDBRANCH  19  20
ENDBRANCH  18  19
ENDBRANCH  15  18
ENDBRANCH  11  12
ENDBRANCH   7  10
ENDBRANCH   1   6
BRANCH   5  27
HETATM   27  C   UNL     1      40.927  -9.539  11.548  1.00  0.00     0.296 C 
BRANCH  27  28
HETATM   28  N   UNL     1      42.278  -9.611  10.845  1.00  0.00    -0.066 N 
HETATM   29  H   UNL     1      42.078 -10.117   9.972  1.00  0.00     0.280 HD
HETATM   30  C   UNL     1      42.835  -8.265  10.425  1.00  0.00     0.235 C 
HETATM   31  C   UNL     1      44.058  -8.470   9.542  1.00  0.00     0.028 C 
HETATM   32  C   UNL     1      45.109  -9.333  10.228  1.00  0.00     0.003 C 
HETATM   33  C   UNL     1      44.515 -10.659  10.683  1.00  0.00     0.028 C 
HETATM   34  C   UNL     1      43.296 -10.455  11.572  1.00  0.00     0.235 C 
ENDBRANCH  27  28
ENDBRANCH   5  27
BRANCH   4  35
HETATM   35  C   UNL     1      39.935  -6.615  12.362  1.00  0.00     0.225 A 
HETATM   36  N   UNL     1      39.551  -6.951  13.594  1.00  0.00    -0.081 NA
HETATM   37  O   UNL     1      40.110  -5.960  14.403  1.00  0.00    -0.103 OA
HETATM   38  N   UNL     1      40.858  -5.066  13.651  1.00  0.00    -0.083 NA
HETATM   39  C   UNL     1      40.743  -5.466  12.385  1.00  0.00     0.201 A 
BRANCH  39  40
HETATM   40  N   UNL     1      41.343  -4.868  11.343  1.00  0.00    -0.379 N 
HETATM   41  H   UNL     1      40.786  -4.351  10.668  1.00  0.00     0.158 HD
HETATM   42  H   UNL     1      42.258  -5.152  10.996  1.00  0.00     0.158 HD
ENDBRANCH  39  40
ENDBRANCH   4  35
TORSDOF 10
ENDMDL
MODEL 9
REMARK VINA RESULT:      -8.5      2.900      4.732
REMARK  10 active torsions:
REMARK  status: ('A' for Active; 'I' for Inactive)
REMARK    1  A    between atoms: C_6  and  C_7 
REMARK    2  A    between atoms: C_7  and  O_8 
REMARK    3  A    between atoms: O_8  and  C_9 
REMARK    4  A    between atoms: C_12  and  C_13 
REMARK    5  A    between atoms: N_14  and  N_15 
REMARK       I    between atoms: N_15  and  C_16 
REMARK    6  A    between atoms: C_16  and  C_17 
REMARK    7  A    between atoms: N_20  and  C_21 
REMARK    8  A    between atoms: C_25  and  N_26 
REMARK    9  A    between atoms: C_27  and  C_28 
REMARK   10  A    between atoms: C_28  and  N_29 
ROOT
HETATM    1  C   UNL     1      43.795  -9.338   8.111  1.00  0.00     0.170 C 
HETATM    2  N   UNL     1      44.880  -8.516   8.084  1.00  0.00    -0.152 NA
HETATM    3  N   UNL     1      44.530  -7.357   8.616  1.00  0.00     0.012 NA
HETATM    4  N   UNL     1      43.221  -7.405   8.976  1.00  0.00    -0.215 N 
HETATM    5  C   UNL     1      42.758  -8.706   8.790  1.00  0.00     0.096 C 
ENDROOT
BRANCH   1   6
HETATM    6  C   UNL     1      43.820 -10.713   7.632  1.00  0.00     0.293 C 
HETATM    7  N   UNL     1      43.080 -10.992   6.496  1.00  0.00    -0.242 N 
HETATM    8  H   UNL     1      43.073 -11.961   6.196  1.00  0.00     0.192 HD
HETATM    9  O   UNL     1      44.347 -11.616   8.277  1.00  0.00    -0.264 OA
BRANCH   7  10
HETATM   10  N   UNL     1      42.550 -10.011   5.714  1.00  0.00    -0.184 NA
HETATM   11  C   UNL     1      42.191 -10.275   4.491  1.00  0.00     0.150 C 
BRANCH  11  12
HETATM   12  C   UNL     1      42.206 -11.554   3.762  1.00  0.00    -0.017 A 
HETATM   13  C   UNL     1      40.970 -12.167   3.545  1.00  0.00     0.016 A 
HETATM   14  C   UNL     1      40.913 -13.368   2.840  1.00  0.00     0.037 A 
HETATM   15  C   UNL     1      42.077 -13.945   2.327  1.00  0.00     0.069 A 
HETATM   16  C   UNL     1      43.310 -13.328   2.546  1.00  0.00     0.037 A 
HETATM   17  C   UNL     1      43.376 -12.120   3.252  1.00  0.00     0.016 A 
BRANCH  15  18
HETATM   18  O   UNL     1      41.880 -15.112   1.649  1.00  0.00    -0.347 OA
BRANCH  18  19
HETATM   19  C   UNL     1      41.291 -16.193   2.374  1.00  0.00     0.214 C 
BRANCH  19  20
HETATM   20  C   UNL     1      42.404 -16.985   3.014  1.00  0.00    -0.033 A 
HETATM   21  C   UNL     1      42.865 -16.632   4.294  1.00  0.00     0.033 A 
HETATM   22  C   UNL     1      43.879 -17.368   4.906  1.00  0.00     0.034 A 
HETATM   23  C   UNL     1      44.443 -18.464   4.259  1.00  0.00     0.024 A 
HETATM   24 CL   UNL     1      44.429 -16.919   6.473  1.00  0.00    -0.084 Cl
HETATM   25  C   UNL     1      43.992 -18.823   2.988  1.00  0.00     0.002 A 
HETATM   26  C   UNL     1      42.978 -18.088   2.368  1.00  0.00     0.009 A 
ENDBRANCH  19  20
ENDBRANCH  18  19
ENDBRANCH  15  18
ENDBRANCH  11  12
ENDBRANCH   7  10
ENDBRANCH   1   6
BRANCH   5  27
HETATM   27  C   UNL     1      41.451  -9.257   9.203  1.00  0.00     0.296 C 
BRANCH  27  28
HETATM   28  N   UNL     1      41.312  -9.580  10.686  1.00  0.00    -0.066 N 
HETATM   29  H   UNL     1      40.910 -10.527  10.698  1.00  0.00     0.280 HD
HETATM   30  C   UNL     1      42.630  -9.682  11.429  1.00  0.00     0.235 C 
HETATM   31  C   UNL     1      42.388 -10.226  12.830  1.00  0.00     0.028 C 
HETATM   32  C   UNL     1      41.367  -9.390  13.591  1.00  0.00     0.003 C 
HETATM   33  C   UNL     1      40.069  -9.262  12.805  1.00  0.00     0.028 C 
HETATM   34  C   UNL     1      40.310  -8.711  11.406  1.00  0.00     0.235 C 
ENDBRANCH  27  28
ENDBRANCH   5  27
BRANCH   4  35
HETATM   35  C   UNL     1      42.545  -6.271   9.489  1.00  0.00     0.225 A 
HETATM   36  N   UNL     1      42.628  -5.963  10.784  1.00  0.00    -0.081 NA
HETATM   37  O   UNL     1      41.835  -4.821  10.910  1.00  0.00    -0.103 OA
HETATM   38  N   UNL     1      41.321  -4.433   9.682  1.00  0.00    -0.083 NA
HETATM   39  C   UNL     1      41.753  -5.336   8.803  1.00  0.00     0.201 A 
BRANCH  39  40
HETATM   40  N   UNL     1      41.485  -5.301   7.487  1.00  0.00    -0.379 N 
HETATM   41  H   UNL     1      42.221  -5.510   6.817  1.00  0.00     0.158 HD
HETATM   42  H   UNL     1      40.702  -4.779   7.097  1.00  0.00     0.158 HD
ENDBRANCH  39  40
ENDBRANCH   4  35
TORSDOF 10
ENDMDL
MODEL 10
REMARK VINA RESULT:      -8.5      3.019      5.826
REMARK  10 active torsions:
REMARK  status: ('A' for Active; 'I' for Inactive)
REMARK    1  A    between atoms: C_6  and  C_7 
REMARK    2  A    between atoms: C_7  and  O_8 
REMARK    3  A    between atoms: O_8  and  C_9 
REMARK    4  A    between atoms: C_12  and  C_13 
REMARK    5  A    between atoms: N_14  and  N_15 
REMARK       I    between atoms: N_15  and  C_16 
REMARK    6  A    between atoms: C_16  and  C_17 
REMARK    7  A    between atoms: N_20  and  C_21 
REMARK    8  A    between atoms: C_25  and  N_26 
REMARK    9  A    between atoms: C_27  and  C_28 
REMARK   10  A    between atoms: C_28  and  N_29 
ROOT
HETATM    1  C   UNL     1      44.513  -9.020   9.172  1.00  0.00     0.170 C 
HETATM    2  N   UNL     1      45.069  -7.919   8.594  1.00  0.00    -0.152 NA
HETATM    3  N   UNL     1      44.150  -6.969   8.554  1.00  0.00     0.012 NA
HETATM    4  N   UNL     1      42.991  -7.441   9.084  1.00  0.00    -0.215 N 
HETATM    5  C   UNL     1      43.231  -8.708   9.612  1.00  0.00     0.096 C 
ENDROOT
BRANCH   1   6
HETATM    6  C   UNL     1      45.246 -10.256   9.409  1.00  0.00     0.293 C 
HETATM    7  N   UNL     1      45.648 -10.968   8.292  1.00  0.00    -0.242 N 
HETATM    8  H   UNL     1      46.122 -11.846   8.471  1.00  0.00     0.192 HD
HETATM    9  O   UNL     1      45.377 -10.726  10.536  1.00  0.00    -0.264 OA
BRANCH   7  10
HETATM   10  N   UNL     1      45.590 -10.444   7.037  1.00  0.00    -0.184 NA
HETATM   11  C   UNL     1      44.791 -10.964   6.149  1.00  0.00     0.150 C 
BRANCH  11  12
HETATM   12  C   UNL     1      43.826 -12.067   6.285  1.00  0.00    -0.017 A 
HETATM   13  C   UNL     1      42.538 -11.837   5.798  1.00  0.00     0.016 A 
HETATM   14  C   UNL     1      41.583 -12.851   5.875  1.00  0.00     0.037 A 
HETATM   15  C   UNL     1      41.914 -14.097   6.409  1.00  0.00     0.069 A 
HETATM   16  C   UNL     1      43.204 -14.323   6.894  1.00  0.00     0.037 A 
HETATM   17  C   UNL     1      44.170 -13.311   6.819  1.00  0.00     0.016 A 
BRANCH  15  18
HETATM   18  O   UNL     1      40.892 -15.001   6.415  1.00  0.00    -0.347 OA
BRANCH  18  19
HETATM   19  C   UNL     1      41.233 -16.367   6.171  1.00  0.00     0.214 C 
BRANCH  19  20
HETATM   20  C   UNL     1      41.629 -16.496   4.721  1.00  0.00    -0.033 A 
HETATM   21  C   UNL     1      40.744 -16.075   3.716  1.00  0.00     0.033 A 
HETATM   22  C   UNL     1      41.105 -16.169   2.372  1.00  0.00     0.034 A 
HETATM   23  C   UNL     1      42.350 -16.677   2.012  1.00  0.00     0.024 A 
HETATM   24 CL   UNL     1      40.006 -15.648   1.156  1.00  0.00    -0.084 Cl
HETATM   25  C   UNL     1      43.238 -17.098   3.003  1.00  0.00     0.002 A 
HETATM   26  C   UNL     1      42.880 -17.009   4.351  1.00  0.00     0.009 A 
ENDBRANCH  19  20
ENDBRANCH  18  19
ENDBRANCH  15  18
ENDBRANCH  11  12
ENDBRANCH   7  10
ENDBRANCH   1   6
BRANCH   5  27
HETATM   27  C   UNL     1      42.309  -9.524  10.428  1.00  0.00     0.296 C 
BRANCH  27  28
HETATM   28  N   UNL     1      42.015  -8.990  11.825  1.00  0.00    -0.066 N 
HETATM   29  H   UNL     1      41.424  -8.165  11.657  1.00  0.00     0.280 HD
HETATM   30  C   UNL     1      41.188  -9.922  12.688  1.00  0.00     0.235 C 
HETATM   31  C   UNL     1      40.766  -9.202  13.961  1.00  0.00     0.028 C 
HETATM   32  C   UNL     1      41.965  -8.641  14.715  1.00  0.00     0.003 C 
HETATM   33  C   UNL     1      42.807  -7.746  13.814  1.00  0.00     0.028 C 
HETATM   34  C   UNL     1      43.235  -8.468  12.544  1.00  0.00     0.235 C 
ENDBRANCH  27  28
ENDBRANCH   5  27
BRANCH   4  35
HETATM   35  C   UNL     1      41.803  -6.672   9.088  1.00  0.00     0.225 A 
HETATM   36  N   UNL     1      41.708  -5.577   9.845  1.00  0.00    -0.081 NA
HETATM   37  O   UNL     1      40.416  -5.110   9.602  1.00  0.00    -0.103 OA
HETATM   38  N   UNL     1      39.765  -5.905   8.670  1.00  0.00    -0.083 NA
HETATM   39  C   UNL     1      40.620  -6.878   8.358  1.00  0.00     0.201 A 
BRANCH  39  40
HETATM   40  N   UNL     1      40.371  -7.849   7.465  1.00  0.00    -0.379 N 
HETATM   41  H   UNL     1      40.422  -7.646   6.470  1.00  0.00     0.158 HD
HETATM   42  H   UNL     1      39.828  -8.682   7.693  1.00  0.00     0.158 HD
ENDBRANCH  39  40
ENDBRANCH   4  35
TORSDOF 10
ENDMDL
