MODEL 1
REMARK VINA RESULT:      -8.4      0.000      0.000
REMARK  6 active torsions:
REMARK  status: ('A' for Active; 'I' for Inactive)
REMARK    1  A    between atoms: C_2  and  C_3 
REMARK       I    between atoms: C_3  and  N_4 
REMARK    2  A    between atoms: N_4  and  C_5 
REMARK    3  A    between atoms: C_8  and  N_9 
REMARK       I    between atoms: N_9  and  C_10 
REMARK    4  A    between atoms: C_10  and  C_11 
REMARK    5  A    between atoms: C_16  and  C_17 
REMARK    6  A    between atoms: C_23  and  C_24 
ROOT
HETATM    1  C   UNL     1      43.574 -10.750   8.143  1.00  0.00     0.148 A 
HETATM    2  N   UNL     1      42.431 -10.041   7.992  1.00  0.00    -0.165 NA
HETATM    3  N   UNL     1      42.450  -9.198   9.042  1.00  0.00    -0.240 N 
HETATM    4  C   UNL     1      43.612  -9.231   9.760  1.00  0.00     0.123 A 
HETATM    5  N   UNL     1      43.853  -8.366  10.765  1.00  0.00    -0.364 N 
HETATM    6  C   UNL     1      42.828  -7.457  11.279  1.00  0.00     0.143 C 
HETATM    7  C   UNL     1      41.804  -7.122  10.178  1.00  0.00     0.068 C 
HETATM    8  C   UNL     1      41.328  -8.334   9.358  1.00  0.00     0.221 C 
HETATM    9  C   UNL     1      44.348 -10.256   9.230  1.00  0.00     0.089 A 
HETATM   10  H   UNL     1      44.660  -8.490  11.375  1.00  0.00     0.162 HD
ENDROOT
BRANCH   1  11
HETATM   11  C   UNL     1      43.931 -11.876   7.261  1.00  0.00     0.276 C 
HETATM   12  N   UNL     1      42.824 -12.606   6.870  1.00  0.00    -0.322 N 
HETATM   13  H   UNL     1      41.942 -12.211   7.184  1.00  0.00     0.169 HD
HETATM   14  O   UNL     1      45.092 -12.072   6.922  1.00  0.00    -0.266 OA
BRANCH  12  15
HETATM   15  C   UNL     1      42.797 -13.773   6.089  1.00  0.00     0.035 A 
HETATM   16  C   UNL     1      42.699 -15.057   6.623  1.00  0.00     0.032 A 
HETATM   17  C   UNL     1      42.647 -16.180   5.786  1.00  0.00     0.032 A 
HETATM   18  C   UNL     1      42.712 -16.038   4.400  1.00  0.00     0.034 A 
HETATM   19  C   UNL     1      42.825 -14.750   3.865  1.00  0.00     0.032 A 
HETATM   20  C   UNL     1      42.848 -13.626   4.700  1.00  0.00     0.032 A 
BRANCH  18  21
HETATM   21  N   UNL     1      42.685 -17.119   3.494  1.00  0.00    -0.327 N 
HETATM   22  C   UNL     1      43.571 -18.180   3.428  1.00  0.00     0.221 C 
HETATM   23  O   UNL     1      44.525 -18.381   4.174  1.00  0.00    -0.273 OA
HETATM   24  H   UNL     1      41.908 -17.129   2.849  1.00  0.00     0.169 HD
BRANCH  22  25
HETATM   25  C   UNL     1      43.298 -19.126   2.271  1.00  0.00     0.098 C 
HETATM   26  C   UNL     1      43.659 -20.571   2.563  1.00  0.00     0.014 C 
ENDBRANCH  22  25
ENDBRANCH  18  21
ENDBRANCH  12  15
ENDBRANCH   1  11
BRANCH   8  27
HETATM   27  C   UNL     1      40.238  -9.142  10.028  1.00  0.00     0.409 C 
HETATM   28  F   UNL     1      40.700 -10.080  10.877  1.00  0.00    -0.169 F 
HETATM   29  F   UNL     1      39.417  -8.327  10.738  1.00  0.00    -0.169 F 
HETATM   30  F   UNL     1      39.452  -9.771   9.123  1.00  0.00    -0.169 F 
ENDBRANCH   8  27
BRANCH   6  31
HETATM   31  C   UNL     1      42.199  -7.890  12.564  1.00  0.00     0.075 A 
HETATM   32  O   UNL     1      41.184  -7.108  13.038  1.00  0.00    -0.325 OA
HETATM   33  C   UNL     1      40.784  -7.646  14.219  1.00  0.00     0.142 A 
HETATM   34  C   UNL     1      41.529  -8.762  14.517  1.00  0.00     0.027 A 
HETATM   35  C   UNL     1      42.448  -8.918  13.452  1.00  0.00     0.037 A 
ENDBRANCH   6  31
TORSDOF 6
ENDMDL
MODEL 2
REMARK VINA RESULT:      -8.3      3.769     10.338
REMARK  6 active torsions:
REMARK  status: ('A' for Active; 'I' for Inactive)
REMARK    1  A    between atoms: C_2  and  C_3 
REMARK       I    between atoms: C_3  and  N_4 
REMARK    2  A    between atoms: N_4  and  C_5 
REMARK    3  A    between atoms: C_8  and  N_9 
REMARK       I    between atoms: N_9  and  C_10 
REMARK    4  A    between atoms: C_10  and  C_11 
REMARK    5  A    between atoms: C_16  and  C_17 
REMARK    6  A    between atoms: C_23  and  C_24 
ROOT
HETATM    1  C   UNL     1      43.460 -10.521   8.763  1.00  0.00     0.148 A 
HETATM    2  N   UNL     1      44.180 -11.459   8.104  1.00  0.00    -0.165 NA
HETATM    3  N   UNL     1      43.719 -11.373   6.842  1.00  0.00    -0.240 N 
HETATM    4  C   UNL     1      42.858 -10.332   6.635  1.00  0.00     0.123 A 
HETATM    5  N   UNL     1      42.398 -10.021   5.407  1.00  0.00    -0.364 N 
HETATM    6  C   UNL     1      42.637 -10.875   4.242  1.00  0.00     0.143 C 
HETATM    7  C   UNL     1      43.942 -11.673   4.418  1.00  0.00     0.068 C 
HETATM    8  C   UNL     1      44.121 -12.307   5.809  1.00  0.00     0.221 C 
HETATM    9  C   UNL     1      42.634  -9.783   7.869  1.00  0.00     0.089 A 
HETATM   10  H   UNL     1      41.656  -9.333   5.289  1.00  0.00     0.162 HD
ENDROOT
BRANCH   1  11
HETATM   11  C   UNL     1      43.560 -10.323  10.220  1.00  0.00     0.276 C 
HETATM   12  N   UNL     1      42.480  -9.628  10.730  1.00  0.00    -0.322 N 
HETATM   13  H   UNL     1      41.757  -9.434  10.042  1.00  0.00     0.169 HD
HETATM   14  O   UNL     1      44.504 -10.775  10.857  1.00  0.00    -0.266 OA
BRANCH  12  15
HETATM   15  C   UNL     1      42.275  -9.209  12.055  1.00  0.00     0.035 A 
HETATM   16  C   UNL     1      43.113  -8.316  12.719  1.00  0.00     0.032 A 
HETATM   17  C   UNL     1      42.837  -7.914  14.033  1.00  0.00     0.032 A 
HETATM   18  C   UNL     1      41.727  -8.417  14.712  1.00  0.00     0.034 A 
HETATM   19  C   UNL     1      40.894  -9.325  14.050  1.00  0.00     0.032 A 
HETATM   20  C   UNL     1      41.154  -9.704  12.727  1.00  0.00     0.032 A 
BRANCH  18  21
HETATM   21  N   UNL     1      41.394  -8.078  16.040  1.00  0.00    -0.327 N 
HETATM   22  C   UNL     1      40.583  -7.039  16.461  1.00  0.00     0.221 C 
HETATM   23  O   UNL     1      39.983  -6.244  15.742  1.00  0.00    -0.273 OA
HETATM   24  H   UNL     1      41.765  -8.689  16.754  1.00  0.00     0.169 HD
BRANCH  22  25
HETATM   25  C   UNL     1      40.505  -6.905  17.973  1.00  0.00     0.098 C 
HETATM   26  C   UNL     1      39.876  -8.101  18.662  1.00  0.00     0.014 C 
ENDBRANCH  22  25
ENDBRANCH  18  21
ENDBRANCH  12  15
ENDBRANCH   1  11
BRANCH   8  27
HETATM   27  C   UNL     1      43.380 -13.615   5.989  1.00  0.00     0.409 C 
HETATM   28  F   UNL     1      42.139 -13.471   6.492  1.00  0.00    -0.169 F 
HETATM   29  F   UNL     1      43.260 -14.256   4.798  1.00  0.00    -0.169 F 
HETATM   30  F   UNL     1      44.050 -14.462   6.805  1.00  0.00    -0.169 F 
ENDBRANCH   8  27
BRANCH   6  31
HETATM   31  C   UNL     1      41.472 -11.721   3.840  1.00  0.00     0.075 A 
HETATM   32  O   UNL     1      40.387 -11.694   4.670  1.00  0.00    -0.325 OA
HETATM   33  C   UNL     1      39.468 -12.550   4.152  1.00  0.00     0.142 A 
HETATM   34  C   UNL     1      39.946 -13.132   3.002  1.00  0.00     0.027 A 
HETATM   35  C   UNL     1      41.242 -12.602   2.802  1.00  0.00     0.037 A 
ENDBRANCH   6  31
TORSDOF 6
ENDMDL
MODEL 3
REMARK VINA RESULT:      -8.0      3.575      4.239
REMARK  6 active torsions:
REMARK  status: ('A' for Active; 'I' for Inactive)
REMARK    1  A    between atoms: C_2  and  C_3 
REMARK       I    between atoms: C_3  and  N_4 
REMARK    2  A    between atoms: N_4  and  C_5 
REMARK    3  A    between atoms: C_8  and  N_9 
REMARK       I    between atoms: N_9  and  C_10 
REMARK    4  A    between atoms: C_10  and  C_11 
REMARK    5  A    between atoms: C_16  and  C_17 
REMARK    6  A    between atoms: C_23  and  C_24 
ROOT
HETATM    1  C   UNL     1      43.271 -11.848   6.400  1.00  0.00     0.148 A 
HETATM    2  N   UNL     1      42.860 -10.559   6.345  1.00  0.00    -0.165 NA
HETATM    3  N   UNL     1      43.371 -10.024   7.470  1.00  0.00    -0.240 N 
HETATM    4  C   UNL     1      44.206 -10.862   8.154  1.00  0.00     0.123 A 
HETATM    5  N   UNL     1      44.903 -10.449   9.232  1.00  0.00    -0.364 N 
HETATM    6  C   UNL     1      44.681  -9.143   9.855  1.00  0.00     0.143 C 
HETATM    7  C   UNL     1      44.163  -8.132   8.815  1.00  0.00     0.068 C 
HETATM    8  C   UNL     1      43.056  -8.673   7.893  1.00  0.00     0.221 C 
HETATM    9  C   UNL     1      44.132 -12.068   7.511  1.00  0.00     0.089 A 
HETATM   10  H   UNL     1      45.412 -11.117   9.809  1.00  0.00     0.162 HD
ENDROOT
BRANCH   1  11
HETATM   11  C   UNL     1      42.858 -12.855   5.406  1.00  0.00     0.276 C 
HETATM   12  N   UNL     1      42.284 -12.282   4.288  1.00  0.00    -0.322 N 
HETATM   13  H   UNL     1      42.308 -11.266   4.291  1.00  0.00     0.169 HD
HETATM   14  O   UNL     1      43.058 -14.050   5.594  1.00  0.00    -0.266 OA
BRANCH  12  15
HETATM   15  C   UNL     1      41.723 -12.937   3.178  1.00  0.00     0.035 A 
HETATM   16  C   UNL     1      42.442 -13.788   2.341  1.00  0.00     0.032 A 
HETATM   17  C   UNL     1      41.815 -14.434   1.267  1.00  0.00     0.032 A 
HETATM   18  C   UNL     1      40.463 -14.223   1.000  1.00  0.00     0.034 A 
HETATM   19  C   UNL     1      39.745 -13.357   1.832  1.00  0.00     0.032 A 
HETATM   20  C   UNL     1      40.364 -12.733   2.923  1.00  0.00     0.032 A 
BRANCH  18  21
HETATM   21  N   UNL     1      39.767 -14.820  -0.071  1.00  0.00    -0.327 N 
HETATM   22  C   UNL     1      39.649 -14.342  -1.365  1.00  0.00     0.221 C 
HETATM   23  O   UNL     1      40.160 -13.321  -1.814  1.00  0.00    -0.273 OA
HETATM   24  H   UNL     1      39.341 -15.714   0.128  1.00  0.00     0.169 HD
BRANCH  22  25
HETATM   25  C   UNL     1      38.752 -15.195  -2.247  1.00  0.00     0.098 C 
HETATM   26  C   UNL     1      38.248 -14.477  -3.485  1.00  0.00     0.014 C 
ENDBRANCH  22  25
ENDBRANCH  18  21
ENDBRANCH  12  15
ENDBRANCH   1  11
BRANCH   8  27
HETATM   27  C   UNL     1      41.673  -8.642   8.508  1.00  0.00     0.409 C 
HETATM   28  F   UNL     1      40.682  -8.487   7.610  1.00  0.00    -0.169 F 
HETATM   29  F   UNL     1      41.430  -9.796   9.180  1.00  0.00    -0.169 F 
HETATM   30  F   UNL     1      41.552  -7.647   9.417  1.00  0.00    -0.169 F 
ENDBRANCH   8  27
BRANCH   6  31
HETATM   31  C   UNL     1      43.865  -9.180  11.107  1.00  0.00     0.075 A 
HETATM   32  O   UNL     1      43.330 -10.390  11.448  1.00  0.00    -0.325 OA
HETATM   33  C   UNL     1      42.602 -10.199  12.578  1.00  0.00     0.142 A 
HETATM   34  C   UNL     1      42.656  -8.882  12.970  1.00  0.00     0.027 A 
HETATM   35  C   UNL     1      43.466  -8.221  12.018  1.00  0.00     0.037 A 
ENDBRANCH   6  31
TORSDOF 6
ENDMDL
MODEL 4
REMARK VINA RESULT:      -8.0      3.112     10.187
REMARK  6 active torsions:
REMARK  status: ('A' for Active; 'I' for Inactive)
REMARK    1  A    between atoms: C_2  and  C_3 
REMARK       I    between atoms: C_3  and  N_4 
REMARK    2  A    between atoms: N_4  and  C_5 
REMARK    3  A    between atoms: C_8  and  N_9 
REMARK       I    between atoms: N_9  and  C_10 
REMARK    4  A    between atoms: C_10  and  C_11 
REMARK    5  A    between atoms: C_16  and  C_17 
REMARK    6  A    between atoms: C_23  and  C_24 
ROOT
HETATM    1  C   UNL     1      43.992 -11.722   6.909  1.00  0.00     0.148 A 
HETATM    2  N   UNL     1      43.571 -13.006   6.831  1.00  0.00    -0.165 NA
HETATM    3  N   UNL     1      43.283 -13.158   5.525  1.00  0.00    -0.240 N 
HETATM    4  C   UNL     1      43.642 -12.091   4.750  1.00  0.00     0.123 A 
HETATM    5  N   UNL     1      43.543 -12.121   3.405  1.00  0.00    -0.364 N 
HETATM    6  C   UNL     1      42.882 -13.216   2.694  1.00  0.00     0.143 C 
HETATM    7  C   UNL     1      42.971 -14.520   3.509  1.00  0.00     0.068 C 
HETATM    8  C   UNL     1      42.658 -14.360   5.007  1.00  0.00     0.221 C 
HETATM    9  C   UNL     1      44.066 -11.124   5.621  1.00  0.00     0.089 A 
HETATM   10  H   UNL     1      43.684 -11.276   2.855  1.00  0.00     0.162 HD
ENDROOT
BRANCH   1  11
HETATM   11  C   UNL     1      44.327 -11.074   8.190  1.00  0.00     0.276 C 
HETATM   12  N   UNL     1      43.220 -10.511   8.798  1.00  0.00    -0.322 N 
HETATM   13  H   UNL     1      42.347 -10.698   8.311  1.00  0.00     0.169 HD
HETATM   14  O   UNL     1      45.470 -11.093   8.630  1.00  0.00    -0.266 OA
BRANCH  12  15
HETATM   15  C   UNL     1      43.179  -9.766   9.987  1.00  0.00     0.035 A 
HETATM   16  C   UNL     1      43.108  -8.374  10.023  1.00  0.00     0.032 A 
HETATM   17  C   UNL     1      43.039  -7.690  11.245  1.00  0.00     0.032 A 
HETATM   18  C   UNL     1      43.063  -8.388  12.452  1.00  0.00     0.034 A 
HETATM   19  C   UNL     1      43.148  -9.784  12.416  1.00  0.00     0.032 A 
HETATM   20  C   UNL     1      43.188 -10.468  11.195  1.00  0.00     0.032 A 
BRANCH  18  21
HETATM   21  N   UNL     1      43.017  -7.772  13.720  1.00  0.00    -0.327 N 
HETATM   22  C   UNL     1      41.912  -7.617  14.538  1.00  0.00     0.221 C 
HETATM   23  O   UNL     1      40.775  -8.021  14.312  1.00  0.00    -0.273 OA
HETATM   24  H   UNL     1      43.903  -7.441  14.078  1.00  0.00     0.169 HD
BRANCH  22  25
HETATM   25  C   UNL     1      42.201  -6.826  15.804  1.00  0.00     0.098 C 
HETATM   26  C   UNL     1      41.508  -7.372  17.039  1.00  0.00     0.014 C 
ENDBRANCH  22  25
ENDBRANCH  18  21
ENDBRANCH  12  15
ENDBRANCH   1  11
BRANCH   8  27
HETATM   27  C   UNL     1      41.179 -14.342   5.329  1.00  0.00     0.409 C 
HETATM   28  F   UNL     1      40.412 -14.931   4.392  1.00  0.00    -0.169 F 
HETATM   29  F   UNL     1      40.944 -14.982   6.502  1.00  0.00    -0.169 F 
HETATM   30  F   UNL     1      40.717 -13.079   5.491  1.00  0.00    -0.169 F 
ENDBRANCH   8  27
BRANCH   6  31
HETATM   31  C   UNL     1      41.499 -12.905   2.218  1.00  0.00     0.075 A 
HETATM   32  O   UNL     1      40.995 -13.717   1.242  1.00  0.00    -0.325 OA
HETATM   33  C   UNL     1      39.762 -13.244   0.929  1.00  0.00     0.142 A 
HETATM   34  C   UNL     1      39.463 -12.136   1.685  1.00  0.00     0.027 A 
HETATM   35  C   UNL     1      40.586 -11.911   2.515  1.00  0.00     0.037 A 
ENDBRANCH   6  31
TORSDOF 6
ENDMDL
MODEL 5
REMARK VINA RESULT:      -7.9      1.614      1.904
REMARK  6 active torsions:
REMARK  status: ('A' for Active; 'I' for Inactive)
REMARK    1  A    between atoms: C_2  and  C_3 
REMARK       I    between atoms: C_3  and  N_4 
REMARK    2  A    between atoms: N_4  and  C_5 
REMARK    3  A    between atoms: C_8  and  N_9 
REMARK       I    between atoms: N_9  and  C_10 
REMARK    4  A    between atoms: C_10  and  C_11 
REMARK    5  A    between atoms: C_16  and  C_17 
REMARK    6  A    between atoms: C_23  and  C_24 
ROOT
HETATM    1  C   UNL     1      41.449 -10.312   6.830  1.00  0.00     0.148 A 
HETATM    2  N   UNL     1      40.465  -9.470   7.226  1.00  0.00    -0.165 NA
HETATM    3  N   UNL     1      41.100  -8.624   8.059  1.00  0.00    -0.240 N 
HETATM    4  C   UNL     1      42.456  -8.791   8.094  1.00  0.00     0.123 A 
HETATM    5  N   UNL     1      43.261  -7.951   8.775  1.00  0.00    -0.364 N 
HETATM    6  C   UNL     1      42.736  -6.917   9.669  1.00  0.00     0.143 C 
HETATM    7  C   UNL     1      41.334  -6.471   9.213  1.00  0.00     0.068 C 
HETATM    8  C   UNL     1      40.388  -7.625   8.834  1.00  0.00     0.221 C 
HETATM    9  C   UNL     1      42.713  -9.905   7.341  1.00  0.00     0.089 A 
HETATM   10  H   UNL     1      44.248  -8.166   8.902  1.00  0.00     0.162 HD
ENDROOT
BRANCH   1  11
HETATM   11  C   UNL     1      41.192 -11.483   5.973  1.00  0.00     0.276 C 
HETATM   12  N   UNL     1      42.101 -12.501   6.191  1.00  0.00    -0.322 N 
HETATM   13  H   UNL     1      42.748 -12.316   6.953  1.00  0.00     0.169 HD
HETATM   14  O   UNL     1      40.244 -11.505   5.197  1.00  0.00    -0.266 OA
BRANCH  12  15
HETATM   15  C   UNL     1      42.197 -13.728   5.513  1.00  0.00     0.035 A 
HETATM   16  C   UNL     1      41.726 -14.933   6.030  1.00  0.00     0.032 A 
HETATM   17  C   UNL     1      41.825 -16.119   5.290  1.00  0.00     0.032 A 
HETATM   18  C   UNL     1      42.417 -16.122   4.027  1.00  0.00     0.034 A 
HETATM   19  C   UNL     1      42.902 -14.914   3.514  1.00  0.00     0.032 A 
HETATM   20  C   UNL     1      42.777 -13.724   4.242  1.00  0.00     0.032 A 
BRANCH  18  21
HETATM   21  N   UNL     1      42.571 -17.275   3.230  1.00  0.00    -0.327 N 
HETATM   22  C   UNL     1      43.532 -18.263   3.362  1.00  0.00     0.221 C 
HETATM   23  O   UNL     1      44.406 -18.320   4.222  1.00  0.00    -0.273 OA
HETATM   24  H   UNL     1      41.876 -17.404   2.509  1.00  0.00     0.169 HD
BRANCH  22  25
HETATM   25  C   UNL     1      43.462 -19.325   2.277  1.00  0.00     0.098 C 
HETATM   26  C   UNL     1      43.746 -20.730   2.776  1.00  0.00     0.014 C 
ENDBRANCH  22  25
ENDBRANCH  18  21
ENDBRANCH  12  15
ENDBRANCH   1  11
BRANCH   8  27
HETATM   27  C   UNL     1      39.717  -8.285  10.019  1.00  0.00     0.409 C 
HETATM   28  F   UNL     1      38.480  -8.747   9.755  1.00  0.00    -0.169 F 
HETATM   29  F   UNL     1      40.455  -9.338  10.453  1.00  0.00    -0.169 F 
HETATM   30  F   UNL     1      39.614  -7.439  11.071  1.00  0.00    -0.169 F 
ENDBRANCH   8  27
BRANCH   6  31
HETATM   31  C   UNL     1      42.809  -7.255  11.123  1.00  0.00     0.075 A 
HETATM   32  O   UNL     1      42.299  -6.329  11.988  1.00  0.00    -0.325 OA
HETATM   33  C   UNL     1      42.499  -6.805  13.244  1.00  0.00     0.142 A 
HETATM   34  C   UNL     1      43.134  -8.023  13.203  1.00  0.00     0.027 A 
HETATM   35  C   UNL     1      43.341  -8.313  11.834  1.00  0.00     0.037 A 
ENDBRANCH   6  31
TORSDOF 6
ENDMDL
MODEL 6
REMARK VINA RESULT:      -7.7      3.799     10.689
REMARK  6 active torsions:
REMARK  status: ('A' for Active; 'I' for Inactive)
REMARK    1  A    between atoms: C_2  and  C_3 
REMARK       I    between atoms: C_3  and  N_4 
REMARK    2  A    between atoms: N_4  and  C_5 
REMARK    3  A    between atoms: C_8  and  N_9 
REMARK       I    between atoms: N_9  and  C_10 
REMARK    4  A    between atoms: C_10  and  C_11 
REMARK    5  A    between atoms: C_16  and  C_17 
REMARK    6  A    between atoms: C_23  and  C_24 
ROOT
HETATM    1  C   UNL     1      40.586 -12.025   5.650  1.00  0.00     0.148 A 
HETATM    2  N   UNL     1      41.037 -11.935   4.376  1.00  0.00    -0.165 NA
HETATM    3  N   UNL     1      41.021 -13.213   3.952  1.00  0.00    -0.240 N 
HETATM    4  C   UNL     1      40.442 -14.083   4.832  1.00  0.00     0.123 A 
HETATM    5  N   UNL     1      40.227 -15.377   4.518  1.00  0.00    -0.364 N 
HETATM    6  C   UNL     1      40.756 -15.984   3.296  1.00  0.00     0.143 C 
HETATM    7  C   UNL     1      40.920 -14.921   2.194  1.00  0.00     0.068 C 
HETATM    8  C   UNL     1      41.565 -13.605   2.666  1.00  0.00     0.221 C 
HETATM    9  C   UNL     1      40.186 -13.355   5.962  1.00  0.00     0.089 A 
HETATM   10  H   UNL     1      39.922 -16.040   5.229  1.00  0.00     0.162 HD
ENDROOT
BRANCH   1  11
HETATM   11  C   UNL     1      40.528 -10.863   6.554  1.00  0.00     0.276 C 
HETATM   12  N   UNL     1      41.757 -10.248   6.696  1.00  0.00    -0.322 N 
HETATM   13  H   UNL     1      42.482 -10.640   6.101  1.00  0.00     0.169 HD
HETATM   14  O   UNL     1      39.472 -10.512   7.067  1.00  0.00    -0.266 OA
BRANCH  12  15
HETATM   15  C   UNL     1      42.083  -9.159   7.522  1.00  0.00     0.035 A 
HETATM   16  C   UNL     1      42.641  -9.295   8.791  1.00  0.00     0.032 A 
HETATM   17  C   UNL     1      42.971  -8.166   9.554  1.00  0.00     0.032 A 
HETATM   18  C   UNL     1      42.728  -6.882   9.067  1.00  0.00     0.034 A 
HETATM   19  C   UNL     1      42.154  -6.747   7.798  1.00  0.00     0.032 A 
HETATM   20  C   UNL     1      41.851  -7.874   7.024  1.00  0.00     0.032 A 
BRANCH  18  21
HETATM   21  N   UNL     1      43.014  -5.700   9.781  1.00  0.00    -0.327 N 
HETATM   22  C   UNL     1      42.296  -5.164  10.836  1.00  0.00     0.221 C 
HETATM   23  O   UNL     1      41.294  -5.646  11.356  1.00  0.00    -0.273 OA
HETATM   24  H   UNL     1      43.858  -5.218   9.508  1.00  0.00     0.169 HD
BRANCH  22  25
HETATM   25  C   UNL     1      42.836  -3.828  11.319  1.00  0.00     0.098 C 
HETATM   26  C   UNL     1      42.542  -3.540  12.780  1.00  0.00     0.014 C 
ENDBRANCH  22  25
ENDBRANCH  18  21
ENDBRANCH  12  15
ENDBRANCH   1  11
BRANCH   8  27
HETATM   27  C   UNL     1      43.075 -13.654   2.747  1.00  0.00     0.409 C 
HETATM   28  F   UNL     1      43.542 -14.163   3.904  1.00  0.00    -0.169 F 
HETATM   29  F   UNL     1      43.577 -14.415   1.742  1.00  0.00    -0.169 F 
HETATM   30  F   UNL     1      43.625 -12.426   2.598  1.00  0.00    -0.169 F 
ENDBRANCH   8  27
BRANCH   6  31
HETATM   31  C   UNL     1      41.974 -16.827   3.496  1.00  0.00     0.075 A 
HETATM   32  O   UNL     1      42.445 -16.921   4.775  1.00  0.00    -0.325 OA
HETATM   33  C   UNL     1      43.564 -17.689   4.732  1.00  0.00     0.142 A 
HETATM   34  C   UNL     1      43.825 -18.090   3.444  1.00  0.00     0.027 A 
HETATM   35  C   UNL     1      42.802 -17.530   2.642  1.00  0.00     0.037 A 
ENDBRANCH   6  31
TORSDOF 6
ENDMDL
MODEL 7
REMARK VINA RESULT:      -7.6      3.435     10.371
REMARK  6 active torsions:
REMARK  status: ('A' for Active; 'I' for Inactive)
REMARK    1  A    between atoms: C_2  and  C_3 
REMARK       I    between atoms: C_3  and  N_4 
REMARK    2  A    between atoms: N_4  and  C_5 
REMARK    3  A    between atoms: C_8  and  N_9 
REMARK       I    between atoms: N_9  and  C_10 
REMARK    4  A    between atoms: C_10  and  C_11 
REMARK    5  A    between atoms: C_16  and  C_17 
REMARK    6  A    between atoms: C_23  and  C_24 
ROOT
HETATM    1  C   UNL     1      40.930 -10.614   6.019  1.00  0.00     0.148 A 
HETATM    2  N   UNL     1      41.590 -10.540   4.839  1.00  0.00    -0.165 NA
HETATM    3  N   UNL     1      41.289 -11.710   4.243  1.00  0.00    -0.240 N 
HETATM    4  C   UNL     1      40.356 -12.450   4.913  1.00  0.00     0.123 A 
HETATM    5  N   UNL     1      39.844 -13.586   4.398  1.00  0.00    -0.364 N 
HETATM    6  C   UNL     1      40.375 -14.203   3.182  1.00  0.00     0.143 C 
HETATM    7  C   UNL     1      41.006 -13.137   2.268  1.00  0.00     0.068 C 
HETATM    8  C   UNL     1      41.905 -12.121   2.996  1.00  0.00     0.221 C 
HETATM    9  C   UNL     1      40.131 -11.789   6.090  1.00  0.00     0.089 A 
HETATM   10  H   UNL     1      39.255 -14.194   4.965  1.00  0.00     0.162 HD
ENDROOT
BRANCH   1  11
HETATM   11  C   UNL     1      41.050  -9.578   7.060  1.00  0.00     0.276 C 
HETATM   12  N   UNL     1      41.675 -10.050   8.199  1.00  0.00    -0.322 N 
HETATM   13  H   UNL     1      42.020 -11.002   8.111  1.00  0.00     0.169 HD
HETATM   14  O   UNL     1      40.650  -8.436   6.867  1.00  0.00    -0.266 OA
BRANCH  12  15
HETATM   15  C   UNL     1      41.901  -9.363   9.403  1.00  0.00     0.035 A 
HETATM   16  C   UNL     1      43.132  -8.818   9.761  1.00  0.00     0.032 A 
HETATM   17  C   UNL     1      43.284  -8.118  10.966  1.00  0.00     0.032 A 
HETATM   18  C   UNL     1      42.209  -7.969  11.842  1.00  0.00     0.034 A 
HETATM   19  C   UNL     1      40.976  -8.528  11.489  1.00  0.00     0.032 A 
HETATM   20  C   UNL     1      40.818  -9.203  10.272  1.00  0.00     0.032 A 
BRANCH  18  21
HETATM   21  N   UNL     1      42.288  -7.296  13.079  1.00  0.00    -0.327 N 
HETATM   22  C   UNL     1      42.278  -7.860  14.343  1.00  0.00     0.221 C 
HETATM   23  O   UNL     1      42.229  -9.058  14.606  1.00  0.00    -0.273 OA
HETATM   24  H   UNL     1      42.399  -6.293  13.025  1.00  0.00     0.169 HD
BRANCH  22  25
HETATM   25  C   UNL     1      42.290  -6.835  15.464  1.00  0.00     0.098 C 
HETATM   26  C   UNL     1      40.909  -6.341  15.858  1.00  0.00     0.014 C 
ENDBRANCH  22  25
ENDBRANCH  18  21
ENDBRANCH  12  15
ENDBRANCH   1  11
BRANCH   8  27
HETATM   27  C   UNL     1      43.308 -12.621   3.264  1.00  0.00     0.409 C 
HETATM   28  F   UNL     1      43.745 -13.523   2.364  1.00  0.00    -0.169 F 
HETATM   29  F   UNL     1      44.187 -11.587   3.256  1.00  0.00    -0.169 F 
HETATM   30  F   UNL     1      43.411 -13.192   4.487  1.00  0.00    -0.169 F 
ENDBRANCH   8  27
BRANCH   6  31
HETATM   31  C   UNL     1      41.261 -15.384   3.418  1.00  0.00     0.075 A 
HETATM   32  O   UNL     1      41.559 -15.668   4.721  1.00  0.00    -0.325 OA
HETATM   33  C   UNL     1      42.396 -16.737   4.713  1.00  0.00     0.142 A 
HETATM   34  C   UNL     1      42.648 -17.145   3.425  1.00  0.00     0.027 A 
HETATM   35  C   UNL     1      41.920 -16.268   2.586  1.00  0.00     0.037 A 
ENDBRANCH   6  31
TORSDOF 6
ENDMDL
MODEL 8
REMARK VINA RESULT:      -7.5      8.105     10.773
REMARK  6 active torsions:
REMARK  status: ('A' for Active; 'I' for Inactive)
REMARK    1  A    between atoms: C_2  and  C_3 
REMARK       I    between atoms: C_3  and  N_4 
REMARK    2  A    between atoms: N_4  and  C_5 
REMARK    3  A    between atoms: C_8  and  N_9 
REMARK       I    between atoms: N_9  and  C_10 
REMARK    4  A    between atoms: C_10  and  C_11 
REMARK    5  A    between atoms: C_16  and  C_17 
REMARK    6  A    between atoms: C_23  and  C_24 
ROOT
HETATM    1  C   UNL     1      39.858 -13.732   1.044  1.00  0.00     0.148 A 
HETATM    2  N   UNL     1      40.572 -14.871   1.207  1.00  0.00    -0.165 NA
HETATM    3  N   UNL     1      40.777 -14.920   2.537  1.00  0.00    -0.240 N 
HETATM    4  C   UNL     1      40.105 -13.958   3.238  1.00  0.00     0.123 A 
HETATM    5  N   UNL     1      40.094 -13.935   4.586  1.00  0.00    -0.364 N 
HETATM    6  C   UNL     1      40.940 -14.818   5.391  1.00  0.00     0.143 C 
HETATM    7  C   UNL     1      41.242 -16.120   4.626  1.00  0.00     0.068 C 
HETATM    8  C   UNL     1      41.631 -15.919   3.150  1.00  0.00     0.221 C 
HETATM    9  C   UNL     1      39.532 -13.144   2.298  1.00  0.00     0.089 A 
HETATM   10  H   UNL     1      39.705 -13.139   5.089  1.00  0.00     0.162 HD
ENDROOT
BRANCH   1  11
HETATM   11  C   UNL     1      39.485 -13.214  -0.283  1.00  0.00     0.276 C 
HETATM   12  N   UNL     1      38.184 -12.748  -0.317  1.00  0.00    -0.322 N 
HETATM   13  H   UNL     1      37.721 -12.762   0.588  1.00  0.00     0.169 HD
HETATM   14  O   UNL     1      40.291 -13.196  -1.206  1.00  0.00    -0.266 OA
BRANCH  12  15
HETATM   15  C   UNL     1      37.479 -12.246  -1.424  1.00  0.00     0.035 A 
HETATM   16  C   UNL     1      37.033 -13.041  -2.478  1.00  0.00     0.032 A 
HETATM   17  C   UNL     1      36.308 -12.483  -3.540  1.00  0.00     0.032 A 
HETATM   18  C   UNL     1      36.036 -11.116  -3.575  1.00  0.00     0.034 A 
HETATM   19  C   UNL     1      36.496 -10.316  -2.524  1.00  0.00     0.032 A 
HETATM   20  C   UNL     1      37.196 -10.878  -1.449  1.00  0.00     0.032 A 
BRANCH  18  21
HETATM   21  N   UNL     1      35.331 -10.478  -4.617  1.00  0.00    -0.327 N 
HETATM   22  C   UNL     1      34.010 -10.675  -4.979  1.00  0.00     0.221 C 
HETATM   23  O   UNL     1      33.208 -11.425  -4.430  1.00  0.00    -0.273 OA
HETATM   24  H   UNL     1      35.847  -9.774  -5.127  1.00  0.00     0.169 HD
BRANCH  22  25
HETATM   25  C   UNL     1      33.594  -9.884  -6.208  1.00  0.00     0.098 C 
HETATM   26  C   UNL     1      32.885 -10.716  -7.261  1.00  0.00     0.014 C 
ENDBRANCH  22  25
ENDBRANCH  18  21
ENDBRANCH  12  15
ENDBRANCH   1  11
BRANCH   8  27
HETATM   27  C   UNL     1      43.082 -15.543   2.942  1.00  0.00     0.409 C 
HETATM   28  F   UNL     1      43.911 -16.035   3.882  1.00  0.00    -0.169 F 
HETATM   29  F   UNL     1      43.520 -16.000   1.741  1.00  0.00    -0.169 F 
HETATM   30  F   UNL     1      43.253 -14.201   2.918  1.00  0.00    -0.169 F 
ENDBRANCH   8  27
BRANCH   6  31
HETATM   31  C   UNL     1      42.160 -14.165   5.958  1.00  0.00     0.075 A 
HETATM   32  O   UNL     1      42.368 -12.861   5.609  1.00  0.00    -0.325 OA
HETATM   33  C   UNL     1      43.534 -12.475   6.189  1.00  0.00     0.142 A 
HETATM   34  C   UNL     1      44.084 -13.512   6.904  1.00  0.00     0.027 A 
HETATM   35  C   UNL     1      43.200 -14.607   6.751  1.00  0.00     0.037 A 
ENDBRANCH   6  31
TORSDOF 6
ENDMDL
MODEL 9
REMARK VINA RESULT:      -7.5      8.827     10.520
REMARK  6 active torsions:
REMARK  status: ('A' for Active; 'I' for Inactive)
REMARK    1  A    between atoms: C_2  and  C_3 
REMARK       I    between atoms: C_3  and  N_4 
REMARK    2  A    between atoms: N_4  and  C_5 
REMARK    3  A    between atoms: C_8  and  N_9 
REMARK       I    between atoms: N_9  and  C_10 
REMARK    4  A    between atoms: C_10  and  C_11 
REMARK    5  A    between atoms: C_16  and  C_17 
REMARK    6  A    between atoms: C_23  and  C_24 
ROOT
HETATM    1  C   UNL     1      39.998 -12.579  -0.858  1.00  0.00     0.148 A 
HETATM    2  N   UNL     1      39.768 -11.499  -0.074  1.00  0.00    -0.165 NA
HETATM    3  N   UNL     1      39.723 -10.482  -0.955  1.00  0.00    -0.240 N 
HETATM    4  C   UNL     1      39.759 -10.877  -2.262  1.00  0.00     0.123 A 
HETATM    5  N   UNL     1      39.597 -10.003  -3.276  1.00  0.00    -0.364 N 
HETATM    6  C   UNL     1      39.554  -8.556  -3.062  1.00  0.00     0.143 C 
HETATM    7  C   UNL     1      39.026  -8.236  -1.651  1.00  0.00     0.068 C 
HETATM    8  C   UNL     1      39.633  -9.098  -0.530  1.00  0.00     0.221 C 
HETATM    9  C   UNL     1      39.979 -12.228  -2.236  1.00  0.00     0.089 A 
HETATM   10  H   UNL     1      39.762 -10.290  -4.240  1.00  0.00     0.162 HD
ENDROOT
BRANCH   1  11
HETATM   11  C   UNL     1      40.223 -13.926  -0.305  1.00  0.00     0.276 C 
HETATM   12  N   UNL     1      41.150 -13.924   0.720  1.00  0.00    -0.322 N 
HETATM   13  H   UNL     1      41.468 -12.995   0.981  1.00  0.00     0.169 HD
HETATM   14  O   UNL     1      39.604 -14.896  -0.727  1.00  0.00    -0.266 OA
BRANCH  12  15
HETATM   15  C   UNL     1      41.651 -15.029   1.429  1.00  0.00     0.035 A 
HETATM   16  C   UNL     1      40.932 -15.703   2.414  1.00  0.00     0.032 A 
HETATM   17  C   UNL     1      41.479 -16.818   3.064  1.00  0.00     0.032 A 
HETATM   18  C   UNL     1      42.763 -17.264   2.753  1.00  0.00     0.034 A 
HETATM   19  C   UNL     1      43.490 -16.578   1.774  1.00  0.00     0.032 A 
HETATM   20  C   UNL     1      42.933 -15.481   1.104  1.00  0.00     0.032 A 
BRANCH  18  21
HETATM   21  N   UNL     1      43.389 -18.364   3.375  1.00  0.00    -0.327 N 
HETATM   22  C   UNL     1      43.470 -19.661   2.901  1.00  0.00     0.221 C 
HETATM   23  O   UNL     1      43.034 -20.075   1.830  1.00  0.00    -0.273 OA
HETATM   24  H   UNL     1      43.858 -18.164   4.248  1.00  0.00     0.169 HD
BRANCH  22  25
HETATM   25  C   UNL     1      44.143 -20.620   3.869  1.00  0.00     0.098 C 
HETATM   26  C   UNL     1      44.021 -20.206   5.325  1.00  0.00     0.014 C 
ENDBRANCH  22  25
ENDBRANCH  18  21
ENDBRANCH  12  15
ENDBRANCH   1  11
BRANCH   8  27
HETATM   27  C   UNL     1      40.990  -8.623  -0.055  1.00  0.00     0.409 C 
HETATM   28  F   UNL     1      41.228  -7.322  -0.305  1.00  0.00    -0.169 F 
HETATM   29  F   UNL     1      41.109  -8.804   1.285  1.00  0.00    -0.169 F 
HETATM   30  F   UNL     1      41.995  -9.332  -0.620  1.00  0.00    -0.169 F 
ENDBRANCH   8  27
BRANCH   6  31
HETATM   31  C   UNL     1      40.820  -7.838  -3.401  1.00  0.00     0.075 A 
HETATM   32  O   UNL     1      40.741  -6.477  -3.491  1.00  0.00    -0.325 OA
HETATM   33  C   UNL     1      41.974  -6.029  -3.843  1.00  0.00     0.142 A 
HETATM   34  C   UNL     1      42.847  -7.081  -3.987  1.00  0.00     0.027 A 
HETATM   35  C   UNL     1      42.102  -8.252  -3.707  1.00  0.00     0.037 A 
ENDBRANCH   6  31
TORSDOF 6
ENDMDL
MODEL 10
REMARK VINA RESULT:      -7.4      7.713     10.832
REMARK  6 active torsions:
REMARK  status: ('A' for Active; 'I' for Inactive)
REMARK    1  A    between atoms: C_2  and  C_3 
REMARK       I    between atoms: C_3  and  N_4 
REMARK    2  A    between atoms: N_4  and  C_5 
REMARK    3  A    between atoms: C_8  and  N_9 
REMARK       I    between atoms: N_9  and  C_10 
REMARK    4  A    between atoms: C_10  and  C_11 
REMARK    5  A    between atoms: C_16  and  C_17 
REMARK    6  A    between atoms: C_23  and  C_24 
ROOT
HETATM    1  C   UNL     1      40.058 -14.035   0.691  1.00  0.00     0.148 A 
HETATM    2  N   UNL     1      40.700 -15.206   0.914  1.00  0.00    -0.165 NA
HETATM    3  N   UNL     1      40.824 -15.239   2.255  1.00  0.00    -0.240 N 
HETATM    4  C   UNL     1      40.164 -14.231   2.899  1.00  0.00     0.123 A 
HETATM    5  N   UNL     1      40.076 -14.182   4.243  1.00  0.00    -0.364 N 
HETATM    6  C   UNL     1      40.826 -15.091   5.111  1.00  0.00     0.143 C 
HETATM    7  C   UNL     1      41.102 -16.422   4.386  1.00  0.00     0.068 C 
HETATM    8  C   UNL     1      41.587 -16.269   2.933  1.00  0.00     0.221 C 
HETATM    9  C   UNL     1      39.691 -13.407   1.914  1.00  0.00     0.089 A 
HETATM   10  H   UNL     1      39.700 -13.358   4.710  1.00  0.00     0.162 HD
ENDROOT
BRANCH   1  11
HETATM   11  C   UNL     1      39.790 -13.523  -0.665  1.00  0.00     0.276 C 
HETATM   12  N   UNL     1      39.896 -12.147  -0.736  1.00  0.00    -0.322 N 
HETATM   13  H   UNL     1      40.214 -11.716   0.128  1.00  0.00     0.169 HD
HETATM   14  O   UNL     1      39.540 -14.285  -1.591  1.00  0.00    -0.266 OA
BRANCH  12  15
HETATM   15  C   UNL     1      39.648 -11.322  -1.846  1.00  0.00     0.035 A 
HETATM   16  C   UNL     1      38.371 -10.938  -2.251  1.00  0.00     0.032 A 
HETATM   17  C   UNL     1      38.193 -10.088  -3.351  1.00  0.00     0.032 A 
HETATM   18  C   UNL     1      39.290  -9.625  -4.078  1.00  0.00     0.034 A 
HETATM   19  C   UNL     1      40.571 -10.023  -3.679  1.00  0.00     0.032 A 
HETATM   20  C   UNL     1      40.750 -10.849  -2.563  1.00  0.00     0.032 A 
BRANCH  18  21
HETATM   21  N   UNL     1      39.192  -8.785  -5.206  1.00  0.00    -0.327 N 
HETATM   22  C   UNL     1      39.282  -7.404  -5.234  1.00  0.00     0.221 C 
HETATM   23  O   UNL     1      39.495  -6.668  -4.274  1.00  0.00    -0.273 OA
HETATM   24  H   UNL     1      39.079  -9.256  -6.093  1.00  0.00     0.169 HD
BRANCH  22  25
HETATM   25  C   UNL     1      39.043  -6.809  -6.611  1.00  0.00     0.098 C 
HETATM   26  C   UNL     1      38.376  -7.764  -7.584  1.00  0.00     0.014 C 
ENDBRANCH  22  25
ENDBRANCH  18  21
ENDBRANCH  12  15
ENDBRANCH   1  11
BRANCH   8  27
HETATM   27  C   UNL     1      43.066 -15.973   2.805  1.00  0.00     0.409 C 
HETATM   28  F   UNL     1      43.364 -14.661   2.859  1.00  0.00    -0.169 F 
HETATM   29  F   UNL     1      43.756 -16.584   3.801  1.00  0.00    -0.169 F 
HETATM   30  F   UNL     1      43.574 -16.454   1.646  1.00  0.00    -0.169 F 
ENDBRANCH   8  27
BRANCH   6  31
HETATM   31  C   UNL     1      42.043 -14.492   5.738  1.00  0.00     0.075 A 
HETATM   32  O   UNL     1      42.308 -13.189   5.426  1.00  0.00    -0.325 OA
HETATM   33  C   UNL     1      43.462 -12.854   6.059  1.00  0.00     0.142 A 
HETATM   34  C   UNL     1      43.949 -13.924   6.772  1.00  0.00     0.027 A 
HETATM   35  C   UNL     1      43.037 -14.985   6.562  1.00  0.00     0.037 A 
ENDBRANCH   6  31
TORSDOF 6
ENDMDL
