MODEL 1
REMARK VINA RESULT:      -8.7      0.000      0.000
REMARK  7 active torsions:
REMARK  status: ('A' for Active; 'I' for Inactive)
REMARK    1  A    between atoms: C_2  and  O_3 
REMARK    2  A    between atoms: O_3  and  C_4 
REMARK    3  A    between atoms: C_5  and  C_6 
REMARK       I    between atoms: C_6  and  N_7 
REMARK    4  A    between atoms: N_7  and  C_8 
REMARK    5  A    between atoms: C_8  and  C_9 
REMARK    6  A    between atoms: C_9  and  N_10 
REMARK    7  A    between atoms: N_14  and  C_15 
ROOT
HETATM    1  C   UNL     1      42.863 -15.894   2.481  1.00  0.00     0.255 C 
HETATM    2  N   UNL     1      41.511 -15.675   2.313  1.00  0.00    -0.355 N 
HETATM    3  O   UNL     1      43.705 -15.394   1.742  1.00  0.00    -0.268 OA
HETATM    4  H   UNL     1      40.883 -16.168   2.945  1.00  0.00     0.162 HD
ENDROOT
BRANCH   2   5
HETATM    5  C   UNL     1      40.941 -15.096   1.103  1.00  0.00     0.150 C 
BRANCH   5   6
HETATM    6  C   UNL     1      39.721 -14.176   1.318  1.00  0.00     0.254 C 
BRANCH   6   7
HETATM    7  N   UNL     1      40.092 -12.784   1.760  1.00  0.00    -0.067 N 
HETATM    8  H   UNL     1      39.527 -12.129   1.179  1.00  0.00     0.280 HD
HETATM    9  C   UNL     1      39.689 -12.437   3.192  1.00  0.00     0.254 C 
HETATM   10  C   UNL     1      40.023 -10.959   3.494  1.00  0.00     0.150 C 
HETATM   11  N   UNL     1      41.457 -10.692   3.258  1.00  0.00    -0.378 N 
HETATM   12  C   UNL     1      41.873 -10.988   1.868  1.00  0.00     0.150 C 
HETATM   13  C   UNL     1      41.558 -12.457   1.504  1.00  0.00     0.254 C 
BRANCH  11  14
HETATM   14  C   UNL     1      42.390 -10.799   4.287  1.00  0.00     0.030 A 
HETATM   15  C   UNL     1      43.661 -11.375   4.112  1.00  0.00     0.031 A 
HETATM   16  C   UNL     1      44.574 -11.502   5.170  1.00  0.00     0.026 A 
HETATM   17  C   UNL     1      44.229 -11.061   6.440  1.00  0.00     0.034 A 
HETATM   18 CL   UNL     1      45.343 -11.222   7.737  1.00  0.00    -0.084 Cl
HETATM   19  C   UNL     1      42.979 -10.504   6.658  1.00  0.00     0.026 A 
HETATM   20  C   UNL     1      42.073 -10.385   5.595  1.00  0.00     0.031 A 
ENDBRANCH  11  14
ENDBRANCH   6   7
ENDBRANCH   5   6
ENDBRANCH   2   5
BRANCH   1  21
HETATM   21  C   UNL     1      43.239 -16.746   3.628  1.00  0.00     0.076 A 
HETATM   22  C   UNL     1      43.392 -16.129   4.883  1.00  0.00     0.085 A 
HETATM   23  C   UNL     1      43.708 -16.921   5.986  1.00  0.00     0.039 A 
HETATM   24  C   UNL     1      43.895 -18.298   5.832  1.00  0.00     0.015 A 
HETATM   25  C   UNL     1      43.778 -18.915   4.579  1.00  0.00    -0.025 A 
HETATM   26  C   UNL     1      43.453 -18.141   3.441  1.00  0.00    -0.007 A 
HETATM   27  C   UNL     1      43.988 -20.298   4.451  1.00  0.00     0.012 A 
HETATM   28  C   UNL     1      43.382 -18.807   2.191  1.00  0.00     0.013 A 
HETATM   29  C   UNL     1      43.597 -20.182   2.080  1.00  0.00     0.001 A 
HETATM   30  C   UNL     1      43.895 -20.928   3.213  1.00  0.00     0.001 A 
BRANCH  22  31
HETATM   31  O   UNL     1      43.163 -14.778   4.957  1.00  0.00    -0.350 OA
BRANCH  31  32
HETATM   32  C   UNL     1      42.439 -14.328   6.106  1.00  0.00     0.171 C 
HETATM   33  C   UNL     1      40.961 -14.555   5.843  1.00  0.00     0.034 C 
ENDBRANCH  31  32
ENDBRANCH  22  31
ENDBRANCH   1  21
TORSDOF 7
ENDMDL
MODEL 2
REMARK VINA RESULT:      -8.5      3.550      5.516
REMARK  7 active torsions:
REMARK  status: ('A' for Active; 'I' for Inactive)
REMARK    1  A    between atoms: C_2  and  O_3 
REMARK    2  A    between atoms: O_3  and  C_4 
REMARK    3  A    between atoms: C_5  and  C_6 
REMARK       I    between atoms: C_6  and  N_7 
REMARK    4  A    between atoms: N_7  and  C_8 
REMARK    5  A    between atoms: C_8  and  C_9 
REMARK    6  A    between atoms: C_9  and  N_10 
REMARK    7  A    between atoms: N_14  and  C_15 
ROOT
HETATM    1  C   UNL     1      42.279 -14.738   5.823  1.00  0.00     0.255 C 
HETATM    2  N   UNL     1      43.158 -13.678   5.748  1.00  0.00    -0.355 N 
HETATM    3  O   UNL     1      41.810 -15.126   6.888  1.00  0.00    -0.268 OA
HETATM    4  H   UNL     1      43.533 -13.455   4.827  1.00  0.00     0.162 HD
ENDROOT
BRANCH   2   5
HETATM    5  C   UNL     1      43.837 -13.120   6.911  1.00  0.00     0.150 C 
BRANCH   5   6
HETATM    6  C   UNL     1      44.967 -12.116   6.602  1.00  0.00     0.254 C 
BRANCH   6   7
HETATM    7  N   UNL     1      44.682 -10.722   7.100  1.00  0.00    -0.067 N 
HETATM    8  H   UNL     1      44.875 -10.078   6.303  1.00  0.00     0.280 HD
HETATM    9  C   UNL     1      43.217 -10.451   7.439  1.00  0.00     0.254 C 
HETATM   10  C   UNL     1      43.031  -8.968   7.834  1.00  0.00     0.150 C 
HETATM   11  N   UNL     1      43.920  -8.615   8.960  1.00  0.00    -0.378 N 
HETATM   12  C   UNL     1      45.351  -8.837   8.651  1.00  0.00     0.150 C 
HETATM   13  C   UNL     1      45.601 -10.307   8.242  1.00  0.00     0.254 C 
BRANCH  11  14
HETATM   14  C   UNL     1      43.485  -8.708  10.280  1.00  0.00     0.030 A 
HETATM   15  C   UNL     1      43.287  -9.935  10.937  1.00  0.00     0.031 A 
HETATM   16  C   UNL     1      42.817 -10.007  12.257  1.00  0.00     0.026 A 
HETATM   17  C   UNL     1      42.522  -8.844  12.952  1.00  0.00     0.034 A 
HETATM   18 CL   UNL     1      41.940  -8.930  14.566  1.00  0.00    -0.084 Cl
HETATM   19  C   UNL     1      42.685  -7.614  12.334  1.00  0.00     0.026 A 
HETATM   20  C   UNL     1      43.152  -7.554  11.014  1.00  0.00     0.031 A 
ENDBRANCH  11  14
ENDBRANCH   6   7
ENDBRANCH   5   6
ENDBRANCH   2   5
BRANCH   1  21
HETATM   21  C   UNL     1      41.911 -15.363   4.535  1.00  0.00     0.076 A 
HETATM   22  C   UNL     1      40.853 -14.790   3.806  1.00  0.00     0.085 A 
HETATM   23  C   UNL     1      40.516 -15.339   2.570  1.00  0.00     0.039 A 
HETATM   24  C   UNL     1      41.204 -16.455   2.085  1.00  0.00     0.015 A 
HETATM   25  C   UNL     1      42.237 -17.052   2.821  1.00  0.00    -0.025 A 
HETATM   26  C   UNL     1      42.607 -16.516   4.077  1.00  0.00    -0.007 A 
HETATM   27  C   UNL     1      42.900 -18.183   2.317  1.00  0.00     0.012 A 
HETATM   28  C   UNL     1      43.634 -17.178   4.797  1.00  0.00     0.013 A 
HETATM   29  C   UNL     1      44.281 -18.303   4.283  1.00  0.00     0.001 A 
HETATM   30  C   UNL     1      43.917 -18.802   3.040  1.00  0.00     0.001 A 
BRANCH  22  31
HETATM   31  O   UNL     1      40.246 -13.679   4.336  1.00  0.00    -0.350 OA
BRANCH  31  32
HETATM   32  C   UNL     1      40.371 -12.474   3.574  1.00  0.00     0.171 C 
HETATM   33  C   UNL     1      40.605 -11.332   4.545  1.00  0.00     0.034 C 
ENDBRANCH  31  32
ENDBRANCH  22  31
ENDBRANCH   1  21
TORSDOF 7
ENDMDL
MODEL 3
REMARK VINA RESULT:      -8.3      3.125      4.868
REMARK  7 active torsions:
REMARK  status: ('A' for Active; 'I' for Inactive)
REMARK    1  A    between atoms: C_2  and  O_3 
REMARK    2  A    between atoms: O_3  and  C_4 
REMARK    3  A    between atoms: C_5  and  C_6 
REMARK       I    between atoms: C_6  and  N_7 
REMARK    4  A    between atoms: N_7  and  C_8 
REMARK    5  A    between atoms: C_8  and  C_9 
REMARK    6  A    between atoms: C_9  and  N_10 
REMARK    7  A    between atoms: N_14  and  C_15 
ROOT
HETATM    1  C   UNL     1      43.586 -15.841   5.428  1.00  0.00     0.255 C 
HETATM    2  N   UNL     1      42.479 -15.047   5.644  1.00  0.00    -0.355 N 
HETATM    3  O   UNL     1      44.558 -15.829   6.177  1.00  0.00    -0.268 OA
HETATM    4  H   UNL     1      41.740 -15.089   4.944  1.00  0.00     0.162 HD
ENDROOT
BRANCH   2   5
HETATM    5  C   UNL     1      42.470 -13.928   6.577  1.00  0.00     0.150 C 
BRANCH   5   6
HETATM    6  C   UNL     1      42.178 -12.546   5.952  1.00  0.00     0.254 C 
BRANCH   6   7
HETATM    7  N   UNL     1      42.980 -11.429   6.568  1.00  0.00    -0.067 N 
HETATM    8  H   UNL     1      43.610 -11.070   5.820  1.00  0.00     0.280 HD
HETATM    9  C   UNL     1      42.163 -10.203   6.973  1.00  0.00     0.254 C 
HETATM   10  C   UNL     1      43.101  -9.089   7.491  1.00  0.00     0.150 C 
HETATM   11  N   UNL     1      43.925  -9.583   8.613  1.00  0.00    -0.378 N 
HETATM   12  C   UNL     1      44.753 -10.753   8.243  1.00  0.00     0.150 C 
HETATM   13  C   UNL     1      43.868 -11.904   7.711  1.00  0.00     0.254 C 
BRANCH  11  14
HETATM   14  C   UNL     1      43.510  -9.431   9.935  1.00  0.00     0.030 A 
HETATM   15  C   UNL     1      43.118  -8.194  10.477  1.00  0.00     0.031 A 
HETATM   16  C   UNL     1      42.735  -8.056  11.819  1.00  0.00     0.026 A 
HETATM   17  C   UNL     1      42.745  -9.159  12.660  1.00  0.00     0.034 A 
HETATM   18 CL   UNL     1      42.284  -8.991  14.306  1.00  0.00    -0.084 Cl
HETATM   19  C   UNL     1      43.144 -10.393  12.169  1.00  0.00     0.026 A 
HETATM   20  C   UNL     1      43.527 -10.519  10.827  1.00  0.00     0.031 A 
ENDBRANCH  11  14
ENDBRANCH   6   7
ENDBRANCH   5   6
ENDBRANCH   2   5
BRANCH   1  21
HETATM   21  C   UNL     1      43.520 -16.734   4.252  1.00  0.00     0.076 A 
HETATM   22  C   UNL     1      43.313 -16.145   2.991  1.00  0.00     0.085 A 
HETATM   23  C   UNL     1      43.287 -16.964   1.864  1.00  0.00     0.039 A 
HETATM   24  C   UNL     1      43.437 -18.348   1.997  1.00  0.00     0.015 A 
HETATM   25  C   UNL     1      43.611 -18.946   3.253  1.00  0.00    -0.025 A 
HETATM   26  C   UNL     1      43.647 -18.141   4.416  1.00  0.00    -0.007 A 
HETATM   27  C   UNL     1      43.743 -20.340   3.358  1.00  0.00     0.012 A 
HETATM   28  C   UNL     1      43.788 -18.799   5.665  1.00  0.00     0.013 A 
HETATM   29  C   UNL     1      43.915 -20.186   5.753  1.00  0.00     0.001 A 
HETATM   30  C   UNL     1      43.898 -20.956   4.598  1.00  0.00     0.001 A 
BRANCH  22  31
HETATM   31  O   UNL     1      43.203 -14.778   2.941  1.00  0.00    -0.350 OA
BRANCH  31  32
HETATM   32  C   UNL     1      42.493 -14.248   1.817  1.00  0.00     0.171 C 
HETATM   33  C   UNL     1      41.445 -13.283   2.342  1.00  0.00     0.034 C 
ENDBRANCH  31  32
ENDBRANCH  22  31
ENDBRANCH   1  21
TORSDOF 7
ENDMDL
MODEL 4
REMARK VINA RESULT:      -8.3      3.323      4.613
REMARK  7 active torsions:
REMARK  status: ('A' for Active; 'I' for Inactive)
REMARK    1  A    between atoms: C_2  and  O_3 
REMARK    2  A    between atoms: O_3  and  C_4 
REMARK    3  A    between atoms: C_5  and  C_6 
REMARK       I    between atoms: C_6  and  N_7 
REMARK    4  A    between atoms: N_7  and  C_8 
REMARK    5  A    between atoms: C_8  and  C_9 
REMARK    6  A    between atoms: C_9  and  N_10 
REMARK    7  A    between atoms: N_14  and  C_15 
ROOT
HETATM    1  C   UNL     1      42.384 -15.904   2.455  1.00  0.00     0.255 C 
HETATM    2  N   UNL     1      41.015 -15.758   2.548  1.00  0.00    -0.355 N 
HETATM    3  O   UNL     1      43.034 -15.417   1.536  1.00  0.00    -0.268 OA
HETATM    4  H   UNL     1      40.553 -16.236   3.320  1.00  0.00     0.162 HD
ENDROOT
BRANCH   2   5
HETATM    5  C   UNL     1      40.187 -15.287   1.446  1.00  0.00     0.150 C 
BRANCH   5   6
HETATM    6  C   UNL     1      39.679 -13.834   1.570  1.00  0.00     0.254 C 
BRANCH   6   7
HETATM    7  N   UNL     1      39.373 -13.192   0.241  1.00  0.00    -0.067 N 
HETATM    8  H   UNL     1      38.570 -13.719  -0.163  1.00  0.00     0.280 HD
HETATM    9  C   UNL     1      38.857 -11.756   0.328  1.00  0.00     0.254 C 
HETATM   10  C   UNL     1      38.478 -11.244  -1.079  1.00  0.00     0.150 C 
HETATM   11  N   UNL     1      39.630 -11.348  -1.998  1.00  0.00    -0.378 N 
HETATM   12  C   UNL     1      40.134 -12.734  -2.129  1.00  0.00     0.150 C 
HETATM   13  C   UNL     1      40.526 -13.307  -0.747  1.00  0.00     0.254 C 
BRANCH  11  14
HETATM   14  C   UNL     1      40.510 -10.283  -2.177  1.00  0.00     0.030 A 
HETATM   15  C   UNL     1      41.437  -9.882  -1.199  1.00  0.00     0.031 A 
HETATM   16  C   UNL     1      42.292  -8.785  -1.386  1.00  0.00     0.026 A 
HETATM   17  C   UNL     1      42.232  -8.053  -2.563  1.00  0.00     0.034 A 
HETATM   18 CL   UNL     1      43.273  -6.706  -2.792  1.00  0.00    -0.084 Cl
HETATM   19  C   UNL     1      41.318  -8.404  -3.545  1.00  0.00     0.026 A 
HETATM   20  C   UNL     1      40.467  -9.499  -3.345  1.00  0.00     0.031 A 
ENDBRANCH  11  14
ENDBRANCH   6   7
ENDBRANCH   5   6
ENDBRANCH   2   5
BRANCH   1  21
HETATM   21  C   UNL     1      43.027 -16.661   3.550  1.00  0.00     0.076 A 
HETATM   22  C   UNL     1      43.376 -15.958   4.718  1.00  0.00     0.085 A 
HETATM   23  C   UNL     1      43.947 -16.660   5.777  1.00  0.00     0.039 A 
HETATM   24  C   UNL     1      44.190 -18.033   5.662  1.00  0.00     0.015 A 
HETATM   25  C   UNL     1      43.876 -18.733   4.489  1.00  0.00    -0.025 A 
HETATM   26  C   UNL     1      43.290 -18.051   3.397  1.00  0.00    -0.007 A 
HETATM   27  C   UNL     1      44.147 -20.108   4.395  1.00  0.00     0.012 A 
HETATM   28  C   UNL     1      43.025 -18.798   2.221  1.00  0.00     0.013 A 
HETATM   29  C   UNL     1      43.303 -20.164   2.142  1.00  0.00     0.001 A 
HETATM   30  C   UNL     1      43.859 -20.820   3.232  1.00  0.00     0.001 A 
BRANCH  22  31
HETATM   31  O   UNL     1      43.079 -14.619   4.765  1.00  0.00    -0.350 OA
BRANCH  31  32
HETATM   32  C   UNL     1      42.498 -14.149   5.985  1.00  0.00     0.171 C 
HETATM   33  C   UNL     1      41.034 -14.548   5.987  1.00  0.00     0.034 C 
ENDBRANCH  31  32
ENDBRANCH  22  31
ENDBRANCH   1  21
TORSDOF 7
ENDMDL
MODEL 5
REMARK VINA RESULT:      -8.1      3.545      5.531
REMARK  7 active torsions:
REMARK  status: ('A' for Active; 'I' for Inactive)
REMARK    1  A    between atoms: C_2  and  O_3 
REMARK    2  A    between atoms: O_3  and  C_4 
REMARK    3  A    between atoms: C_5  and  C_6 
REMARK       I    between atoms: C_6  and  N_7 
REMARK    4  A    between atoms: N_7  and  C_8 
REMARK    5  A    between atoms: C_8  and  C_9 
REMARK    6  A    between atoms: C_9  and  N_10 
REMARK    7  A    between atoms: N_14  and  C_15 
ROOT
HETATM    1  C   UNL     1      42.264 -14.464   4.660  1.00  0.00     0.255 C 
HETATM    2  N   UNL     1      43.197 -13.479   4.908  1.00  0.00    -0.355 N 
HETATM    3  O   UNL     1      41.132 -14.429   5.132  1.00  0.00    -0.268 OA
HETATM    4  H   UNL     1      44.126 -13.615   4.513  1.00  0.00     0.162 HD
ENDROOT
BRANCH   2   5
HETATM    5  C   UNL     1      43.046 -12.485   5.963  1.00  0.00     0.150 C 
BRANCH   5   6
HETATM    6  C   UNL     1      44.347 -12.087   6.692  1.00  0.00     0.254 C 
BRANCH   6   7
HETATM    7  N   UNL     1      44.325 -10.680   7.231  1.00  0.00    -0.067 N 
HETATM    8  H   UNL     1      44.674 -10.065   6.465  1.00  0.00     0.280 HD
HETATM    9  C   UNL     1      42.931 -10.130   7.530  1.00  0.00     0.254 C 
HETATM   10  C   UNL     1      43.028  -8.653   7.972  1.00  0.00     0.150 C 
HETATM   11  N   UNL     1      43.922  -8.517   9.139  1.00  0.00    -0.378 N 
HETATM   12  C   UNL     1      45.292  -9.012   8.871  1.00  0.00     0.150 C 
HETATM   13  C   UNL     1      45.261 -10.490   8.418  1.00  0.00     0.254 C 
BRANCH  11  14
HETATM   14  C   UNL     1      43.424  -8.559  10.440  1.00  0.00     0.030 A 
HETATM   15  C   UNL     1      42.945  -7.422  11.114  1.00  0.00     0.031 A 
HETATM   16  C   UNL     1      42.477  -7.480  12.436  1.00  0.00     0.026 A 
HETATM   17  C   UNL     1      42.488  -8.685  13.122  1.00  0.00     0.034 A 
HETATM   18 CL   UNL     1      41.922  -8.757  14.742  1.00  0.00    -0.084 Cl
HETATM   19  C   UNL     1      42.970  -9.826  12.500  1.00  0.00     0.026 A 
HETATM   20  C   UNL     1      43.438  -9.756  11.180  1.00  0.00     0.031 A 
ENDBRANCH  11  14
ENDBRANCH   6   7
ENDBRANCH   5   6
ENDBRANCH   2   5
BRANCH   1  21
HETATM   21  C   UNL     1      42.702 -15.556   3.765  1.00  0.00     0.076 A 
HETATM   22  C   UNL     1      42.690 -15.312   2.379  1.00  0.00     0.085 A 
HETATM   23  C   UNL     1      43.136 -16.314   1.519  1.00  0.00     0.039 A 
HETATM   24  C   UNL     1      43.561 -17.544   2.031  1.00  0.00     0.015 A 
HETATM   25  C   UNL     1      43.544 -17.805   3.408  1.00  0.00    -0.025 A 
HETATM   26  C   UNL     1      43.101 -16.808   4.308  1.00  0.00    -0.007 A 
HETATM   27  C   UNL     1      43.960 -19.056   3.893  1.00  0.00     0.012 A 
HETATM   28  C   UNL     1      43.070 -17.136   5.688  1.00  0.00     0.013 A 
HETATM   29  C   UNL     1      43.484 -18.385   6.155  1.00  0.00     0.001 A 
HETATM   30  C   UNL     1      43.935 -19.343   5.256  1.00  0.00     0.001 A 
BRANCH  22  31
HETATM   31  O   UNL     1      42.287 -14.070   1.957  1.00  0.00    -0.350 OA
BRANCH  31  32
HETATM   32  C   UNL     1      41.088 -14.033   1.178  1.00  0.00     0.171 C 
HETATM   33  C   UNL     1      40.231 -12.893   1.698  1.00  0.00     0.034 C 
ENDBRANCH  31  32
ENDBRANCH  22  31
ENDBRANCH   1  21
TORSDOF 7
ENDMDL
MODEL 6
REMARK VINA RESULT:      -8.0      2.567      4.479
REMARK  7 active torsions:
REMARK  status: ('A' for Active; 'I' for Inactive)
REMARK    1  A    between atoms: C_2  and  O_3 
REMARK    2  A    between atoms: O_3  and  C_4 
REMARK    3  A    between atoms: C_5  and  C_6 
REMARK       I    between atoms: C_6  and  N_7 
REMARK    4  A    between atoms: N_7  and  C_8 
REMARK    5  A    between atoms: C_8  and  C_9 
REMARK    6  A    between atoms: C_9  and  N_10 
REMARK    7  A    between atoms: N_14  and  C_15 
ROOT
HETATM    1  C   UNL     1      43.941 -16.279   5.588  1.00  0.00     0.255 C 
HETATM    2  N   UNL     1      42.875 -15.621   6.165  1.00  0.00    -0.355 N 
HETATM    3  O   UNL     1      45.044 -16.336   6.123  1.00  0.00    -0.268 OA
HETATM    4  H   UNL     1      42.010 -15.586   5.627  1.00  0.00     0.162 HD
ENDROOT
BRANCH   2   5
HETATM    5  C   UNL     1      43.018 -14.699   7.285  1.00  0.00     0.150 C 
BRANCH   5   6
HETATM    6  C   UNL     1      43.296 -13.230   6.902  1.00  0.00     0.254 C 
BRANCH   6   7
HETATM    7  N   UNL     1      42.043 -12.422   6.681  1.00  0.00    -0.067 N 
HETATM    8  H   UNL     1      41.713 -12.125   7.624  1.00  0.00     0.280 HD
HETATM    9  C   UNL     1      42.254 -11.103   5.939  1.00  0.00     0.254 C 
HETATM   10  C   UNL     1      40.925 -10.318   5.866  1.00  0.00     0.150 C 
HETATM   11  N   UNL     1      39.873 -11.134   5.227  1.00  0.00    -0.378 N 
HETATM   12  C   UNL     1      39.622 -12.406   5.942  1.00  0.00     0.150 C 
HETATM   13  C   UNL     1      40.920 -13.238   6.051  1.00  0.00     0.254 C 
BRANCH  11  14
HETATM   14  C   UNL     1      39.639 -11.064   3.855  1.00  0.00     0.030 A 
HETATM   15  C   UNL     1      39.178 -12.158   3.100  1.00  0.00     0.031 A 
HETATM   16  C   UNL     1      38.980 -12.076   1.713  1.00  0.00     0.026 A 
HETATM   17  C   UNL     1      39.250 -10.891   1.043  1.00  0.00     0.034 A 
HETATM   18 CL   UNL     1      39.014 -10.791  -0.655  1.00  0.00    -0.084 Cl
HETATM   19  C   UNL     1      39.724  -9.796   1.749  1.00  0.00     0.026 A 
HETATM   20  C   UNL     1      39.921  -9.890   3.133  1.00  0.00     0.031 A 
ENDBRANCH  11  14
ENDBRANCH   6   7
ENDBRANCH   5   6
ENDBRANCH   2   5
BRANCH   1  21
HETATM   21  C   UNL     1      43.668 -16.938   4.294  1.00  0.00     0.076 A 
HETATM   22  C   UNL     1      43.310 -16.123   3.204  1.00  0.00     0.085 A 
HETATM   23  C   UNL     1      43.087 -16.721   1.965  1.00  0.00     0.039 A 
HETATM   24  C   UNL     1      43.192 -18.108   1.823  1.00  0.00     0.015 A 
HETATM   25  C   UNL     1      43.515 -18.930   2.913  1.00  0.00    -0.025 A 
HETATM   26  C   UNL     1      43.753 -18.354   4.182  1.00  0.00    -0.007 A 
HETATM   27  C   UNL     1      43.597 -20.322   2.745  1.00  0.00     0.012 A 
HETATM   28  C   UNL     1      44.040 -19.233   5.258  1.00  0.00     0.013 A 
HETATM   29  C   UNL     1      44.115 -20.615   5.077  1.00  0.00     0.001 A 
HETATM   30  C   UNL     1      43.899 -21.159   3.818  1.00  0.00     0.001 A 
BRANCH  22  31
HETATM   31  O   UNL     1      43.256 -14.769   3.416  1.00  0.00    -0.350 OA
BRANCH  31  32
HETATM   32  C   UNL     1      43.021 -13.963   2.258  1.00  0.00     0.171 C 
HETATM   33  C   UNL     1      42.831 -12.529   2.719  1.00  0.00     0.034 C 
ENDBRANCH  31  32
ENDBRANCH  22  31
ENDBRANCH   1  21
TORSDOF 7
ENDMDL
MODEL 7
REMARK VINA RESULT:      -7.9      4.359      5.895
REMARK  7 active torsions:
REMARK  status: ('A' for Active; 'I' for Inactive)
REMARK    1  A    between atoms: C_2  and  O_3 
REMARK    2  A    between atoms: O_3  and  C_4 
REMARK    3  A    between atoms: C_5  and  C_6 
REMARK       I    between atoms: C_6  and  N_7 
REMARK    4  A    between atoms: N_7  and  C_8 
REMARK    5  A    between atoms: C_8  and  C_9 
REMARK    6  A    between atoms: C_9  and  N_10 
REMARK    7  A    between atoms: N_14  and  C_15 
ROOT
HETATM    1  C   UNL     1      42.470 -16.020   2.259  1.00  0.00     0.255 C 
HETATM    2  N   UNL     1      41.108 -15.811   2.322  1.00  0.00    -0.355 N 
HETATM    3  O   UNL     1      43.150 -15.628   1.315  1.00  0.00    -0.268 OA
HETATM    4  H   UNL     1      40.618 -16.212   3.119  1.00  0.00     0.162 HD
ENDROOT
BRANCH   2   5
HETATM    5  C   UNL     1      40.312 -15.388   1.176  1.00  0.00     0.150 C 
BRANCH   5   6
HETATM    6  C   UNL     1      40.063 -13.869   1.066  1.00  0.00     0.254 C 
BRANCH   6   7
HETATM    7  N   UNL     1      40.350 -13.314  -0.306  1.00  0.00    -0.067 N 
HETATM    8  H   UNL     1      41.276 -13.696  -0.592  1.00  0.00     0.280 HD
HETATM    9  C   UNL     1      39.404 -13.798  -1.404  1.00  0.00     0.254 C 
HETATM   10  C   UNL     1      39.859 -13.250  -2.775  1.00  0.00     0.150 C 
HETATM   11  N   UNL     1      39.940 -11.775  -2.744  1.00  0.00    -0.378 N 
HETATM   12  C   UNL     1      40.875 -11.275  -1.711  1.00  0.00     0.150 C 
HETATM   13  C   UNL     1      40.473 -11.795  -0.312  1.00  0.00     0.254 C 
BRANCH  11  14
HETATM   14  C   UNL     1      38.859 -10.985  -3.127  1.00  0.00     0.030 A 
HETATM   15  C   UNL     1      38.999  -9.807  -3.882  1.00  0.00     0.031 A 
HETATM   16  C   UNL     1      37.900  -9.007  -4.229  1.00  0.00     0.026 A 
HETATM   17  C   UNL     1      36.625  -9.366  -3.817  1.00  0.00     0.034 A 
HETATM   18 CL   UNL     1      35.278  -8.385  -4.234  1.00  0.00    -0.084 Cl
HETATM   19  C   UNL     1      36.445 -10.510  -3.054  1.00  0.00     0.026 A 
HETATM   20  C   UNL     1      37.551 -11.299  -2.711  1.00  0.00     0.031 A 
ENDBRANCH  11  14
ENDBRANCH   6   7
ENDBRANCH   5   6
ENDBRANCH   2   5
BRANCH   1  21
HETATM   21  C   UNL     1      43.069 -16.720   3.414  1.00  0.00     0.076 A 
HETATM   22  C   UNL     1      43.377 -15.959   4.556  1.00  0.00     0.085 A 
HETATM   23  C   UNL     1      43.906 -16.607   5.671  1.00  0.00     0.039 A 
HETATM   24  C   UNL     1      44.147 -17.984   5.636  1.00  0.00     0.015 A 
HETATM   25  C   UNL     1      43.873 -18.743   4.490  1.00  0.00    -0.025 A 
HETATM   26  C   UNL     1      43.332 -18.117   3.343  1.00  0.00    -0.007 A 
HETATM   27  C   UNL     1      44.141 -20.122   4.477  1.00  0.00     0.012 A 
HETATM   28  C   UNL     1      43.107 -18.924   2.198  1.00  0.00     0.013 A 
HETATM   29  C   UNL     1      43.382 -20.293   2.201  1.00  0.00     0.001 A 
HETATM   30  C   UNL     1      43.894 -20.892   3.343  1.00  0.00     0.001 A 
BRANCH  22  31
HETATM   31  O   UNL     1      43.085 -14.619   4.523  1.00  0.00    -0.350 OA
BRANCH  31  32
HETATM   32  C   UNL     1      42.146 -14.159   5.499  1.00  0.00     0.171 C 
HETATM   33  C   UNL     1      41.172 -13.224   4.805  1.00  0.00     0.034 C 
ENDBRANCH  31  32
ENDBRANCH  22  31
ENDBRANCH   1  21
TORSDOF 7
ENDMDL
MODEL 8
REMARK VINA RESULT:      -7.8      3.378      5.315
REMARK  7 active torsions:
REMARK  status: ('A' for Active; 'I' for Inactive)
REMARK    1  A    between atoms: C_2  and  O_3 
REMARK    2  A    between atoms: O_3  and  C_4 
REMARK    3  A    between atoms: C_5  and  C_6 
REMARK       I    between atoms: C_6  and  N_7 
REMARK    4  A    between atoms: N_7  and  C_8 
REMARK    5  A    between atoms: C_8  and  C_9 
REMARK    6  A    between atoms: C_9  and  N_10 
REMARK    7  A    between atoms: N_14  and  C_15 
ROOT
HETATM    1  C   UNL     1      42.461 -14.150   3.644  1.00  0.00     0.255 C 
HETATM    2  N   UNL     1      43.242 -13.048   3.364  1.00  0.00    -0.355 N 
HETATM    3  O   UNL     1      41.360 -14.321   3.129  1.00  0.00    -0.268 OA
HETATM    4  H   UNL     1      44.120 -12.966   3.873  1.00  0.00     0.162 HD
ENDROOT
BRANCH   2   5
HETATM    5  C   UNL     1      42.733 -11.861   2.689  1.00  0.00     0.150 C 
BRANCH   5   6
HETATM    6  C   UNL     1      41.671 -11.058   3.470  1.00  0.00     0.254 C 
BRANCH   6   7
HETATM    7  N   UNL     1      40.447 -10.733   2.653  1.00  0.00    -0.067 N 
HETATM    8  H   UNL     1      40.021  -9.884   3.082  1.00  0.00     0.280 HD
HETATM    9  C   UNL     1      40.732 -10.306   1.214  1.00  0.00     0.254 C 
HETATM   10  C   UNL     1      39.417  -9.899   0.512  1.00  0.00     0.150 C 
HETATM   11  N   UNL     1      38.437 -11.003   0.562  1.00  0.00    -0.378 N 
HETATM   12  C   UNL     1      38.115 -11.418   1.946  1.00  0.00     0.150 C 
HETATM   13  C   UNL     1      39.396 -11.835   2.705  1.00  0.00     0.254 C 
BRANCH  11  14
HETATM   14  C   UNL     1      38.346 -11.935  -0.469  1.00  0.00     0.030 A 
HETATM   15  C   UNL     1      39.165 -13.075  -0.547  1.00  0.00     0.031 A 
HETATM   16  C   UNL     1      39.079 -13.985  -1.612  1.00  0.00     0.026 A 
HETATM   17  C   UNL     1      38.169 -13.768  -2.637  1.00  0.00     0.034 A 
HETATM   18 CL   UNL     1      38.067 -14.876  -3.944  1.00  0.00    -0.084 Cl
HETATM   19  C   UNL     1      37.356 -12.645  -2.607  1.00  0.00     0.026 A 
HETATM   20  C   UNL     1      37.453 -11.742  -1.540  1.00  0.00     0.031 A 
ENDBRANCH  11  14
ENDBRANCH   6   7
ENDBRANCH   5   6
ENDBRANCH   2   5
BRANCH   1  21
HETATM   21  C   UNL     1      43.044 -15.133   4.581  1.00  0.00     0.076 A 
HETATM   22  C   UNL     1      43.279 -14.718   5.905  1.00  0.00     0.085 A 
HETATM   23  C   UNL     1      43.791 -15.640   6.816  1.00  0.00     0.039 A 
HETATM   24  C   UNL     1      44.088 -16.943   6.406  1.00  0.00     0.015 A 
HETATM   25  C   UNL     1      43.888 -17.355   5.080  1.00  0.00    -0.025 A 
HETATM   26  C   UNL     1      43.365 -16.444   4.132  1.00  0.00    -0.007 A 
HETATM   27  C   UNL     1      44.211 -18.665   4.692  1.00  0.00     0.012 A 
HETATM   28  C   UNL     1      43.215 -16.899   2.797  1.00  0.00     0.013 A 
HETATM   29  C   UNL     1      43.544 -18.205   2.426  1.00  0.00     0.001 A 
HETATM   30  C   UNL     1      44.037 -19.089   3.376  1.00  0.00     0.001 A 
BRANCH  22  31
HETATM   31  O   UNL     1      42.934 -13.432   6.237  1.00  0.00    -0.350 OA
BRANCH  31  32
HETATM   32  C   UNL     1      43.821 -12.758   7.135  1.00  0.00     0.171 C 
HETATM   33  C   UNL     1      44.734 -11.871   6.308  1.00  0.00     0.034 C 
ENDBRANCH  31  32
ENDBRANCH  22  31
ENDBRANCH   1  21
TORSDOF 7
ENDMDL
MODEL 9
REMARK VINA RESULT:      -7.5      4.272      5.703
REMARK  7 active torsions:
REMARK  status: ('A' for Active; 'I' for Inactive)
REMARK    1  A    between atoms: C_2  and  O_3 
REMARK    2  A    between atoms: O_3  and  C_4 
REMARK    3  A    between atoms: C_5  and  C_6 
REMARK       I    between atoms: C_6  and  N_7 
REMARK    4  A    between atoms: N_7  and  C_8 
REMARK    5  A    between atoms: C_8  and  C_9 
REMARK    6  A    between atoms: C_9  and  N_10 
REMARK    7  A    between atoms: N_14  and  C_15 
ROOT
HETATM    1  C   UNL     1      41.170 -15.318   2.776  1.00  0.00     0.255 C 
HETATM    2  N   UNL     1      41.596 -14.364   1.875  1.00  0.00    -0.355 N 
HETATM    3  O   UNL     1      40.015 -15.731   2.796  1.00  0.00    -0.268 OA
HETATM    4  H   UNL     1      42.560 -14.047   1.963  1.00  0.00     0.162 HD
ENDROOT
BRANCH   2   5
HETATM    5  C   UNL     1      40.683 -13.554   1.080  1.00  0.00     0.150 C 
BRANCH   5   6
HETATM    6  C   UNL     1      40.347 -14.112  -0.320  1.00  0.00     0.254 C 
BRANCH   6   7
HETATM    7  N   UNL     1      39.725 -13.091  -1.237  1.00  0.00    -0.067 N 
HETATM    8  H   UNL     1      40.276 -13.114  -2.121  1.00  0.00     0.280 HD
HETATM    9  C   UNL     1      38.302 -13.420  -1.689  1.00  0.00     0.254 C 
HETATM   10  C   UNL     1      37.812 -12.363  -2.704  1.00  0.00     0.150 C 
HETATM   11  N   UNL     1      37.894 -11.007  -2.123  1.00  0.00    -0.378 N 
HETATM   12  C   UNL     1      39.267 -10.646  -1.705  1.00  0.00     0.150 C 
HETATM   13  C   UNL     1      39.817 -11.673  -0.688  1.00  0.00     0.254 C 
BRANCH  11  14
HETATM   14  C   UNL     1      36.807 -10.437  -1.463  1.00  0.00     0.030 A 
HETATM   15  C   UNL     1      35.685  -9.922  -2.137  1.00  0.00     0.031 A 
HETATM   16  C   UNL     1      34.616  -9.323  -1.455  1.00  0.00     0.026 A 
HETATM   17  C   UNL     1      34.649  -9.215  -0.072  1.00  0.00     0.034 A 
HETATM   18 CL   UNL     1      33.344  -8.476   0.764  1.00  0.00    -0.084 Cl
HETATM   19  C   UNL     1      35.745  -9.694   0.628  1.00  0.00     0.026 A 
HETATM   20  C   UNL     1      36.810 -10.288  -0.064  1.00  0.00     0.031 A 
ENDBRANCH  11  14
ENDBRANCH   6   7
ENDBRANCH   5   6
ENDBRANCH   2   5
BRANCH   1  21
HETATM   21  C   UNL     1      42.199 -15.835   3.702  1.00  0.00     0.076 A 
HETATM   22  C   UNL     1      42.554 -15.035   4.804  1.00  0.00     0.085 A 
HETATM   23  C   UNL     1      43.493 -15.521   5.711  1.00  0.00     0.039 A 
HETATM   24  C   UNL     1      44.087 -16.771   5.508  1.00  0.00     0.015 A 
HETATM   25  C   UNL     1      43.763 -17.560   4.394  1.00  0.00    -0.025 A 
HETATM   26  C   UNL     1      42.810 -17.097   3.458  1.00  0.00    -0.007 A 
HETATM   27  C   UNL     1      44.388 -18.803   4.206  1.00  0.00     0.012 A 
HETATM   28  C   UNL     1      42.545 -17.916   2.330  1.00  0.00     0.013 A 
HETATM   29  C   UNL     1      43.177 -19.149   2.156  1.00  0.00     0.001 A 
HETATM   30  C   UNL     1      44.095 -19.595   3.098  1.00  0.00     0.001 A 
BRANCH  22  31
HETATM   31  O   UNL     1      41.905 -13.834   4.950  1.00  0.00    -0.350 OA
BRANCH  31  32
HETATM   32  C   UNL     1      40.947 -13.766   6.010  1.00  0.00     0.171 C 
HETATM   33  C   UNL     1      39.779 -12.925   5.527  1.00  0.00     0.034 C 
ENDBRANCH  31  32
ENDBRANCH  22  31
ENDBRANCH   1  21
TORSDOF 7
ENDMDL
MODEL 10
REMARK VINA RESULT:      -7.4      3.008      5.029
REMARK  7 active torsions:
REMARK  status: ('A' for Active; 'I' for Inactive)
REMARK    1  A    between atoms: C_2  and  O_3 
REMARK    2  A    between atoms: O_3  and  C_4 
REMARK    3  A    between atoms: C_5  and  C_6 
REMARK       I    between atoms: C_6  and  N_7 
REMARK    4  A    between atoms: N_7  and  C_8 
REMARK    5  A    between atoms: C_8  and  C_9 
REMARK    6  A    between atoms: C_9  and  N_10 
REMARK    7  A    between atoms: N_14  and  C_15 
ROOT
HETATM    1  C   UNL     1      42.807 -15.369   5.165  1.00  0.00     0.255 C 
HETATM    2  N   UNL     1      41.552 -14.816   5.019  1.00  0.00    -0.355 N 
HETATM    3  O   UNL     1      43.610 -14.959   5.998  1.00  0.00    -0.268 OA
HETATM    4  H   UNL     1      40.970 -15.189   4.270  1.00  0.00     0.162 HD
ENDROOT
BRANCH   2   5
HETATM    5  C   UNL     1      41.169 -13.538   5.605  1.00  0.00     0.150 C 
BRANCH   5   6
HETATM    6  C   UNL     1      41.968 -12.314   5.108  1.00  0.00     0.254 C 
BRANCH   6   7
HETATM    7  N   UNL     1      41.148 -11.363   4.275  1.00  0.00    -0.067 N 
HETATM    8  H   UNL     1      41.180 -10.442   4.762  1.00  0.00     0.280 HD
HETATM    9  C   UNL     1      41.724 -11.062   2.892  1.00  0.00     0.254 C 
HETATM   10  C   UNL     1      40.859  -9.999   2.178  1.00  0.00     0.150 C 
HETATM   11  N   UNL     1      39.454 -10.446   2.091  1.00  0.00    -0.378 N 
HETATM   12  C   UNL     1      38.856 -10.715   3.419  1.00  0.00     0.150 C 
HETATM   13  C   UNL     1      39.683 -11.771   4.187  1.00  0.00     0.254 C 
BRANCH  11  14
HETATM   14  C   UNL     1      38.984 -11.139   0.978  1.00  0.00     0.030 A 
HETATM   15  C   UNL     1      39.652 -12.247   0.426  1.00  0.00     0.031 A 
HETATM   16  C   UNL     1      39.179 -12.911  -0.715  1.00  0.00     0.026 A 
HETATM   17  C   UNL     1      38.022 -12.473  -1.342  1.00  0.00     0.034 A 
HETATM   18 CL   UNL     1      37.444 -13.280  -2.744  1.00  0.00    -0.084 Cl
HETATM   19  C   UNL     1      37.343 -11.372  -0.841  1.00  0.00     0.026 A 
HETATM   20  C   UNL     1      37.827 -10.715   0.298  1.00  0.00     0.031 A 
ENDBRANCH  11  14
ENDBRANCH   6   7
ENDBRANCH   5   6
ENDBRANCH   2   5
BRANCH   1  21
HETATM   21  C   UNL     1      43.119 -16.507   4.276  1.00  0.00     0.076 A 
HETATM   22  C   UNL     1      43.143 -16.269   2.889  1.00  0.00     0.085 A 
HETATM   23  C   UNL     1      43.474 -17.319   2.034  1.00  0.00     0.039 A 
HETATM   24  C   UNL     1      43.748 -18.589   2.553  1.00  0.00     0.015 A 
HETATM   25  C   UNL     1      43.693 -18.841   3.931  1.00  0.00    -0.025 A 
HETATM   26  C   UNL     1      43.365 -17.796   4.825  1.00  0.00    -0.007 A 
HETATM   27  C   UNL     1      43.956 -20.130   4.422  1.00  0.00     0.012 A 
HETATM   28  C   UNL     1      43.288 -18.113   6.206  1.00  0.00     0.013 A 
HETATM   29  C   UNL     1      43.550 -19.400   6.679  1.00  0.00     0.001 A 
HETATM   30  C   UNL     1      43.890 -20.408   5.786  1.00  0.00     0.001 A 
BRANCH  22  31
HETATM   31  O   UNL     1      42.891 -14.990   2.460  1.00  0.00    -0.350 OA
BRANCH  31  32
HETATM   32  C   UNL     1      42.005 -14.867   1.344  1.00  0.00     0.171 C 
HETATM   33  C   UNL     1      40.662 -15.447   1.751  1.00  0.00     0.034 C 
ENDBRANCH  31  32
ENDBRANCH  22  31
ENDBRANCH   1  21
TORSDOF 7
ENDMDL
