MODEL 1
REMARK VINA RESULT:      -8.1      0.000      0.000
REMARK  7 active torsions:
REMARK  status: ('A' for Active; 'I' for Inactive)
REMARK    1  A    between atoms: C_5  and  N_6 
REMARK    2  A    between atoms: N_6  and  C_9 
REMARK    3  A    between atoms: C_9  and  C_10 
REMARK    4  A    between atoms: C_10  and  C_11 
REMARK    5  A    between atoms: C_10  and  C_13 
REMARK    6  A    between atoms: C_11  and  O_12 
REMARK    7  A    between atoms: C_13  and  C_14 
ROOT
HETATM    1  N   UNL     1      42.349 -16.425   5.719  1.00  0.00    -0.066 N 
HETATM    2  H   UNL     1      41.667 -16.067   5.028  1.00  0.00     0.278 HD
HETATM    3  H   UNL     1      41.923 -17.288   6.111  1.00  0.00     0.278 HD
ENDROOT
BRANCH   1   4
HETATM    4  C   UNL     1      43.626 -16.787   5.064  1.00  0.00     0.220 C 
HETATM    5  C   UNL     1      43.733 -18.260   4.820  1.00  0.00    -0.021 A 
HETATM    6  C   UNL     1      43.558 -18.577   3.465  1.00  0.00    -0.040 A 
HETATM    7  C   UNL     1      43.957 -19.247   5.770  1.00  0.00     0.010 A 
HETATM    8  C   UNL     1      43.626 -19.898   3.028  1.00  0.00    -0.055 A 
HETATM    9  C   UNL     1      43.302 -17.336   2.653  1.00  0.00     0.018 C 
HETATM   10  C   UNL     1      43.431 -20.287   1.592  1.00  0.00     0.049 C 
HETATM   11  C   UNL     1      43.840 -20.895   3.993  1.00  0.00     0.007 A 
HETATM   12  C   UNL     1      44.007 -20.574   5.346  1.00  0.00     0.001 A 
HETATM   13  C   UNL     1      43.711 -16.215   3.639  1.00  0.00     0.047 C 
HETATM   14  C   UNL     1      41.852 -17.227   2.198  1.00  0.00     0.015 C 
ENDBRANCH   1   4
BRANCH   1  15
HETATM   15  C   UNL     1      42.426 -15.441   6.835  1.00  0.00     0.240 C 
BRANCH  15  16
HETATM   16  C   UNL     1      41.864 -14.072   6.399  1.00  0.00     0.040 C 
BRANCH  16  17
HETATM   17  C   UNL     1      40.561 -14.269   5.607  1.00  0.00     0.170 C 
BRANCH  17  18
HETATM   18  O   UNL     1      39.582 -14.870   6.456  1.00  0.00    -0.400 OA
HETATM   19  H   UNL     1      38.908 -15.264   5.862  1.00  0.00     0.209 HD
ENDBRANCH  17  18
ENDBRANCH  16  17
BRANCH  16  20
HETATM   20  C   UNL     1      42.838 -13.215   5.562  1.00  0.00     0.067 C 
BRANCH  20  21
HETATM   21  C   UNL     1      43.502 -12.118   6.350  1.00  0.00     0.034 A 
HETATM   22  N   UNL     1      42.712 -11.067   6.702  1.00  0.00    -0.266 NA
HETATM   23  C   UNL     1      43.305 -10.084   7.426  1.00  0.00     0.117 A 
HETATM   24  C   UNL     1      44.637 -10.090   7.802  1.00  0.00     0.019 A 
HETATM   25  C   UNL     1      45.421 -11.169   7.422  1.00  0.00     0.003 A 
HETATM   26  C   UNL     1      44.850 -12.202   6.684  1.00  0.00     0.027 A 
ENDBRANCH  20  21
ENDBRANCH  16  20
ENDBRANCH  15  16
ENDBRANCH   1  15
TORSDOF 7
ENDMDL
MODEL 2
REMARK VINA RESULT:      -7.9      1.886      2.424
REMARK  7 active torsions:
REMARK  status: ('A' for Active; 'I' for Inactive)
REMARK    1  A    between atoms: C_5  and  N_6 
REMARK    2  A    between atoms: N_6  and  C_9 
REMARK    3  A    between atoms: C_9  and  C_10 
REMARK    4  A    between atoms: C_10  and  C_11 
REMARK    5  A    between atoms: C_10  and  C_13 
REMARK    6  A    between atoms: C_11  and  O_12 
REMARK    7  A    between atoms: C_13  and  C_14 
ROOT
HETATM    1  N   UNL     1      42.445 -16.817   5.980  1.00  0.00    -0.066 N 
HETATM    2  H   UNL     1      41.651 -16.963   5.332  1.00  0.00     0.278 HD
HETATM    3  H   UNL     1      42.290 -17.477   6.767  1.00  0.00     0.278 HD
ENDROOT
BRANCH   1   4
HETATM    4  C   UNL     1      43.729 -17.161   5.327  1.00  0.00     0.220 C 
HETATM    5  C   UNL     1      43.794 -18.606   4.943  1.00  0.00    -0.021 A 
HETATM    6  C   UNL     1      43.650 -18.785   3.560  1.00  0.00    -0.040 A 
HETATM    7  C   UNL     1      43.956 -19.688   5.798  1.00  0.00     0.010 A 
HETATM    8  C   UNL     1      43.687 -20.059   2.998  1.00  0.00    -0.055 A 
HETATM    9  C   UNL     1      43.461 -17.463   2.866  1.00  0.00     0.018 C 
HETATM   10  C   UNL     1      43.523 -20.300   1.526  1.00  0.00     0.049 C 
HETATM   11  C   UNL     1      43.838 -21.151   3.867  1.00  0.00     0.007 A 
HETATM   12  C   UNL     1      43.974 -20.969   5.249  1.00  0.00     0.001 A 
HETATM   13  C   UNL     1      43.877 -16.458   3.967  1.00  0.00     0.047 C 
HETATM   14  C   UNL     1      42.030 -17.257   2.385  1.00  0.00     0.015 C 
ENDBRANCH   1   4
BRANCH   1  15
HETATM   15  C   UNL     1      42.329 -15.443   6.542  1.00  0.00     0.240 C 
BRANCH  15  16
HETATM   16  C   UNL     1      40.849 -15.038   6.701  1.00  0.00     0.040 C 
BRANCH  16  17
HETATM   17  C   UNL     1      39.940 -16.213   6.309  1.00  0.00     0.170 C 
BRANCH  17  18
HETATM   18  O   UNL     1      39.867 -16.297   4.884  1.00  0.00    -0.400 OA
HETATM   19  H   UNL     1      39.576 -15.414   4.573  1.00  0.00     0.209 HD
ENDBRANCH  17  18
ENDBRANCH  16  17
BRANCH  16  20
HETATM   20  C   UNL     1      40.435 -13.789   5.891  1.00  0.00     0.067 C 
BRANCH  20  21
HETATM   21  C   UNL     1      41.465 -13.362   4.880  1.00  0.00     0.034 A 
HETATM   22  N   UNL     1      41.332 -13.879   3.629  1.00  0.00    -0.266 NA
HETATM   23  C   UNL     1      42.250 -13.483   2.712  1.00  0.00     0.117 A 
HETATM   24  C   UNL     1      43.294 -12.614   2.981  1.00  0.00     0.019 A 
HETATM   25  C   UNL     1      43.411 -12.108   4.267  1.00  0.00     0.003 A 
HETATM   26  C   UNL     1      42.485 -12.484   5.236  1.00  0.00     0.027 A 
ENDBRANCH  20  21
ENDBRANCH  16  20
ENDBRANCH  15  16
ENDBRANCH   1  15
TORSDOF 7
ENDMDL
MODEL 3
REMARK VINA RESULT:      -7.8      1.914      3.305
REMARK  7 active torsions:
REMARK  status: ('A' for Active; 'I' for Inactive)
REMARK    1  A    between atoms: C_5  and  N_6 
REMARK    2  A    between atoms: N_6  and  C_9 
REMARK    3  A    between atoms: C_9  and  C_10 
REMARK    4  A    between atoms: C_10  and  C_11 
REMARK    5  A    between atoms: C_10  and  C_13 
REMARK    6  A    between atoms: C_11  and  O_12 
REMARK    7  A    between atoms: C_13  and  C_14 
ROOT
HETATM    1  N   UNL     1      42.373 -13.845   4.433  1.00  0.00    -0.066 N 
HETATM    2  H   UNL     1      43.393 -13.991   4.333  1.00  0.00     0.278 HD
HETATM    3  H   UNL     1      42.058 -13.442   3.529  1.00  0.00     0.278 HD
ENDROOT
BRANCH   1   4
HETATM    4  C   UNL     1      41.672 -15.132   4.642  1.00  0.00     0.220 C 
HETATM    5  C   UNL     1      42.269 -16.235   3.826  1.00  0.00    -0.021 A 
HETATM    6  C   UNL     1      43.018 -17.120   4.615  1.00  0.00    -0.040 A 
HETATM    7  C   UNL     1      42.153 -16.412   2.454  1.00  0.00     0.010 A 
HETATM    8  C   UNL     1      43.653 -18.221   4.044  1.00  0.00    -0.055 A 
HETATM    9  C   UNL     1      43.008 -16.691   6.057  1.00  0.00     0.018 C 
HETATM   10  C   UNL     1      44.476 -19.186   4.845  1.00  0.00     0.049 C 
HETATM   11  C   UNL     1      43.544 -18.389   2.655  1.00  0.00     0.007 A 
HETATM   12  C   UNL     1      42.801 -17.499   1.870  1.00  0.00     0.001 A 
HETATM   13  C   UNL     1      41.862 -15.651   6.077  1.00  0.00     0.047 C 
HETATM   14  C   UNL     1      44.345 -16.109   6.500  1.00  0.00     0.015 C 
ENDBRANCH   1   4
BRANCH   1  15
HETATM   15  C   UNL     1      42.163 -12.794   5.467  1.00  0.00     0.240 C 
BRANCH  15  16
HETATM   16  C   UNL     1      43.395 -11.871   5.570  1.00  0.00     0.040 C 
BRANCH  16  17
HETATM   17  C   UNL     1      44.045 -11.709   4.187  1.00  0.00     0.170 C 
BRANCH  17  18
HETATM   18  O   UNL     1      43.068 -11.226   3.262  1.00  0.00    -0.400 OA
HETATM   19  H   UNL     1      43.112 -10.247   3.304  1.00  0.00     0.209 HD
ENDBRANCH  17  18
ENDBRANCH  16  17
BRANCH  16  20
HETATM   20  C   UNL     1      44.466 -12.340   6.579  1.00  0.00     0.067 C 
BRANCH  20  21
HETATM   21  C   UNL     1      44.870 -11.277   7.564  1.00  0.00     0.034 A 
HETATM   22  N   UNL     1      44.167 -11.237   8.728  1.00  0.00    -0.266 NA
HETATM   23  C   UNL     1      44.539 -10.288   9.625  1.00  0.00     0.117 A 
HETATM   24  C   UNL     1      45.560  -9.377   9.415  1.00  0.00     0.019 A 
HETATM   25  C   UNL     1      46.254  -9.435   8.215  1.00  0.00     0.003 A 
HETATM   26  C   UNL     1      45.908 -10.397   7.272  1.00  0.00     0.027 A 
ENDBRANCH  20  21
ENDBRANCH  16  20
ENDBRANCH  15  16
ENDBRANCH   1  15
TORSDOF 7
ENDMDL
MODEL 4
REMARK VINA RESULT:      -7.8      1.994      3.507
REMARK  7 active torsions:
REMARK  status: ('A' for Active; 'I' for Inactive)
REMARK    1  A    between atoms: C_5  and  N_6 
REMARK    2  A    between atoms: N_6  and  C_9 
REMARK    3  A    between atoms: C_9  and  C_10 
REMARK    4  A    between atoms: C_10  and  C_11 
REMARK    5  A    between atoms: C_10  and  C_13 
REMARK    6  A    between atoms: C_11  and  O_12 
REMARK    7  A    between atoms: C_13  and  C_14 
ROOT
HETATM    1  N   UNL     1      42.141 -16.512   5.606  1.00  0.00    -0.066 N 
HETATM    2  H   UNL     1      41.447 -16.338   4.858  1.00  0.00     0.278 HD
HETATM    3  H   UNL     1      41.797 -17.346   6.120  1.00  0.00     0.278 HD
ENDROOT
BRANCH   1   4
HETATM    4  C   UNL     1      43.468 -16.831   5.032  1.00  0.00     0.220 C 
HETATM    5  C   UNL     1      43.651 -18.301   4.822  1.00  0.00    -0.021 A 
HETATM    6  C   UNL     1      43.567 -18.648   3.466  1.00  0.00    -0.040 A 
HETATM    7  C   UNL     1      43.860 -19.262   5.802  1.00  0.00     0.010 A 
HETATM    8  C   UNL     1      43.716 -19.972   3.058  1.00  0.00    -0.055 A 
HETATM    9  C   UNL     1      43.308 -17.433   2.617  1.00  0.00     0.018 C 
HETATM   10  C   UNL     1      43.620 -20.392   1.621  1.00  0.00     0.049 C 
HETATM   11  C   UNL     1      43.914 -20.943   4.052  1.00  0.00     0.007 A 
HETATM   12  C   UNL     1      43.989 -20.592   5.407  1.00  0.00     0.001 A 
HETATM   13  C   UNL     1      43.612 -16.279   3.604  1.00  0.00     0.047 C 
HETATM   14  C   UNL     1      41.884 -17.392   2.078  1.00  0.00     0.015 C 
ENDBRANCH   1   4
BRANCH   1  15
HETATM   15  C   UNL     1      42.083 -15.367   6.557  1.00  0.00     0.240 C 
BRANCH  15  16
HETATM   16  C   UNL     1      42.744 -14.113   5.949  1.00  0.00     0.040 C 
BRANCH  16  17
HETATM   17  C   UNL     1      43.607 -13.410   7.008  1.00  0.00     0.170 C 
BRANCH  17  18
HETATM   18  O   UNL     1      43.048 -12.125   7.292  1.00  0.00    -0.400 OA
HETATM   19  H   UNL     1      42.592 -12.210   8.156  1.00  0.00     0.209 HD
ENDBRANCH  17  18
ENDBRANCH  16  17
BRANCH  16  20
HETATM   20  C   UNL     1      41.752 -13.093   5.348  1.00  0.00     0.067 C 
BRANCH  20  21
HETATM   21  C   UNL     1      41.377 -13.389   3.921  1.00  0.00     0.034 A 
HETATM   22  N   UNL     1      42.254 -12.973   2.969  1.00  0.00    -0.266 NA
HETATM   23  C   UNL     1      41.925 -13.252   1.683  1.00  0.00     0.117 A 
HETATM   24  C   UNL     1      40.768 -13.910   1.301  1.00  0.00     0.019 A 
HETATM   25  C   UNL     1      39.887 -14.316   2.292  1.00  0.00     0.003 A 
HETATM   26  C   UNL     1      40.190 -14.054   3.624  1.00  0.00     0.027 A 
ENDBRANCH  20  21
ENDBRANCH  16  20
ENDBRANCH  15  16
ENDBRANCH   1  15
TORSDOF 7
ENDMDL
MODEL 5
REMARK VINA RESULT:      -7.7      4.161      6.497
REMARK  7 active torsions:
REMARK  status: ('A' for Active; 'I' for Inactive)
REMARK    1  A    between atoms: C_5  and  N_6 
REMARK    2  A    between atoms: N_6  and  C_9 
REMARK    3  A    between atoms: C_9  and  C_10 
REMARK    4  A    between atoms: C_10  and  C_11 
REMARK    5  A    between atoms: C_10  and  C_13 
REMARK    6  A    between atoms: C_11  and  O_12 
REMARK    7  A    between atoms: C_13  and  C_14 
ROOT
HETATM    1  N   UNL     1      40.668 -16.125   2.085  1.00  0.00    -0.066 N 
HETATM    2  H   UNL     1      40.652 -17.075   1.674  1.00  0.00     0.278 HD
HETATM    3  H   UNL     1      40.027 -16.162   2.901  1.00  0.00     0.278 HD
ENDROOT
BRANCH   1   4
HETATM    4  C   UNL     1      42.024 -15.781   2.570  1.00  0.00     0.220 C 
HETATM    5  C   UNL     1      42.271 -16.290   3.956  1.00  0.00    -0.021 A 
HETATM    6  C   UNL     1      43.126 -17.402   3.957  1.00  0.00    -0.040 A 
HETATM    7  C   UNL     1      41.737 -15.788   5.135  1.00  0.00     0.010 A 
HETATM    8  C   UNL     1      43.485 -18.023   5.152  1.00  0.00    -0.055 A 
HETATM    9  C   UNL     1      43.539 -17.762   2.556  1.00  0.00     0.018 C 
HETATM   10  C   UNL     1      44.385 -19.222   5.201  1.00  0.00     0.049 C 
HETATM   11  C   UNL     1      42.934 -17.520   6.341  1.00  0.00     0.007 A 
HETATM   12  C   UNL     1      42.074 -16.414   6.333  1.00  0.00     0.001 A 
HETATM   13  C   UNL     1      43.113 -16.504   1.760  1.00  0.00     0.047 C 
HETATM   14  C   UNL     1      42.864 -19.035   2.060  1.00  0.00     0.015 C 
ENDBRANCH   1   4
BRANCH   1  15
HETATM   15  C   UNL     1      40.055 -15.191   1.100  1.00  0.00     0.240 C 
BRANCH  15  16
HETATM   16  C   UNL     1      40.612 -13.764   1.276  1.00  0.00     0.040 C 
BRANCH  16  17
HETATM   17  C   UNL     1      39.697 -12.956   2.209  1.00  0.00     0.170 C 
BRANCH  17  18
HETATM   18  O   UNL     1      38.713 -13.826   2.772  1.00  0.00    -0.400 OA
HETATM   19  H   UNL     1      37.972 -13.853   2.131  1.00  0.00     0.209 HD
ENDBRANCH  17  18
ENDBRANCH  16  17
BRANCH  16  20
HETATM   20  C   UNL     1      40.803 -12.982  -0.043  1.00  0.00     0.067 C 
BRANCH  20  21
HETATM   21  C   UNL     1      39.744 -13.274  -1.072  1.00  0.00     0.034 A 
HETATM   22  N   UNL     1      38.576 -12.587  -0.945  1.00  0.00    -0.266 NA
HETATM   23  C   UNL     1      37.625 -12.837  -1.880  1.00  0.00     0.117 A 
HETATM   24  C   UNL     1      37.774 -13.740  -2.919  1.00  0.00     0.019 A 
HETATM   25  C   UNL     1      38.971 -14.432  -3.019  1.00  0.00     0.003 A 
HETATM   26  C   UNL     1      39.975 -14.200  -2.084  1.00  0.00     0.027 A 
ENDBRANCH  20  21
ENDBRANCH  16  20
ENDBRANCH  15  16
ENDBRANCH   1  15
TORSDOF 7
ENDMDL
MODEL 6
REMARK VINA RESULT:      -7.5      4.322      6.679
REMARK  7 active torsions:
REMARK  status: ('A' for Active; 'I' for Inactive)
REMARK    1  A    between atoms: C_5  and  N_6 
REMARK    2  A    between atoms: N_6  and  C_9 
REMARK    3  A    between atoms: C_9  and  C_10 
REMARK    4  A    between atoms: C_10  and  C_11 
REMARK    5  A    between atoms: C_10  and  C_13 
REMARK    6  A    between atoms: C_11  and  O_12 
REMARK    7  A    between atoms: C_13  and  C_14 
ROOT
HETATM    1  N   UNL     1      41.341 -15.593   1.523  1.00  0.00    -0.066 N 
HETATM    2  H   UNL     1      42.134 -14.961   1.731  1.00  0.00     0.278 HD
HETATM    3  H   UNL     1      41.637 -16.151   0.699  1.00  0.00     0.278 HD
ENDROOT
BRANCH   1   4
HETATM    4  C   UNL     1      41.095 -16.519   2.652  1.00  0.00     0.220 C 
HETATM    5  C   UNL     1      42.341 -17.231   3.076  1.00  0.00    -0.021 A 
HETATM    6  C   UNL     1      42.841 -16.730   4.287  1.00  0.00    -0.040 A 
HETATM    7  C   UNL     1      42.987 -18.255   2.397  1.00  0.00     0.010 A 
HETATM    8  C   UNL     1      43.995 -17.263   4.857  1.00  0.00    -0.055 A 
HETATM    9  C   UNL     1      41.977 -15.610   4.800  1.00  0.00     0.018 C 
HETATM   10  C   UNL     1      44.575 -16.750   6.141  1.00  0.00     0.049 C 
HETATM   11  C   UNL     1      44.653 -18.289   4.160  1.00  0.00     0.007 A 
HETATM   12  C   UNL     1      44.154 -18.782   2.948  1.00  0.00     0.001 A 
HETATM   13  C   UNL     1      40.705 -15.759   3.931  1.00  0.00     0.047 C 
HETATM   14  C   UNL     1      42.641 -14.247   4.652  1.00  0.00     0.015 C 
ENDBRANCH   1   4
BRANCH   1  15
HETATM   15  C   UNL     1      40.191 -14.755   1.084  1.00  0.00     0.240 C 
BRANCH  15  16
HETATM   16  C   UNL     1      40.545 -13.255   1.160  1.00  0.00     0.040 C 
BRANCH  16  17
HETATM   17  C   UNL     1      39.514 -12.517   2.030  1.00  0.00     0.170 C 
BRANCH  17  18
HETATM   18  O   UNL     1      38.602 -13.467   2.585  1.00  0.00    -0.400 OA
HETATM   19  H   UNL     1      37.746 -13.324   2.129  1.00  0.00     0.209 HD
ENDBRANCH  17  18
ENDBRANCH  16  17
BRANCH  16  20
HETATM   20  C   UNL     1      40.645 -12.550  -0.210  1.00  0.00     0.067 C 
BRANCH  20  21
HETATM   21  C   UNL     1      39.655 -13.061  -1.222  1.00  0.00     0.034 A 
HETATM   22  N   UNL     1      38.397 -12.547  -1.146  1.00  0.00    -0.266 NA
HETATM   23  C   UNL     1      37.507 -12.995  -2.067  1.00  0.00     0.117 A 
HETATM   24  C   UNL     1      37.801 -13.932  -3.043  1.00  0.00     0.019 A 
HETATM   25  C   UNL     1      39.089 -14.446  -3.091  1.00  0.00     0.003 A 
HETATM   26  C   UNL     1      40.034 -14.007  -2.169  1.00  0.00     0.027 A 
ENDBRANCH  20  21
ENDBRANCH  16  20
ENDBRANCH  15  16
ENDBRANCH   1  15
TORSDOF 7
ENDMDL
MODEL 7
REMARK VINA RESULT:      -7.4      3.453      4.835
REMARK  7 active torsions:
REMARK  status: ('A' for Active; 'I' for Inactive)
REMARK    1  A    between atoms: C_5  and  N_6 
REMARK    2  A    between atoms: N_6  and  C_9 
REMARK    3  A    between atoms: C_9  and  C_10 
REMARK    4  A    between atoms: C_10  and  C_11 
REMARK    5  A    between atoms: C_10  and  C_13 
REMARK    6  A    between atoms: C_11  and  O_12 
REMARK    7  A    between atoms: C_13  and  C_14 
ROOT
HETATM    1  N   UNL     1      41.417 -15.336   1.345  1.00  0.00    -0.066 N 
HETATM    2  H   UNL     1      41.822 -14.450   1.694  1.00  0.00     0.278 HD
HETATM    3  H   UNL     1      42.171 -15.791   0.795  1.00  0.00     0.278 HD
ENDROOT
BRANCH   1   4
HETATM    4  C   UNL     1      41.050 -16.228   2.468  1.00  0.00     0.220 C 
HETATM    5  C   UNL     1      42.206 -17.065   2.920  1.00  0.00    -0.021 A 
HETATM    6  C   UNL     1      42.728 -16.616   4.141  1.00  0.00    -0.040 A 
HETATM    7  C   UNL     1      42.758 -18.152   2.255  1.00  0.00     0.010 A 
HETATM    8  C   UNL     1      43.808 -17.265   4.737  1.00  0.00    -0.055 A 
HETATM    9  C   UNL     1      41.973 -15.411   4.635  1.00  0.00     0.018 C 
HETATM   10  C   UNL     1      44.408 -16.811   6.034  1.00  0.00     0.049 C 
HETATM   11  C   UNL     1      44.371 -18.355   4.055  1.00  0.00     0.007 A 
HETATM   12  C   UNL     1      43.850 -18.796   2.831  1.00  0.00     0.001 A 
HETATM   13  C   UNL     1      40.713 -15.429   3.737  1.00  0.00     0.047 C 
HETATM   14  C   UNL     1      42.779 -14.125   4.502  1.00  0.00     0.015 C 
ENDBRANCH   1   4
BRANCH   1  15
HETATM   15  C   UNL     1      40.332 -14.993   0.383  1.00  0.00     0.240 C 
BRANCH  15  16
HETATM   16  C   UNL     1      40.093 -13.469   0.346  1.00  0.00     0.040 C 
BRANCH  16  17
HETATM   17  C   UNL     1      39.520 -13.062  -1.021  1.00  0.00     0.170 C 
BRANCH  17  18
HETATM   18  O   UNL     1      38.213 -13.621  -1.168  1.00  0.00    -0.400 OA
HETATM   19  H   UNL     1      38.278 -14.552  -0.868  1.00  0.00     0.209 HD
ENDBRANCH  17  18
ENDBRANCH  16  17
BRANCH  16  20
HETATM   20  C   UNL     1      41.345 -12.615   0.642  1.00  0.00     0.067 C 
BRANCH  20  21
HETATM   21  C   UNL     1      41.289 -11.908   1.970  1.00  0.00     0.034 A 
HETATM   22  N   UNL     1      42.402 -11.214   2.329  1.00  0.00    -0.266 NA
HETATM   23  C   UNL     1      42.349 -10.563   3.519  1.00  0.00     0.117 A 
HETATM   24  C   UNL     1      41.254 -10.581   4.367  1.00  0.00     0.019 A 
HETATM   25  C   UNL     1      40.136 -11.304   3.979  1.00  0.00     0.003 A 
HETATM   26  C   UNL     1      40.149 -11.980   2.763  1.00  0.00     0.027 A 
ENDBRANCH  20  21
ENDBRANCH  16  20
ENDBRANCH  15  16
ENDBRANCH   1  15
TORSDOF 7
ENDMDL
MODEL 8
REMARK VINA RESULT:      -7.4      2.489      3.697
REMARK  7 active torsions:
REMARK  status: ('A' for Active; 'I' for Inactive)
REMARK    1  A    between atoms: C_5  and  N_6 
REMARK    2  A    between atoms: N_6  and  C_9 
REMARK    3  A    between atoms: C_9  and  C_10 
REMARK    4  A    between atoms: C_10  and  C_11 
REMARK    5  A    between atoms: C_10  and  C_13 
REMARK    6  A    between atoms: C_11  and  O_12 
REMARK    7  A    between atoms: C_13  and  C_14 
ROOT
HETATM    1  N   UNL     1      41.492 -16.310   2.595  1.00  0.00    -0.066 N 
HETATM    2  H   UNL     1      41.077 -17.257   2.550  1.00  0.00     0.278 HD
HETATM    3  H   UNL     1      40.953 -15.802   3.323  1.00  0.00     0.278 HD
ENDROOT
BRANCH   1   4
HETATM    4  C   UNL     1      42.909 -16.373   3.019  1.00  0.00     0.220 C 
HETATM    5  C   UNL     1      43.071 -17.075   4.331  1.00  0.00    -0.021 A 
HETATM    6  C   UNL     1      43.612 -18.360   4.171  1.00  0.00    -0.040 A 
HETATM    7  C   UNL     1      42.733 -16.586   5.585  1.00  0.00     0.010 A 
HETATM    8  C   UNL     1      43.846 -19.177   5.274  1.00  0.00    -0.055 A 
HETATM    9  C   UNL     1      43.862 -18.658   2.717  1.00  0.00     0.018 C 
HETATM   10  C   UNL     1      44.409 -20.562   5.150  1.00  0.00     0.049 C 
HETATM   11  C   UNL     1      43.491 -18.684   6.539  1.00  0.00     0.007 A 
HETATM   12  C   UNL     1      42.945 -17.403   6.694  1.00  0.00     0.001 A 
HETATM   13  C   UNL     1      43.742 -17.255   2.074  1.00  0.00     0.047 C 
HETATM   14  C   UNL     1      42.863 -19.658   2.148  1.00  0.00     0.015 C 
ENDBRANCH   1   4
BRANCH   1  15
HETATM   15  C   UNL     1      41.213 -15.628   1.301  1.00  0.00     0.240 C 
BRANCH  15  16
HETATM   16  C   UNL     1      40.662 -14.206   1.537  1.00  0.00     0.040 C 
BRANCH  16  17
HETATM   17  C   UNL     1      39.916 -13.719   0.285  1.00  0.00     0.170 C 
BRANCH  17  18
HETATM   18  O   UNL     1      39.396 -14.847  -0.421  1.00  0.00    -0.400 OA
HETATM   19  H   UNL     1      39.033 -14.500  -1.264  1.00  0.00     0.209 HD
ENDBRANCH  17  18
ENDBRANCH  16  17
BRANCH  16  20
HETATM   20  C   UNL     1      41.730 -13.161   1.926  1.00  0.00     0.067 C 
BRANCH  20  21
HETATM   21  C   UNL     1      41.959 -13.060   3.410  1.00  0.00     0.034 A 
HETATM   22  N   UNL     1      40.905 -13.391   4.205  1.00  0.00    -0.266 NA
HETATM   23  C   UNL     1      41.114 -13.315   5.544  1.00  0.00     0.117 A 
HETATM   24  C   UNL     1      42.306 -12.917   6.124  1.00  0.00     0.019 A 
HETATM   25  C   UNL     1      43.360 -12.576   5.290  1.00  0.00     0.003 A 
HETATM   26  C   UNL     1      43.189 -12.647   3.911  1.00  0.00     0.027 A 
ENDBRANCH  20  21
ENDBRANCH  16  20
ENDBRANCH  15  16
ENDBRANCH   1  15
TORSDOF 7
ENDMDL
MODEL 9
REMARK VINA RESULT:      -7.1      1.995      3.318
REMARK  7 active torsions:
REMARK  status: ('A' for Active; 'I' for Inactive)
REMARK    1  A    between atoms: C_5  and  N_6 
REMARK    2  A    between atoms: N_6  and  C_9 
REMARK    3  A    between atoms: C_9  and  C_10 
REMARK    4  A    between atoms: C_10  and  C_11 
REMARK    5  A    between atoms: C_10  and  C_13 
REMARK    6  A    between atoms: C_11  and  O_12 
REMARK    7  A    between atoms: C_13  and  C_14 
ROOT
HETATM    1  N   UNL     1      42.267 -13.938   5.222  1.00  0.00    -0.066 N 
HETATM    2  H   UNL     1      43.124 -13.873   5.799  1.00  0.00     0.278 HD
HETATM    3  H   UNL     1      42.580 -13.804   4.241  1.00  0.00     0.278 HD
ENDROOT
BRANCH   1   4
HETATM    4  C   UNL     1      41.653 -15.281   5.339  1.00  0.00     0.220 C 
HETATM    5  C   UNL     1      42.122 -16.208   4.262  1.00  0.00    -0.021 A 
HETATM    6  C   UNL     1      43.028 -17.160   4.752  1.00  0.00    -0.040 A 
HETATM    7  C   UNL     1      41.764 -16.176   2.921  1.00  0.00     0.010 A 
HETATM    8  C   UNL     1      43.579 -18.121   3.907  1.00  0.00    -0.055 A 
HETATM    9  C   UNL     1      43.269 -16.961   6.224  1.00  0.00     0.018 C 
HETATM   10  C   UNL     1      44.562 -19.149   4.383  1.00  0.00     0.049 C 
HETATM   11  C   UNL     1      43.224 -18.077   2.550  1.00  0.00     0.007 A 
HETATM   12  C   UNL     1      42.325 -17.120   2.063  1.00  0.00     0.001 A 
HETATM   13  C   UNL     1      42.116 -16.005   6.614  1.00  0.00     0.047 C 
HETATM   14  C   UNL     1      44.647 -16.379   6.514  1.00  0.00     0.015 C 
ENDBRANCH   1   4
BRANCH   1  15
HETATM   15  C   UNL     1      41.400 -12.776   5.560  1.00  0.00     0.240 C 
BRANCH  15  16
HETATM   16  C   UNL     1      41.488 -11.689   4.468  1.00  0.00     0.040 C 
BRANCH  16  17
HETATM   17  C   UNL     1      42.161 -12.263   3.212  1.00  0.00     0.170 C 
BRANCH  17  18
HETATM   18  O   UNL     1      42.932 -11.237   2.582  1.00  0.00    -0.400 OA
HETATM   19  H   UNL     1      42.594 -10.387   2.932  1.00  0.00     0.209 HD
ENDBRANCH  17  18
ENDBRANCH  16  17
BRANCH  16  20
HETATM   20  C   UNL     1      42.234 -10.407   4.898  1.00  0.00     0.067 C 
BRANCH  20  21
HETATM   21  C   UNL     1      43.344 -10.660   5.882  1.00  0.00     0.034 A 
HETATM   22  N   UNL     1      44.469 -11.240   5.384  1.00  0.00    -0.266 NA
HETATM   23  C   UNL     1      45.477 -11.455   6.267  1.00  0.00     0.117 A 
HETATM   24  C   UNL     1      45.415 -11.135   7.613  1.00  0.00     0.019 A 
HETATM   25  C   UNL     1      44.252 -10.554   8.095  1.00  0.00     0.003 A 
HETATM   26  C   UNL     1      43.197 -10.310   7.221  1.00  0.00     0.027 A 
ENDBRANCH  20  21
ENDBRANCH  16  20
ENDBRANCH  15  16
ENDBRANCH   1  15
TORSDOF 7
ENDMDL
MODEL 10
REMARK VINA RESULT:      -7.0     14.755     16.915
REMARK  7 active torsions:
REMARK  status: ('A' for Active; 'I' for Inactive)
REMARK    1  A    between atoms: C_5  and  N_6 
REMARK    2  A    between atoms: N_6  and  C_9 
REMARK    3  A    between atoms: C_9  and  C_10 
REMARK    4  A    between atoms: C_10  and  C_11 
REMARK    5  A    between atoms: C_10  and  C_13 
REMARK    6  A    between atoms: C_11  and  O_12 
REMARK    7  A    between atoms: C_13  and  C_14 
ROOT
HETATM    1  N   UNL     1      45.615 -30.672   0.421  1.00  0.00    -0.066 N 
HETATM    2  H   UNL     1      45.554 -31.596   0.883  1.00  0.00     0.278 HD
HETATM    3  H   UNL     1      46.378 -30.758  -0.278  1.00  0.00     0.278 HD
ENDROOT
BRANCH   1   4
HETATM    4  C   UNL     1      44.358 -30.353  -0.292  1.00  0.00     0.220 C 
HETATM    5  C   UNL     1      44.610 -29.627  -1.576  1.00  0.00    -0.021 A 
HETATM    6  C   UNL     1      44.413 -30.455  -2.690  1.00  0.00    -0.040 A 
HETATM    7  C   UNL     1      45.010 -28.305  -1.721  1.00  0.00     0.010 A 
HETATM    8  C   UNL     1      44.592 -29.967  -3.983  1.00  0.00    -0.055 A 
HETATM    9  C   UNL     1      44.012 -31.841  -2.263  1.00  0.00     0.018 C 
HETATM   10  C   UNL     1      44.407 -30.819  -5.203  1.00  0.00     0.049 C 
HETATM   11  C   UNL     1      45.009 -28.634  -4.125  1.00  0.00     0.007 A 
HETATM   12  C   UNL     1      45.212 -27.812  -3.008  1.00  0.00     0.001 A 
HETATM   13  C   UNL     1      43.644 -31.627  -0.775  1.00  0.00     0.047 C 
HETATM   14  C   UNL     1      45.132 -32.856  -2.457  1.00  0.00     0.015 C 
ENDBRANCH   1   4
BRANCH   1  15
HETATM   15  C   UNL     1      46.075 -29.685   1.438  1.00  0.00     0.240 C 
BRANCH  15  16
HETATM   16  C   UNL     1      47.600 -29.474   1.348  1.00  0.00     0.040 C 
BRANCH  16  17
HETATM   17  C   UNL     1      48.082 -28.621   2.532  1.00  0.00     0.170 C 
BRANCH  17  18
HETATM   18  O   UNL     1      48.037 -27.240   2.166  1.00  0.00    -0.400 OA
HETATM   19  H   UNL     1      48.018 -26.735   3.006  1.00  0.00     0.209 HD
ENDBRANCH  17  18
ENDBRANCH  16  17
BRANCH  16  20
HETATM   20  C   UNL     1      48.082 -28.825   0.031  1.00  0.00     0.067 C 
BRANCH  20  21
HETATM   21  C   UNL     1      48.852 -29.766  -0.855  1.00  0.00     0.034 A 
HETATM   22  N   UNL     1      50.200 -29.797  -0.674  1.00  0.00    -0.266 NA
HETATM   23  C   UNL     1      50.894 -30.656  -1.462  1.00  0.00     0.117 A 
HETATM   24  C   UNL     1      50.318 -31.471  -2.422  1.00  0.00     0.019 A 
HETATM   25  C   UNL     1      48.943 -31.412  -2.592  1.00  0.00     0.003 A 
HETATM   26  C   UNL     1      48.193 -30.549  -1.799  1.00  0.00     0.027 A 
ENDBRANCH  20  21
ENDBRANCH  16  20
ENDBRANCH  15  16
ENDBRANCH   1  15
TORSDOF 7
ENDMDL
