MODEL 1
REMARK VINA RESULT:      -8.3      0.000      0.000
REMARK  4 active torsions:
REMARK  status: ('A' for Active; 'I' for Inactive)
REMARK    1  A    between atoms: O_2  and  C_3 
REMARK    2  A    between atoms: C_4  and  C_5 
REMARK    3  A    between atoms: C_9  and  N_10 
REMARK    4  A    between atoms: C_13  and  C_14 
ROOT
HETATM    1  C   UNL     1      40.950 -13.566   0.659  1.00  0.00     0.167 C 
HETATM    2  N   UNL     1      40.112 -12.952   1.691  1.00  0.00    -0.074 N 
HETATM    3  C   UNL     1      40.082 -13.358   3.003  1.00  0.00     0.736 A 
HETATM    4  N   UNL     1      39.331 -12.537   3.689  1.00  0.00     0.131 NA
HETATM    5  C   UNL     1      38.985 -11.596   2.768  1.00  0.00     0.753 A 
HETATM    6  N   UNL     1      39.458 -11.785   1.538  1.00  0.00     0.037 NA
HETATM    7  N   UNL     1      40.788 -14.429   3.423  1.00  0.00    -0.214 N 
HETATM    8  C   UNL     1      41.946 -14.808   2.622  1.00  0.00     0.135 C 
HETATM    9  C   UNL     1      41.514 -14.919   1.152  1.00  0.00     0.063 C 
HETATM   10  H   UNL     1      40.919 -14.496   4.430  1.00  0.00     0.178 HD
ENDROOT
BRANCH   1  11
HETATM   11  C   UNL     1      40.262 -13.754  -0.692  1.00  0.00     0.001 A 
HETATM   12  C   UNL     1      40.481 -12.812  -1.719  1.00  0.00     0.076 A 
HETATM   13  C   UNL     1      39.857 -12.962  -2.962  1.00  0.00     0.037 A 
HETATM   14  C   UNL     1      39.046 -14.067  -3.215  1.00  0.00     0.003 A 
HETATM   15  C   UNL     1      38.856 -15.027  -2.226  1.00  0.00     0.001 A 
HETATM   16  C   UNL     1      39.462 -14.876  -0.978  1.00  0.00     0.012 A 
BRANCH  12  17
HETATM   17  O   UNL     1      41.299 -11.752  -1.416  1.00  0.00    -0.355 OA
HETATM   18  C   UNL     1      40.741 -10.464  -1.671  1.00  0.00     0.210 C 
ENDBRANCH  12  17
ENDBRANCH   1  11
BRANCH   8  19
HETATM   19  C   UNL     1      42.537 -16.100   3.151  1.00  0.00    -0.035 A 
HETATM   20  C   UNL     1      42.822 -16.274   4.516  1.00  0.00     0.010 A 
HETATM   21  C   UNL     1      43.349 -17.478   4.988  1.00  0.00     0.019 A 
HETATM   22  C   UNL     1      43.606 -18.517   4.097  1.00  0.00     0.011 A 
HETATM   23 BR   UNL     1      44.316 -20.149   4.734  1.00  0.00    -0.051 Br
HETATM   24  C   UNL     1      43.345 -18.361   2.737  1.00  0.00     0.019 A 
HETATM   25  C   UNL     1      42.814 -17.156   2.268  1.00  0.00     0.010 A 
ENDBRANCH   8  19
BRANCH   5  26
HETATM   26  N   UNL     1      38.212 -10.585   3.152  1.00  0.00    -0.229 N 
HETATM   27  H   UNL     1      38.002  -9.885   2.454  1.00  0.00     0.174 HD
HETATM   28  H   UNL     1      38.364 -10.227   4.085  1.00  0.00     0.174 HD
ENDBRANCH   5  26
TORSDOF 4
ENDMDL
MODEL 2
REMARK VINA RESULT:      -8.3      4.557      6.804
REMARK  4 active torsions:
REMARK  status: ('A' for Active; 'I' for Inactive)
REMARK    1  A    between atoms: O_2  and  C_3 
REMARK    2  A    between atoms: C_4  and  C_5 
REMARK    3  A    between atoms: C_9  and  N_10 
REMARK    4  A    between atoms: C_13  and  C_14 
ROOT
HETATM    1  C   UNL     1      43.079 -12.191   6.026  1.00  0.00     0.167 C 
HETATM    2  N   UNL     1      42.827 -11.810   4.634  1.00  0.00    -0.074 N 
HETATM    3  C   UNL     1      42.703 -12.705   3.599  1.00  0.00     0.736 A 
HETATM    4  N   UNL     1      42.364 -12.061   2.514  1.00  0.00     0.131 NA
HETATM    5  C   UNL     1      42.215 -10.780   2.951  1.00  0.00     0.753 A 
HETATM    6  N   UNL     1      42.458 -10.575   4.243  1.00  0.00     0.037 NA
HETATM    7  N   UNL     1      42.883 -14.029   3.791  1.00  0.00    -0.214 N 
HETATM    8  C   UNL     1      42.693 -14.529   5.147  1.00  0.00     0.135 C 
HETATM    9  C   UNL     1      43.524 -13.669   6.111  1.00  0.00     0.063 C 
HETATM   10  H   UNL     1      42.519 -14.629   3.054  1.00  0.00     0.178 HD
ENDROOT
BRANCH   1  11
HETATM   11  C   UNL     1      44.085 -11.304   6.757  1.00  0.00     0.001 A 
HETATM   12  C   UNL     1      43.618 -10.252   7.573  1.00  0.00     0.076 A 
HETATM   13  C   UNL     1      44.522  -9.424   8.248  1.00  0.00     0.037 A 
HETATM   14  C   UNL     1      45.893  -9.657   8.157  1.00  0.00     0.003 A 
HETATM   15  C   UNL     1      46.366 -10.717   7.391  1.00  0.00     0.001 A 
HETATM   16  C   UNL     1      45.472 -11.537   6.701  1.00  0.00     0.012 A 
BRANCH  12  17
HETATM   17  O   UNL     1      42.257 -10.080   7.634  1.00  0.00    -0.355 OA
HETATM   18  C   UNL     1      41.809  -8.735   7.473  1.00  0.00     0.210 C 
ENDBRANCH  12  17
ENDBRANCH   1  11
BRANCH   8  19
HETATM   19  C   UNL     1      43.066 -15.997   5.212  1.00  0.00    -0.035 A 
HETATM   20  C   UNL     1      42.993 -16.723   6.412  1.00  0.00     0.010 A 
HETATM   21  C   UNL     1      43.323 -18.079   6.448  1.00  0.00     0.019 A 
HETATM   22  C   UNL     1      43.740 -18.721   5.285  1.00  0.00     0.011 A 
HETATM   23 BR   UNL     1      44.184 -20.558   5.330  1.00  0.00    -0.051 Br
HETATM   24  C   UNL     1      43.834 -18.016   4.086  1.00  0.00     0.019 A 
HETATM   25  C   UNL     1      43.499 -16.660   4.052  1.00  0.00     0.010 A 
ENDBRANCH   8  19
BRANCH   5  26
HETATM   26  N   UNL     1      41.854  -9.847   2.074  1.00  0.00    -0.229 N 
HETATM   27  H   UNL     1      41.039 -10.047   1.512  1.00  0.00     0.174 HD
HETATM   28  H   UNL     1      42.600  -9.365   1.593  1.00  0.00     0.174 HD
ENDBRANCH   5  26
TORSDOF 4
ENDMDL
MODEL 3
REMARK VINA RESULT:      -7.8      3.728      7.088
REMARK  4 active torsions:
REMARK  status: ('A' for Active; 'I' for Inactive)
REMARK    1  A    between atoms: O_2  and  C_3 
REMARK    2  A    between atoms: C_4  and  C_5 
REMARK    3  A    between atoms: C_9  and  N_10 
REMARK    4  A    between atoms: C_13  and  C_14 
ROOT
HETATM    1  C   UNL     1      41.917 -14.937   4.189  1.00  0.00     0.167 C 
HETATM    2  N   UNL     1      42.719 -13.715   4.296  1.00  0.00    -0.074 N 
HETATM    3  C   UNL     1      42.652 -12.669   3.408  1.00  0.00     0.736 A 
HETATM    4  N   UNL     1      43.396 -11.688   3.845  1.00  0.00     0.131 NA
HETATM    5  C   UNL     1      43.837 -12.150   5.048  1.00  0.00     0.753 A 
HETATM    6  N   UNL     1      43.431 -13.371   5.385  1.00  0.00     0.037 NA
HETATM    7  N   UNL     1      41.875 -12.732   2.306  1.00  0.00    -0.214 N 
HETATM    8  C   UNL     1      40.752 -13.661   2.345  1.00  0.00     0.135 C 
HETATM    9  C   UNL     1      41.267 -15.038   2.791  1.00  0.00     0.063 C 
HETATM   10  H   UNL     1      41.681 -11.839   1.858  1.00  0.00     0.178 HD
ENDROOT
BRANCH   1  11
HETATM   11  C   UNL     1      42.677 -16.225   4.501  1.00  0.00     0.001 A 
HETATM   12  C   UNL     1      42.664 -16.737   5.816  1.00  0.00     0.076 A 
HETATM   13  C   UNL     1      43.357 -17.913   6.125  1.00  0.00     0.037 A 
HETATM   14  C   UNL     1      44.031 -18.616   5.127  1.00  0.00     0.003 A 
HETATM   15  C   UNL     1      44.015 -18.147   3.818  1.00  0.00     0.001 A 
HETATM   16  C   UNL     1      43.341 -16.966   3.505  1.00  0.00     0.012 A 
BRANCH  12  17
HETATM   17  O   UNL     1      41.973 -16.008   6.752  1.00  0.00    -0.355 OA
HETATM   18  C   UNL     1      42.745 -15.570   7.869  1.00  0.00     0.210 C 
ENDBRANCH  12  17
ENDBRANCH   1  11
BRANCH   8  19
HETATM   19  C   UNL     1      40.074 -13.706   0.990  1.00  0.00    -0.035 A 
HETATM   20  C   UNL     1      39.432 -12.579   0.450  1.00  0.00     0.010 A 
HETATM   21  C   UNL     1      38.829 -12.634  -0.808  1.00  0.00     0.019 A 
HETATM   22  C   UNL     1      38.853 -13.822  -1.535  1.00  0.00     0.011 A 
HETATM   23 BR   UNL     1      38.041 -13.898  -3.240  1.00  0.00    -0.051 Br
HETATM   24  C   UNL     1      39.472 -14.956  -1.013  1.00  0.00     0.019 A 
HETATM   25  C   UNL     1      40.078 -14.897   0.245  1.00  0.00     0.010 A 
ENDBRANCH   8  19
BRANCH   5  26
HETATM   26  N   UNL     1      44.630 -11.369   5.776  1.00  0.00    -0.229 N 
HETATM   27  H   UNL     1      44.955 -10.519   5.338  1.00  0.00     0.174 HD
HETATM   28  H   UNL     1      45.307 -11.834   6.366  1.00  0.00     0.174 HD
ENDBRANCH   5  26
TORSDOF 4
ENDMDL
MODEL 4
REMARK VINA RESULT:      -7.8      4.505      7.442
REMARK  4 active torsions:
REMARK  status: ('A' for Active; 'I' for Inactive)
REMARK    1  A    between atoms: O_2  and  C_3 
REMARK    2  A    between atoms: C_4  and  C_5 
REMARK    3  A    between atoms: C_9  and  N_10 
REMARK    4  A    between atoms: C_13  and  C_14 
ROOT
HETATM    1  C   UNL     1      43.231 -15.656   4.641  1.00  0.00     0.167 C 
HETATM    2  N   UNL     1      41.901 -15.334   4.116  1.00  0.00    -0.074 N 
HETATM    3  C   UNL     1      41.276 -14.123   4.288  1.00  0.00     0.736 A 
HETATM    4  N   UNL     1      40.163 -14.114   3.602  1.00  0.00     0.131 NA
HETATM    5  C   UNL     1      40.189 -15.315   2.961  1.00  0.00     0.753 A 
HETATM    6  N   UNL     1      41.241 -16.089   3.216  1.00  0.00     0.037 NA
HETATM    7  N   UNL     1      41.830 -13.147   5.036  1.00  0.00    -0.214 N 
HETATM    8  C   UNL     1      43.277 -13.194   5.211  1.00  0.00     0.135 C 
HETATM    9  C   UNL     1      43.671 -14.602   5.683  1.00  0.00     0.063 C 
HETATM   10  H   UNL     1      41.443 -12.217   4.895  1.00  0.00     0.178 HD
ENDROOT
BRANCH   1  11
HETATM   11  C   UNL     1      43.359 -17.057   5.235  1.00  0.00     0.001 A 
HETATM   12  C   UNL     1      43.768 -18.126   4.410  1.00  0.00     0.076 A 
HETATM   13  C   UNL     1      43.888 -19.419   4.932  1.00  0.00     0.037 A 
HETATM   14  C   UNL     1      43.646 -19.657   6.284  1.00  0.00     0.003 A 
HETATM   15  C   UNL     1      43.285 -18.605   7.119  1.00  0.00     0.001 A 
HETATM   16  C   UNL     1      43.147 -17.316   6.602  1.00  0.00     0.012 A 
BRANCH  12  17
HETATM   17  O   UNL     1      44.004 -17.828   3.091  1.00  0.00    -0.355 OA
HETATM   18  C   UNL     1      43.383 -18.703   2.151  1.00  0.00     0.210 C 
ENDBRANCH  12  17
ENDBRANCH   1  11
BRANCH   8  19
HETATM   19  C   UNL     1      43.713 -12.115   6.183  1.00  0.00    -0.035 A 
HETATM   20  C   UNL     1      42.822 -11.128   6.635  1.00  0.00     0.010 A 
HETATM   21  C   UNL     1      43.236 -10.153   7.545  1.00  0.00     0.019 A 
HETATM   22  C   UNL     1      44.551 -10.149   8.003  1.00  0.00     0.011 A 
HETATM   23 BR   UNL     1      45.114  -8.833   9.237  1.00  0.00    -0.051 Br
HETATM   24  C   UNL     1      45.456 -11.110   7.556  1.00  0.00     0.019 A 
HETATM   25  C   UNL     1      45.038 -12.087   6.649  1.00  0.00     0.010 A 
ENDBRANCH   8  19
BRANCH   5  26
HETATM   26  N   UNL     1      39.180 -15.625   2.151  1.00  0.00    -0.229 N 
HETATM   27  H   UNL     1      39.245 -15.292   1.200  1.00  0.00     0.174 HD
HETATM   28  H   UNL     1      38.252 -15.599   2.552  1.00  0.00     0.174 HD
ENDBRANCH   5  26
TORSDOF 4
ENDMDL
MODEL 5
REMARK VINA RESULT:      -7.3      2.435      4.093
REMARK  4 active torsions:
REMARK  status: ('A' for Active; 'I' for Inactive)
REMARK    1  A    between atoms: O_2  and  C_3 
REMARK    2  A    between atoms: C_4  and  C_5 
REMARK    3  A    between atoms: C_9  and  N_10 
REMARK    4  A    between atoms: C_13  and  C_14 
ROOT
HETATM    1  C   UNL     1      39.860 -12.099   0.412  1.00  0.00     0.167 C 
HETATM    2  N   UNL     1      39.319 -12.835  -0.734  1.00  0.00    -0.074 N 
HETATM    3  C   UNL     1      39.439 -14.193  -0.904  1.00  0.00     0.736 A 
HETATM    4  N   UNL     1      38.751 -14.555  -1.955  1.00  0.00     0.131 NA
HETATM    5  C   UNL     1      38.161 -13.393  -2.350  1.00  0.00     0.753 A 
HETATM    6  N   UNL     1      38.451 -12.317  -1.624  1.00  0.00     0.037 NA
HETATM    7  N   UNL     1      40.147 -14.950  -0.039  1.00  0.00    -0.214 N 
HETATM    8  C   UNL     1      40.327 -14.416   1.306  1.00  0.00     0.135 C 
HETATM    9  C   UNL     1      40.858 -12.979   1.199  1.00  0.00     0.063 C 
HETATM   10  H   UNL     1      39.965 -15.950  -0.087  1.00  0.00     0.178 HD
ENDROOT
BRANCH   1  11
HETATM   11  C   UNL     1      40.513 -10.764   0.060  1.00  0.00     0.001 A 
HETATM   12  C   UNL     1      40.225  -9.624   0.839  1.00  0.00     0.076 A 
HETATM   13  C   UNL     1      40.808  -8.389   0.532  1.00  0.00     0.037 A 
HETATM   14  C   UNL     1      41.715  -8.282  -0.521  1.00  0.00     0.003 A 
HETATM   15  C   UNL     1      42.043  -9.406  -1.270  1.00  0.00     0.001 A 
HETATM   16  C   UNL     1      41.452 -10.638  -0.981  1.00  0.00     0.012 A 
BRANCH  12  17
HETATM   17  O   UNL     1      39.334  -9.794   1.870  1.00  0.00    -0.355 OA
HETATM   18  C   UNL     1      39.869  -9.576   3.175  1.00  0.00     0.210 C 
ENDBRANCH  12  17
ENDBRANCH   1  11
BRANCH   8  19
HETATM   19  C   UNL     1      41.253 -15.319   2.097  1.00  0.00    -0.035 A 
HETATM   20  C   UNL     1      40.951 -15.711   3.413  1.00  0.00     0.010 A 
HETATM   21  C   UNL     1      41.806 -16.559   4.119  1.00  0.00     0.019 A 
HETATM   22  C   UNL     1      42.978 -17.015   3.521  1.00  0.00     0.011 A 
HETATM   23 BR   UNL     1      44.136 -18.164   4.475  1.00  0.00    -0.051 Br
HETATM   24  C   UNL     1      43.304 -16.626   2.223  1.00  0.00     0.019 A 
HETATM   25  C   UNL     1      42.445 -15.781   1.516  1.00  0.00     0.010 A 
ENDBRANCH   8  19
BRANCH   5  26
HETATM   26  N   UNL     1      37.364 -13.416  -3.414  1.00  0.00    -0.229 N 
HETATM   27  H   UNL     1      37.638 -14.023  -4.173  1.00  0.00     0.174 HD
HETATM   28  H   UNL     1      36.959 -12.533  -3.696  1.00  0.00     0.174 HD
ENDBRANCH   5  26
TORSDOF 4
ENDMDL
MODEL 6
REMARK VINA RESULT:      -7.3      4.419      6.235
REMARK  4 active torsions:
REMARK  status: ('A' for Active; 'I' for Inactive)
REMARK    1  A    between atoms: O_2  and  C_3 
REMARK    2  A    between atoms: C_4  and  C_5 
REMARK    3  A    between atoms: C_9  and  N_10 
REMARK    4  A    between atoms: C_13  and  C_14 
ROOT
HETATM    1  C   UNL     1      42.443 -13.311   3.178  1.00  0.00     0.167 C 
HETATM    2  N   UNL     1      41.048 -12.866   3.132  1.00  0.00    -0.074 N 
HETATM    3  C   UNL     1      40.497 -11.965   4.010  1.00  0.00     0.736 A 
HETATM    4  N   UNL     1      39.277 -11.688   3.630  1.00  0.00     0.131 NA
HETATM    5  C   UNL     1      39.154 -12.383   2.466  1.00  0.00     0.753 A 
HETATM    6  N   UNL     1      40.215 -13.098   2.100  1.00  0.00     0.037 NA
HETATM    7  N   UNL     1      41.204 -11.473   5.049  1.00  0.00    -0.214 N 
HETATM    8  C   UNL     1      42.657 -11.497   4.924  1.00  0.00     0.135 C 
HETATM    9  C   UNL     1      43.095 -12.913   4.522  1.00  0.00     0.063 C 
HETATM   10  H   UNL     1      40.821 -10.635   5.478  1.00  0.00     0.178 HD
ENDROOT
BRANCH   1  11
HETATM   11  C   UNL     1      42.643 -14.805   2.928  1.00  0.00     0.001 A 
HETATM   12  C   UNL     1      42.165 -15.737   3.873  1.00  0.00     0.076 A 
HETATM   13  C   UNL     1      42.341 -17.110   3.667  1.00  0.00     0.037 A 
HETATM   14  C   UNL     1      42.953 -17.574   2.504  1.00  0.00     0.003 A 
HETATM   15  C   UNL     1      43.391 -16.669   1.543  1.00  0.00     0.001 A 
HETATM   16  C   UNL     1      43.234 -15.297   1.749  1.00  0.00     0.012 A 
BRANCH  12  17
HETATM   17  O   UNL     1      41.559 -15.221   4.992  1.00  0.00    -0.355 OA
HETATM   18  C   UNL     1      40.581 -16.065   5.595  1.00  0.00     0.210 C 
ENDBRANCH  12  17
ENDBRANCH   1  11
BRANCH   8  19
HETATM   19  C   UNL     1      43.292 -11.041   6.223  1.00  0.00    -0.035 A 
HETATM   20  C   UNL     1      42.597 -10.232   7.138  1.00  0.00     0.010 A 
HETATM   21  C   UNL     1      43.192  -9.837   8.338  1.00  0.00     0.019 A 
HETATM   22  C   UNL     1      44.492 -10.240   8.631  1.00  0.00     0.011 A 
HETATM   23 BR   UNL     1      45.298  -9.710  10.256  1.00  0.00    -0.051 Br
HETATM   24  C   UNL     1      45.205 -11.030   7.732  1.00  0.00     0.019 A 
HETATM   25  C   UNL     1      44.607 -11.427   6.533  1.00  0.00     0.010 A 
ENDBRANCH   8  19
BRANCH   5  26
HETATM   26  N   UNL     1      38.005 -12.307   1.799  1.00  0.00    -0.229 N 
HETATM   27  H   UNL     1      37.292 -11.710   2.194  1.00  0.00     0.174 HD
HETATM   28  H   UNL     1      37.666 -13.162   1.381  1.00  0.00     0.174 HD
ENDBRANCH   5  26
TORSDOF 4
ENDMDL
MODEL 7
REMARK VINA RESULT:      -7.1     15.743     17.801
REMARK  4 active torsions:
REMARK  status: ('A' for Active; 'I' for Inactive)
REMARK    1  A    between atoms: O_2  and  C_3 
REMARK    2  A    between atoms: C_4  and  C_5 
REMARK    3  A    between atoms: C_9  and  N_10 
REMARK    4  A    between atoms: C_13  and  C_14 
ROOT
HETATM    1  C   UNL     1      47.255 -28.949  -1.391  1.00  0.00     0.167 C 
HETATM    2  N   UNL     1      46.896 -29.165   0.013  1.00  0.00    -0.074 N 
HETATM    3  C   UNL     1      47.695 -29.816   0.922  1.00  0.00     0.736 A 
HETATM    4  N   UNL     1      47.149 -29.737   2.106  1.00  0.00     0.131 NA
HETATM    5  C   UNL     1      46.053 -28.959   1.887  1.00  0.00     0.753 A 
HETATM    6  N   UNL     1      45.866 -28.558   0.632  1.00  0.00     0.037 NA
HETATM    7  N   UNL     1      48.865 -30.379   0.552  1.00  0.00    -0.214 N 
HETATM    8  C   UNL     1      49.496 -29.853  -0.653  1.00  0.00     0.135 C 
HETATM    9  C   UNL     1      48.459 -29.834  -1.785  1.00  0.00     0.063 C 
HETATM   10  H   UNL     1      49.502 -30.598   1.313  1.00  0.00     0.178 HD
ENDROOT
BRANCH   1  11
HETATM   11  C   UNL     1      46.110 -29.161  -2.380  1.00  0.00     0.001 A 
HETATM   12  C   UNL     1      45.456 -30.410  -2.427  1.00  0.00     0.076 A 
HETATM   13  C   UNL     1      44.409 -30.628  -3.329  1.00  0.00     0.037 A 
HETATM   14  C   UNL     1      43.971 -29.599  -4.161  1.00  0.00     0.003 A 
HETATM   15  C   UNL     1      44.577 -28.349  -4.096  1.00  0.00     0.001 A 
HETATM   16  C   UNL     1      45.634 -28.129  -3.210  1.00  0.00     0.012 A 
BRANCH  12  17
HETATM   17  O   UNL     1      45.923 -31.380  -1.575  1.00  0.00    -0.355 OA
HETATM   18  C   UNL     1      44.924 -32.034  -0.796  1.00  0.00     0.210 C 
ENDBRANCH  12  17
ENDBRANCH   1  11
BRANCH   8  19
HETATM   19  C   UNL     1      50.717 -30.683  -0.998  1.00  0.00    -0.035 A 
HETATM   20  C   UNL     1      51.377 -30.543  -2.231  1.00  0.00     0.010 A 
HETATM   21  C   UNL     1      52.512 -31.303  -2.523  1.00  0.00     0.019 A 
HETATM   22  C   UNL     1      52.991 -32.218  -1.590  1.00  0.00     0.011 A 
HETATM   23 BR   UNL     1      54.528 -33.246  -1.983  1.00  0.00    -0.051 Br
HETATM   24  C   UNL     1      52.343 -32.384  -0.368  1.00  0.00     0.019 A 
HETATM   25  C   UNL     1      51.210 -31.620  -0.075  1.00  0.00     0.010 A 
ENDBRANCH   8  19
BRANCH   5  26
HETATM   26  N   UNL     1      45.264 -28.669   2.917  1.00  0.00    -0.229 N 
HETATM   27  H   UNL     1      44.302 -28.448   2.702  1.00  0.00     0.174 HD
HETATM   28  H   UNL     1      45.673 -28.122   3.663  1.00  0.00     0.174 HD
ENDBRANCH   5  26
TORSDOF 4
ENDMDL
MODEL 8
REMARK VINA RESULT:      -7.0      4.499      7.353
REMARK  4 active torsions:
REMARK  status: ('A' for Active; 'I' for Inactive)
REMARK    1  A    between atoms: O_2  and  C_3 
REMARK    2  A    between atoms: C_4  and  C_5 
REMARK    3  A    between atoms: C_9  and  N_10 
REMARK    4  A    between atoms: C_13  and  C_14 
ROOT
HETATM    1  C   UNL     1      42.699 -12.718   5.304  1.00  0.00     0.167 C 
HETATM    2  N   UNL     1      42.617 -13.990   6.027  1.00  0.00    -0.074 N 
HETATM    3  C   UNL     1      42.149 -15.159   5.479  1.00  0.00     0.736 A 
HETATM    4  N   UNL     1      42.318 -16.131   6.337  1.00  0.00     0.131 NA
HETATM    5  C   UNL     1      42.967 -15.522   7.367  1.00  0.00     0.753 A 
HETATM    6  N   UNL     1      43.201 -14.220   7.218  1.00  0.00     0.037 NA
HETATM    7  N   UNL     1      41.650 -15.198   4.226  1.00  0.00    -0.214 N 
HETATM    8  C   UNL     1      42.085 -14.147   3.313  1.00  0.00     0.135 C 
HETATM    9  C   UNL     1      41.881 -12.786   3.994  1.00  0.00     0.063 C 
HETATM   10  H   UNL     1      41.578 -16.125   3.814  1.00  0.00     0.178 HD
ENDROOT
BRANCH   1  11
HETATM   11  C   UNL     1      42.274 -11.496   6.116  1.00  0.00     0.001 A 
HETATM   12  C   UNL     1      43.260 -10.656   6.673  1.00  0.00     0.076 A 
HETATM   13  C   UNL     1      42.894  -9.533   7.425  1.00  0.00     0.037 A 
HETATM   14  C   UNL     1      41.549  -9.209   7.595  1.00  0.00     0.003 A 
HETATM   15  C   UNL     1      40.566 -10.003   7.015  1.00  0.00     0.001 A 
HETATM   16  C   UNL     1      40.923 -11.133   6.278  1.00  0.00     0.012 A 
BRANCH  12  17
HETATM   17  O   UNL     1      44.567 -11.019   6.462  1.00  0.00    -0.355 OA
HETATM   18  C   UNL     1      45.408 -10.956   7.612  1.00  0.00     0.210 C 
ENDBRANCH  12  17
ENDBRANCH   1  11
BRANCH   8  19
HETATM   19  C   UNL     1      41.330 -14.259   2.003  1.00  0.00    -0.035 A 
HETATM   20  C   UNL     1      40.566 -15.396   1.688  1.00  0.00     0.010 A 
HETATM   21  C   UNL     1      39.861 -15.473   0.485  1.00  0.00     0.019 A 
HETATM   22  C   UNL     1      39.922 -14.417  -0.421  1.00  0.00     0.011 A 
HETATM   23 BR   UNL     1      38.967 -14.518  -2.048  1.00  0.00    -0.051 Br
HETATM   24  C   UNL     1      40.685 -13.287  -0.136  1.00  0.00     0.019 A 
HETATM   25  C   UNL     1      41.386 -13.210   1.071  1.00  0.00     0.010 A 
ENDBRANCH   8  19
BRANCH   5  26
HETATM   26  N   UNL     1      43.306 -16.252   8.425  1.00  0.00    -0.229 N 
HETATM   27  H   UNL     1      42.578 -16.430   9.103  1.00  0.00     0.174 HD
HETATM   28  H   UNL     1      44.224 -16.088   8.815  1.00  0.00     0.174 HD
ENDBRANCH   5  26
TORSDOF 4
ENDMDL
MODEL 9
REMARK VINA RESULT:      -6.9      2.894      3.374
REMARK  4 active torsions:
REMARK  status: ('A' for Active; 'I' for Inactive)
REMARK    1  A    between atoms: O_2  and  C_3 
REMARK    2  A    between atoms: C_4  and  C_5 
REMARK    3  A    between atoms: C_9  and  N_10 
REMARK    4  A    between atoms: C_13  and  C_14 
ROOT
HETATM    1  C   UNL     1      41.860 -12.603   3.000  1.00  0.00     0.167 C 
HETATM    2  N   UNL     1      42.136 -12.162   4.370  1.00  0.00    -0.074 N 
HETATM    3  C   UNL     1      42.708 -12.954   5.335  1.00  0.00     0.736 A 
HETATM    4  N   UNL     1      42.929 -12.235   6.404  1.00  0.00     0.131 NA
HETATM    5  C   UNL     1      42.548 -10.986   6.017  1.00  0.00     0.753 A 
HETATM    6  N   UNL     1      42.082 -10.879   4.775  1.00  0.00     0.037 NA
HETATM    7  N   UNL     1      42.994 -14.252   5.100  1.00  0.00    -0.214 N 
HETATM    8  C   UNL     1      43.174 -14.643   3.706  1.00  0.00     0.135 C 
HETATM    9  C   UNL     1      41.971 -14.141   2.894  1.00  0.00     0.063 C 
HETATM   10  H   UNL     1      43.642 -14.681   5.756  1.00  0.00     0.178 HD
ENDROOT
BRANCH   1  11
HETATM   11  C   UNL     1      40.516 -12.141   2.440  1.00  0.00     0.001 A 
HETATM   12  C   UNL     1      40.488 -11.194   1.396  1.00  0.00     0.076 A 
HETATM   13  C   UNL     1      39.268 -10.752   0.871  1.00  0.00     0.037 A 
HETATM   14  C   UNL     1      38.067 -11.278   1.346  1.00  0.00     0.003 A 
HETATM   15  C   UNL     1      38.080 -12.244   2.345  1.00  0.00     0.001 A 
HETATM   16  C   UNL     1      39.293 -12.677   2.885  1.00  0.00     0.012 A 
BRANCH  12  17
HETATM   17  O   UNL     1      41.702 -10.723   0.961  1.00  0.00    -0.355 OA
HETATM   18  C   UNL     1      41.638  -9.597   0.088  1.00  0.00     0.210 C 
ENDBRANCH  12  17
ENDBRANCH   1  11
BRANCH   8  19
HETATM   19  C   UNL     1      43.350 -16.146   3.613  1.00  0.00    -0.035 A 
HETATM   20  C   UNL     1      43.920 -16.887   4.662  1.00  0.00     0.010 A 
HETATM   21  C   UNL     1      44.056 -18.273   4.566  1.00  0.00     0.019 A 
HETATM   22  C   UNL     1      43.634 -18.932   3.414  1.00  0.00     0.011 A 
HETATM   23 BR   UNL     1      43.816 -20.808   3.282  1.00  0.00    -0.051 Br
HETATM   24  C   UNL     1      43.080 -18.215   2.355  1.00  0.00     0.019 A 
HETATM   25  C   UNL     1      42.941 -16.828   2.455  1.00  0.00     0.010 A 
ENDBRANCH   8  19
BRANCH   5  26
HETATM   26  N   UNL     1      42.659  -9.989   6.890  1.00  0.00    -0.229 N 
HETATM   27  H   UNL     1      43.502  -9.966   7.446  1.00  0.00     0.174 HD
HETATM   28  H   UNL     1      41.816  -9.718   7.379  1.00  0.00     0.174 HD
ENDBRANCH   5  26
TORSDOF 4
ENDMDL
MODEL 10
REMARK VINA RESULT:      -6.9      4.497      7.372
REMARK  4 active torsions:
REMARK  status: ('A' for Active; 'I' for Inactive)
REMARK    1  A    between atoms: O_2  and  C_3 
REMARK    2  A    between atoms: C_4  and  C_5 
REMARK    3  A    between atoms: C_9  and  N_10 
REMARK    4  A    between atoms: C_13  and  C_14 
ROOT
HETATM    1  C   UNL     1      41.530 -13.980   4.253  1.00  0.00     0.167 C 
HETATM    2  N   UNL     1      42.446 -13.018   4.871  1.00  0.00    -0.074 N 
HETATM    3  C   UNL     1      42.269 -11.657   4.843  1.00  0.00     0.736 A 
HETATM    4  N   UNL     1      43.186 -11.090   5.581  1.00  0.00     0.131 NA
HETATM    5  C   UNL     1      43.857 -12.152   6.106  1.00  0.00     0.753 A 
HETATM    6  N   UNL     1      43.429 -13.354   5.728  1.00  0.00     0.037 NA
HETATM    7  N   UNL     1      41.248 -11.095   4.161  1.00  0.00    -0.214 N 
HETATM    8  C   UNL     1      40.084 -11.937   3.910  1.00  0.00     0.135 C 
HETATM    9  C   UNL     1      40.556 -13.261   3.292  1.00  0.00     0.063 C 
HETATM   10  H   UNL     1      41.038 -10.131   4.407  1.00  0.00     0.178 HD
ENDROOT
BRANCH   1  11
HETATM   11  C   UNL     1      42.215 -15.136   3.526  1.00  0.00     0.001 A 
HETATM   12  C   UNL     1      42.269 -16.406   4.137  1.00  0.00     0.076 A 
HETATM   13  C   UNL     1      42.896 -17.478   3.491  1.00  0.00     0.037 A 
HETATM   14  C   UNL     1      43.437 -17.312   2.217  1.00  0.00     0.003 A 
HETATM   15  C   UNL     1      43.353 -16.077   1.583  1.00  0.00     0.001 A 
HETATM   16  C   UNL     1      42.744 -14.999   2.228  1.00  0.00     0.012 A 
BRANCH  12  17
HETATM   17  O   UNL     1      41.708 -16.511   5.386  1.00  0.00    -0.355 OA
HETATM   18  C   UNL     1      42.610 -16.885   6.425  1.00  0.00     0.210 C 
ENDBRANCH  12  17
ENDBRANCH   1  11
BRANCH   8  19
HETATM   19  C   UNL     1      39.099 -11.201   3.023  1.00  0.00    -0.035 A 
HETATM   20  C   UNL     1      38.380 -11.864   2.013  1.00  0.00     0.010 A 
HETATM   21  C   UNL     1      37.463 -11.174   1.218  1.00  0.00     0.019 A 
HETATM   22  C   UNL     1      37.264  -9.810   1.418  1.00  0.00     0.011 A 
HETATM   23 BR   UNL     1      36.021  -8.874   0.344  1.00  0.00    -0.051 Br
HETATM   24  C   UNL     1      37.977  -9.130   2.403  1.00  0.00     0.019 A 
HETATM   25  C   UNL     1      38.891  -9.823   3.200  1.00  0.00     0.010 A 
ENDBRANCH   8  19
BRANCH   5  26
HETATM   26  N   UNL     1      44.872 -11.917   6.933  1.00  0.00    -0.229 N 
HETATM   27  H   UNL     1      45.040 -12.608   7.650  1.00  0.00     0.174 HD
HETATM   28  H   UNL     1      45.010 -10.958   7.220  1.00  0.00     0.174 HD
ENDBRANCH   5  26
TORSDOF 4
ENDMDL
