MODEL 1
REMARK VINA RESULT:      -8.5      0.000      0.000
REMARK  8 active torsions:
REMARK  status: ('A' for Active; 'I' for Inactive)
REMARK    1  A    between atoms: C_4  and  N_5 
REMARK    2  A    between atoms: N_5  and  S_6 
REMARK    3  A    between atoms: S_6  and  C_7 
REMARK    4  A    between atoms: C_13  and  C_14 
REMARK       I    between atoms: C_14  and  N_15 
REMARK    5  A    between atoms: N_15  and  C_16 
REMARK    6  A    between atoms: C_16  and  C_17 
REMARK    7  A    between atoms: C_17  and  C_18 
REMARK    8  A    between atoms: C_18  and  O_19 
ROOT
HETATM    1  C   UNL     1      41.298 -13.380   3.042  1.00  0.00     0.081 A 
HETATM    2  C   UNL     1      42.255 -12.671   3.772  1.00  0.00     0.043 A 
HETATM    3  C   UNL     1      41.835 -11.830   4.807  1.00  0.00     0.043 A 
HETATM    4  C   UNL     1      40.472 -11.706   5.130  1.00  0.00     0.046 A 
HETATM    5  N   UNL     1      40.075 -10.821   6.138  1.00  0.00    -0.364 N 
HETATM    6  C   UNL     1      41.004 -10.123   6.868  1.00  0.00     0.109 A 
HETATM    7  C   UNL     1      42.334 -10.160   6.676  1.00  0.00     0.098 A 
HETATM    8  C   UNL     1      42.832 -11.047   5.586  1.00  0.00     0.201 A 
HETATM    9  O   UNL     1      44.029 -11.139   5.324  1.00  0.00    -0.286 OA
HETATM   10  C   UNL     1      39.529 -12.428   4.391  1.00  0.00     0.032 A 
HETATM   11  C   UNL     1      39.939 -13.275   3.356  1.00  0.00     0.027 A 
HETATM   12  H   UNL     1      39.113 -10.826   6.459  1.00  0.00     0.165 HD
ENDROOT
BRANCH   1  13
HETATM   13  S   UNL     1      41.829 -14.471   1.739  1.00  0.00     0.263 S 
HETATM   14  O   UNL     1      43.274 -14.431   1.687  1.00  0.00    -0.200 OA
HETATM   15  O   UNL     1      41.028 -14.162   0.573  1.00  0.00    -0.200 OA
BRANCH  13  16
HETATM   16  N   UNL     1      41.310 -15.983   2.281  1.00  0.00    -0.281 N 
HETATM   17  H   UNL     1      40.378 -15.952   2.691  1.00  0.00     0.179 HD
BRANCH  16  18
HETATM   18  C   UNL     1      42.258 -16.873   2.855  1.00  0.00     0.043 A 
HETATM   19  C   UNL     1      42.581 -18.061   2.197  1.00  0.00     0.037 A 
HETATM   20  C   UNL     1      43.484 -18.960   2.776  1.00  0.00    -0.059 A 
HETATM   21  C   UNL     1      43.852 -20.240   2.084  1.00  0.00     0.048 C 
HETATM   22  C   UNL     1      44.071 -18.643   4.010  1.00  0.00     0.013 A 
HETATM   23  C   UNL     1      43.748 -17.454   4.676  1.00  0.00    -0.059 A 
HETATM   24  C   UNL     1      42.832 -16.574   4.091  1.00  0.00     0.037 A 
HETATM   25  C   UNL     1      44.406 -17.121   5.983  1.00  0.00     0.048 C 
ENDBRANCH  16  18
ENDBRANCH  13  16
ENDBRANCH   1  13
BRANCH   7  26
HETATM   26  C   UNL     1      43.201  -9.315   7.547  1.00  0.00     0.257 C 
HETATM   27  N   UNL     1      44.294  -9.947   8.081  1.00  0.00    -0.357 N 
HETATM   28  H   UNL     1      44.444 -10.932   7.854  1.00  0.00     0.162 HD
HETATM   29  O   UNL     1      42.945  -8.131   7.754  1.00  0.00    -0.267 OA
BRANCH  27  30
HETATM   30  C   UNL     1      45.265  -9.265   8.908  1.00  0.00     0.125 C 
BRANCH  30  31
HETATM   31  C   UNL     1      45.267  -9.774  10.344  1.00  0.00     0.046 C 
BRANCH  31  32
HETATM   32  C   UNL     1      44.046  -9.269  11.103  1.00  0.00     0.168 C 
BRANCH  32  33
HETATM   33  O   UNL     1      42.987 -10.211  10.945  1.00  0.00    -0.396 OA
HETATM   34  C   UNL     1      41.716  -9.574  10.937  1.00  0.00     0.201 C 
ENDBRANCH  32  33
ENDBRANCH  31  32
ENDBRANCH  30  31
ENDBRANCH  27  30
ENDBRANCH   7  26
TORSDOF 8
ENDMDL
MODEL 2
REMARK VINA RESULT:      -8.5      2.464      4.463
REMARK  8 active torsions:
REMARK  status: ('A' for Active; 'I' for Inactive)
REMARK    1  A    between atoms: C_4  and  N_5 
REMARK    2  A    between atoms: N_5  and  S_6 
REMARK    3  A    between atoms: S_6  and  C_7 
REMARK    4  A    between atoms: C_13  and  C_14 
REMARK       I    between atoms: C_14  and  N_15 
REMARK    5  A    between atoms: N_15  and  C_16 
REMARK    6  A    between atoms: C_16  and  C_17 
REMARK    7  A    between atoms: C_17  and  C_18 
REMARK    8  A    between atoms: C_18  and  O_19 
ROOT
HETATM    1  C   UNL     1      43.793 -11.088   5.733  1.00  0.00     0.081 A 
HETATM    2  C   UNL     1      43.064 -10.536   6.789  1.00  0.00     0.043 A 
HETATM    3  C   UNL     1      43.708 -10.293   8.006  1.00  0.00     0.043 A 
HETATM    4  C   UNL     1      45.075 -10.578   8.170  1.00  0.00     0.046 A 
HETATM    5  N   UNL     1      45.684 -10.370   9.411  1.00  0.00    -0.364 N 
HETATM    6  C   UNL     1      44.982  -9.823  10.456  1.00  0.00     0.109 A 
HETATM    7  C   UNL     1      43.681  -9.490  10.431  1.00  0.00     0.098 A 
HETATM    8  C   UNL     1      42.950  -9.726   9.154  1.00  0.00     0.201 A 
HETATM    9  O   UNL     1      41.754  -9.468   9.035  1.00  0.00    -0.286 OA
HETATM   10  C   UNL     1      45.789 -11.126   7.098  1.00  0.00     0.032 A 
HETATM   11  C   UNL     1      45.155 -11.370   5.876  1.00  0.00     0.027 A 
HETATM   12  H   UNL     1      46.692 -10.452   9.496  1.00  0.00     0.165 HD
ENDROOT
BRANCH   1  13
HETATM   13  S   UNL     1      42.983 -11.378   4.174  1.00  0.00     0.263 S 
HETATM   14  O   UNL     1      43.998 -11.726   3.204  1.00  0.00    -0.200 OA
HETATM   15  O   UNL     1      42.080 -10.268   3.950  1.00  0.00    -0.200 OA
BRANCH  13  16
HETATM   16  N   UNL     1      42.011 -12.719   4.501  1.00  0.00    -0.281 N 
HETATM   17  H   UNL     1      41.316 -12.531   5.222  1.00  0.00     0.179 HD
BRANCH  16  18
HETATM   18  C   UNL     1      42.589 -14.017   4.459  1.00  0.00     0.043 A 
HETATM   19  C   UNL     1      42.608 -14.729   3.257  1.00  0.00     0.037 A 
HETATM   20  C   UNL     1      43.139 -16.023   3.218  1.00  0.00    -0.059 A 
HETATM   21  C   UNL     1      43.177 -16.805   1.937  1.00  0.00     0.048 C 
HETATM   22  C   UNL     1      43.667 -16.583   4.390  1.00  0.00     0.013 A 
HETATM   23  C   UNL     1      43.648 -15.875   5.599  1.00  0.00    -0.059 A 
HETATM   24  C   UNL     1      43.098 -14.589   5.624  1.00  0.00     0.037 A 
HETATM   25  C   UNL     1      44.241 -16.482   6.837  1.00  0.00     0.048 C 
ENDBRANCH  16  18
ENDBRANCH  13  16
ENDBRANCH   1  13
BRANCH   7  26
HETATM   26  C   UNL     1      43.067  -8.928  11.669  1.00  0.00     0.257 C 
HETATM   27  N   UNL     1      42.337  -9.814  12.419  1.00  0.00    -0.357 N 
HETATM   28  H   UNL     1      42.262 -10.779  12.093  1.00  0.00     0.162 HD
HETATM   29  O   UNL     1      43.222  -7.751  11.987  1.00  0.00    -0.267 OA
BRANCH  27  30
HETATM   30  C   UNL     1      41.715  -9.450  13.672  1.00  0.00     0.125 C 
BRANCH  30  31
HETATM   31  C   UNL     1      40.197  -9.368  13.568  1.00  0.00     0.046 C 
BRANCH  31  32
HETATM   32  C   UNL     1      39.654 -10.455  12.649  1.00  0.00     0.168 C 
BRANCH  32  33
HETATM   33  O   UNL     1      39.230 -11.559  13.445  1.00  0.00    -0.396 OA
HETATM   34  C   UNL     1      38.426 -12.465  12.701  1.00  0.00     0.201 C 
ENDBRANCH  32  33
ENDBRANCH  31  32
ENDBRANCH  30  31
ENDBRANCH  27  30
ENDBRANCH   7  26
TORSDOF 8
ENDMDL
MODEL 3
REMARK VINA RESULT:      -8.5      1.445      2.235
REMARK  8 active torsions:
REMARK  status: ('A' for Active; 'I' for Inactive)
REMARK    1  A    between atoms: C_4  and  N_5 
REMARK    2  A    between atoms: N_5  and  S_6 
REMARK    3  A    between atoms: S_6  and  C_7 
REMARK    4  A    between atoms: C_13  and  C_14 
REMARK       I    between atoms: C_14  and  N_15 
REMARK    5  A    between atoms: N_15  and  C_16 
REMARK    6  A    between atoms: C_16  and  C_17 
REMARK    7  A    between atoms: C_17  and  C_18 
REMARK    8  A    between atoms: C_18  and  O_19 
ROOT
HETATM    1  C   UNL     1      42.171 -13.096   2.970  1.00  0.00     0.081 A 
HETATM    2  C   UNL     1      42.886 -13.165   4.168  1.00  0.00     0.043 A 
HETATM    3  C   UNL     1      42.803 -12.102   5.072  1.00  0.00     0.043 A 
HETATM    4  C   UNL     1      41.998 -10.981   4.799  1.00  0.00     0.046 A 
HETATM    5  N   UNL     1      41.971  -9.910   5.698  1.00  0.00    -0.364 N 
HETATM    6  C   UNL     1      42.663  -9.967   6.881  1.00  0.00     0.109 A 
HETATM    7  C   UNL     1      43.453 -10.980   7.274  1.00  0.00     0.098 A 
HETATM    8  C   UNL     1      43.571 -12.141   6.346  1.00  0.00     0.201 A 
HETATM    9  O   UNL     1      44.280 -13.110   6.608  1.00  0.00    -0.286 OA
HETATM   10  C   UNL     1      41.286 -10.932   3.595  1.00  0.00     0.032 A 
HETATM   11  C   UNL     1      41.360 -11.992   2.686  1.00  0.00     0.027 A 
HETATM   12  H   UNL     1      41.297  -9.164   5.567  1.00  0.00     0.165 HD
ENDROOT
BRANCH   1  13
HETATM   13  S   UNL     1      42.255 -14.457   1.826  1.00  0.00     0.263 S 
HETATM   14  O   UNL     1      43.649 -14.788   1.631  1.00  0.00    -0.200 OA
HETATM   15  O   UNL     1      41.399 -14.125   0.706  1.00  0.00    -0.200 OA
BRANCH  13  16
HETATM   16  N   UNL     1      41.476 -15.699   2.663  1.00  0.00    -0.281 N 
HETATM   17  H   UNL     1      40.677 -15.366   3.200  1.00  0.00     0.179 HD
BRANCH  16  18
HETATM   18  C   UNL     1      42.254 -16.753   3.216  1.00  0.00     0.043 A 
HETATM   19  C   UNL     1      42.658 -16.690   4.550  1.00  0.00     0.037 A 
HETATM   20  C   UNL     1      43.459 -17.705   5.089  1.00  0.00    -0.059 A 
HETATM   21  C   UNL     1      43.899 -17.662   6.523  1.00  0.00     0.048 C 
HETATM   22  C   UNL     1      43.829 -18.788   4.279  1.00  0.00     0.013 A 
HETATM   23  C   UNL     1      43.428 -18.855   2.938  1.00  0.00    -0.059 A 
HETATM   24  C   UNL     1      42.642 -17.824   2.411  1.00  0.00     0.037 A 
HETATM   25  C   UNL     1      43.814 -20.035   2.096  1.00  0.00     0.048 C 
ENDBRANCH  16  18
ENDBRANCH  13  16
ENDBRANCH   1  13
BRANCH   7  26
HETATM   26  C   UNL     1      44.155 -10.867   8.586  1.00  0.00     0.257 C 
HETATM   27  N   UNL     1      43.351 -10.584   9.661  1.00  0.00    -0.357 N 
HETATM   28  H   UNL     1      42.348 -10.473   9.501  1.00  0.00     0.162 HD
HETATM   29  O   UNL     1      45.369 -11.028   8.682  1.00  0.00    -0.267 OA
BRANCH  27  30
HETATM   30  C   UNL     1      43.859 -10.486  11.011  1.00  0.00     0.125 C 
BRANCH  30  31
HETATM   31  C   UNL     1      43.678  -9.094  11.603  1.00  0.00     0.046 C 
BRANCH  31  32
HETATM   32  C   UNL     1      42.206  -8.799  11.863  1.00  0.00     0.168 C 
BRANCH  32  33
HETATM   33  O   UNL     1      41.469 -10.015  11.760  1.00  0.00    -0.396 OA
HETATM   34  C   UNL     1      40.072  -9.775  11.650  1.00  0.00     0.201 C 
ENDBRANCH  32  33
ENDBRANCH  31  32
ENDBRANCH  30  31
ENDBRANCH  27  30
ENDBRANCH   7  26
TORSDOF 8
ENDMDL
MODEL 4
REMARK VINA RESULT:      -8.3      1.431      1.877
REMARK  8 active torsions:
REMARK  status: ('A' for Active; 'I' for Inactive)
REMARK    1  A    between atoms: C_4  and  N_5 
REMARK    2  A    between atoms: N_5  and  S_6 
REMARK    3  A    between atoms: S_6  and  C_7 
REMARK    4  A    between atoms: C_13  and  C_14 
REMARK       I    between atoms: C_14  and  N_15 
REMARK    5  A    between atoms: N_15  and  C_16 
REMARK    6  A    between atoms: C_16  and  C_17 
REMARK    7  A    between atoms: C_17  and  C_18 
REMARK    8  A    between atoms: C_18  and  O_19 
ROOT
HETATM    1  C   UNL     1      40.393 -13.304   3.101  1.00  0.00     0.081 A 
HETATM    2  C   UNL     1      41.205 -12.901   4.165  1.00  0.00     0.043 A 
HETATM    3  C   UNL     1      40.934 -11.688   4.805  1.00  0.00     0.043 A 
HETATM    4  C   UNL     1      39.850 -10.886   4.405  1.00  0.00     0.046 A 
HETATM    5  N   UNL     1      39.629  -9.654   5.030  1.00  0.00    -0.364 N 
HETATM    6  C   UNL     1      40.414  -9.248   6.080  1.00  0.00     0.109 A 
HETATM    7  C   UNL     1      41.467  -9.922   6.572  1.00  0.00     0.098 A 
HETATM    8  C   UNL     1      41.795 -11.225   5.926  1.00  0.00     0.201 A 
HETATM    9  O   UNL     1      42.747 -11.908   6.294  1.00  0.00    -0.286 OA
HETATM   10  C   UNL     1      39.046 -11.309   3.341  1.00  0.00     0.032 A 
HETATM   11  C   UNL     1      39.307 -12.522   2.696  1.00  0.00     0.027 A 
HETATM   12  H   UNL     1      38.779  -9.138   4.834  1.00  0.00     0.165 HD
ENDROOT
BRANCH   1  13
HETATM   13  S   UNL     1      40.720 -14.859   2.297  1.00  0.00     0.263 S 
HETATM   14  O   UNL     1      40.290 -14.746   0.921  1.00  0.00    -0.200 OA
HETATM   15  O   UNL     1      40.206 -15.901   3.161  1.00  0.00    -0.200 OA
BRANCH  13  16
HETATM   16  N   UNL     1      42.404 -14.972   2.371  1.00  0.00    -0.281 N 
HETATM   17  H   UNL     1      42.854 -14.652   1.515  1.00  0.00     0.179 HD
BRANCH  16  18
HETATM   18  C   UNL     1      42.992 -16.066   3.061  1.00  0.00     0.043 A 
HETATM   19  C   UNL     1      43.117 -17.302   2.423  1.00  0.00     0.037 A 
HETATM   20  C   UNL     1      43.659 -18.395   3.111  1.00  0.00    -0.059 A 
HETATM   21  C   UNL     1      43.809 -19.730   2.444  1.00  0.00     0.048 C 
HETATM   22  C   UNL     1      44.090 -18.225   4.435  1.00  0.00     0.013 A 
HETATM   23  C   UNL     1      43.965 -16.988   5.080  1.00  0.00    -0.059 A 
HETATM   24  C   UNL     1      43.406 -15.911   4.384  1.00  0.00     0.037 A 
HETATM   25  C   UNL     1      44.456 -16.821   6.489  1.00  0.00     0.048 C 
ENDBRANCH  16  18
ENDBRANCH  13  16
ENDBRANCH   1  13
BRANCH   7  26
HETATM   26  C   UNL     1      42.229  -9.320   7.705  1.00  0.00     0.257 C 
HETATM   27  N   UNL     1      42.129  -9.985   8.901  1.00  0.00    -0.357 N 
HETATM   28  H   UNL     1      41.556 -10.830   8.940  1.00  0.00     0.162 HD
HETATM   29  O   UNL     1      42.903  -8.303   7.559  1.00  0.00    -0.267 OA
BRANCH  27  30
HETATM   30  C   UNL     1      42.839  -9.567  10.088  1.00  0.00     0.125 C 
BRANCH  30  31
HETATM   31  C   UNL     1      43.916 -10.563  10.505  1.00  0.00     0.046 C 
BRANCH  31  32
HETATM   32  C   UNL     1      45.204 -10.331   9.725  1.00  0.00     0.168 C 
BRANCH  32  33
HETATM   33  O   UNL     1      45.166 -11.114   8.534  1.00  0.00    -0.396 OA
HETATM   34  C   UNL     1      45.864 -10.483   7.468  1.00  0.00     0.201 C 
ENDBRANCH  32  33
ENDBRANCH  31  32
ENDBRANCH  30  31
ENDBRANCH  27  30
ENDBRANCH   7  26
TORSDOF 8
ENDMDL
MODEL 5
REMARK VINA RESULT:      -8.2      1.918      2.974
REMARK  8 active torsions:
REMARK  status: ('A' for Active; 'I' for Inactive)
REMARK    1  A    between atoms: C_4  and  N_5 
REMARK    2  A    between atoms: N_5  and  S_6 
REMARK    3  A    between atoms: S_6  and  C_7 
REMARK    4  A    between atoms: C_13  and  C_14 
REMARK       I    between atoms: C_14  and  N_15 
REMARK    5  A    between atoms: N_15  and  C_16 
REMARK    6  A    between atoms: C_16  and  C_17 
REMARK    7  A    between atoms: C_17  and  C_18 
REMARK    8  A    between atoms: C_18  and  O_19 
ROOT
HETATM    1  C   UNL     1      41.290 -13.606   2.865  1.00  0.00     0.081 A 
HETATM    2  C   UNL     1      40.545 -13.227   3.984  1.00  0.00     0.043 A 
HETATM    3  C   UNL     1      40.862 -12.034   4.640  1.00  0.00     0.043 A 
HETATM    4  C   UNL     1      41.903 -11.209   4.177  1.00  0.00     0.046 A 
HETATM    5  N   UNL     1      42.232 -10.045   4.879  1.00  0.00    -0.364 N 
HETATM    6  C   UNL     1      41.504  -9.657   5.976  1.00  0.00     0.109 A 
HETATM    7  C   UNL     1      40.479 -10.339   6.513  1.00  0.00     0.098 A 
HETATM    8  C   UNL     1      40.098 -11.617   5.846  1.00  0.00     0.201 A 
HETATM    9  O   UNL     1      39.183 -12.320   6.270  1.00  0.00    -0.286 OA
HETATM   10  C   UNL     1      42.636 -11.604   3.052  1.00  0.00     0.032 A 
HETATM   11  C   UNL     1      42.324 -12.794   2.387  1.00  0.00     0.027 A 
HETATM   12  H   UNL     1      42.891  -9.387   4.478  1.00  0.00     0.165 HD
ENDROOT
BRANCH   1  13
HETATM   13  S   UNL     1      40.875 -15.113   2.012  1.00  0.00     0.263 S 
HETATM   14  O   UNL     1      40.203 -14.757   0.782  1.00  0.00    -0.200 OA
HETATM   15  O   UNL     1      40.253 -15.993   2.980  1.00  0.00    -0.200 OA
BRANCH  13  16
HETATM   16  N   UNL     1      42.389 -15.780   1.673  1.00  0.00    -0.281 N 
HETATM   17  H   UNL     1      42.530 -15.940   0.677  1.00  0.00     0.179 HD
BRANCH  16  18
HETATM   18  C   UNL     1      42.949 -16.719   2.581  1.00  0.00     0.043 A 
HETATM   19  C   UNL     1      43.435 -16.284   3.815  1.00  0.00     0.037 A 
HETATM   20  C   UNL     1      44.024 -17.198   4.698  1.00  0.00    -0.059 A 
HETATM   21  C   UNL     1      44.548 -16.754   6.033  1.00  0.00     0.048 C 
HETATM   22  C   UNL     1      44.099 -18.550   4.336  1.00  0.00     0.013 A 
HETATM   23  C   UNL     1      43.615 -18.992   3.098  1.00  0.00    -0.059 A 
HETATM   24  C   UNL     1      43.044 -18.063   2.220  1.00  0.00     0.037 A 
HETATM   25  C   UNL     1      43.681 -20.447   2.739  1.00  0.00     0.048 C 
ENDBRANCH  16  18
ENDBRANCH  13  16
ENDBRANCH   1  13
BRANCH   7  26
HETATM   26  C   UNL     1      39.813  -9.783   7.726  1.00  0.00     0.257 C 
HETATM   27  N   UNL     1      40.542  -9.859   8.885  1.00  0.00    -0.357 N 
HETATM   28  H   UNL     1      41.472 -10.280   8.847  1.00  0.00     0.162 HD
HETATM   29  O   UNL     1      38.691  -9.285   7.673  1.00  0.00    -0.267 OA
BRANCH  27  30
HETATM   30  C   UNL     1      40.068  -9.326  10.143  1.00  0.00     0.125 C 
BRANCH  30  31
HETATM   31  C   UNL     1      40.969  -8.223  10.685  1.00  0.00     0.046 C 
BRANCH  31  32
HETATM   32  C   UNL     1      42.403  -8.715  10.834  1.00  0.00     0.168 C 
BRANCH  32  33
HETATM   33  O   UNL     1      42.380 -10.067  11.287  1.00  0.00    -0.396 OA
HETATM   34  C   UNL     1      43.647 -10.693  11.135  1.00  0.00     0.201 C 
ENDBRANCH  32  33
ENDBRANCH  31  32
ENDBRANCH  30  31
ENDBRANCH  27  30
ENDBRANCH   7  26
TORSDOF 8
ENDMDL
MODEL 6
REMARK VINA RESULT:      -8.1      1.958      2.564
REMARK  8 active torsions:
REMARK  status: ('A' for Active; 'I' for Inactive)
REMARK    1  A    between atoms: C_4  and  N_5 
REMARK    2  A    between atoms: N_5  and  S_6 
REMARK    3  A    between atoms: S_6  and  C_7 
REMARK    4  A    between atoms: C_13  and  C_14 
REMARK       I    between atoms: C_14  and  N_15 
REMARK    5  A    between atoms: N_15  and  C_16 
REMARK    6  A    between atoms: C_16  and  C_17 
REMARK    7  A    between atoms: C_17  and  C_18 
REMARK    8  A    between atoms: C_18  and  O_19 
ROOT
HETATM    1  C   UNL     1      41.342 -13.633   2.901  1.00  0.00     0.081 A 
HETATM    2  C   UNL     1      40.554 -13.221   3.979  1.00  0.00     0.043 A 
HETATM    3  C   UNL     1      40.893 -12.047   4.659  1.00  0.00     0.043 A 
HETATM    4  C   UNL     1      41.998 -11.274   4.261  1.00  0.00     0.046 A 
HETATM    5  N   UNL     1      42.343 -10.130   4.988  1.00  0.00    -0.364 N 
HETATM    6  C   UNL     1      41.575  -9.709   6.044  1.00  0.00     0.109 A 
HETATM    7  C   UNL     1      40.488 -10.341   6.517  1.00  0.00     0.098 A 
HETATM    8  C   UNL     1      40.082 -11.596   5.823  1.00  0.00     0.201 A 
HETATM    9  O   UNL     1      39.112 -12.254   6.189  1.00  0.00    -0.286 OA
HETATM   10  C   UNL     1      42.772 -11.701   3.176  1.00  0.00     0.032 A 
HETATM   11  C   UNL     1      42.440 -12.872   2.487  1.00  0.00     0.027 A 
HETATM   12  H   UNL     1      43.056  -9.504   4.628  1.00  0.00     0.165 HD
ENDROOT
BRANCH   1  13
HETATM   13  S   UNL     1      40.901 -15.115   2.017  1.00  0.00     0.263 S 
HETATM   14  O   UNL     1      40.202 -14.722   0.813  1.00  0.00    -0.200 OA
HETATM   15  O   UNL     1      40.298 -16.018   2.974  1.00  0.00    -0.200 OA
BRANCH  13  16
HETATM   16  N   UNL     1      42.404 -15.778   1.625  1.00  0.00    -0.281 N 
HETATM   17  H   UNL     1      42.517 -15.922   0.623  1.00  0.00     0.179 HD
BRANCH  16  18
HETATM   18  C   UNL     1      42.988 -16.730   2.503  1.00  0.00     0.043 A 
HETATM   19  C   UNL     1      43.063 -18.071   2.121  1.00  0.00     0.037 A 
HETATM   20  C   UNL     1      43.600 -19.021   2.998  1.00  0.00    -0.059 A 
HETATM   21  C   UNL     1      43.697 -20.467   2.606  1.00  0.00     0.048 C 
HETATM   22  C   UNL     1      44.078 -18.606   4.249  1.00  0.00     0.013 A 
HETATM   23  C   UNL     1      44.003 -17.263   4.639  1.00  0.00    -0.059 A 
HETATM   24  C   UNL     1      43.448 -16.329   3.757  1.00  0.00     0.037 A 
HETATM   25  C   UNL     1      44.543 -16.835   5.972  1.00  0.00     0.048 C 
ENDBRANCH  16  18
ENDBRANCH  13  16
ENDBRANCH   1  13
BRANCH   7  26
HETATM   26  C   UNL     1      39.783  -9.757   7.695  1.00  0.00     0.257 C 
HETATM   27  N   UNL     1      40.493  -9.760   8.868  1.00  0.00    -0.357 N 
HETATM   28  H   UNL     1      41.437 -10.150   8.863  1.00  0.00     0.162 HD
HETATM   29  O   UNL     1      38.646  -9.299   7.602  1.00  0.00    -0.267 OA
BRANCH  27  30
HETATM   30  C   UNL     1      39.980  -9.189  10.093  1.00  0.00     0.125 C 
BRANCH  30  31
HETATM   31  C   UNL     1      40.939  -8.180  10.714  1.00  0.00     0.046 C 
BRANCH  31  32
HETATM   32  C   UNL     1      42.359  -8.730  10.751  1.00  0.00     0.168 C 
BRANCH  32  33
HETATM   33  O   UNL     1      42.307 -10.113  11.096  1.00  0.00    -0.396 OA
HETATM   34  C   UNL     1      43.095 -10.397  12.245  1.00  0.00     0.201 C 
ENDBRANCH  32  33
ENDBRANCH  31  32
ENDBRANCH  30  31
ENDBRANCH  27  30
ENDBRANCH   7  26
TORSDOF 8
ENDMDL
MODEL 7
REMARK VINA RESULT:      -8.0      2.436      4.755
REMARK  8 active torsions:
REMARK  status: ('A' for Active; 'I' for Inactive)
REMARK    1  A    between atoms: C_4  and  N_5 
REMARK    2  A    between atoms: N_5  and  S_6 
REMARK    3  A    between atoms: S_6  and  C_7 
REMARK    4  A    between atoms: C_13  and  C_14 
REMARK       I    between atoms: C_14  and  N_15 
REMARK    5  A    between atoms: N_15  and  C_16 
REMARK    6  A    between atoms: C_16  and  C_17 
REMARK    7  A    between atoms: C_17  and  C_18 
REMARK    8  A    between atoms: C_18  and  O_19 
ROOT
HETATM    1  C   UNL     1      43.844 -11.027   5.873  1.00  0.00     0.081 A 
HETATM    2  C   UNL     1      43.103 -10.514   6.940  1.00  0.00     0.043 A 
HETATM    3  C   UNL     1      43.732 -10.318   8.173  1.00  0.00     0.043 A 
HETATM    4  C   UNL     1      45.096 -10.612   8.343  1.00  0.00     0.046 A 
HETATM    5  N   UNL     1      45.689 -10.452   9.600  1.00  0.00    -0.364 N 
HETATM    6  C   UNL     1      44.975  -9.943  10.655  1.00  0.00     0.109 A 
HETATM    7  C   UNL     1      43.675  -9.607  10.626  1.00  0.00     0.098 A 
HETATM    8  C   UNL     1      42.960  -9.793   9.332  1.00  0.00     0.201 A 
HETATM    9  O   UNL     1      41.766  -9.528   9.208  1.00  0.00    -0.286 OA
HETATM   10  C   UNL     1      45.823 -11.120   7.261  1.00  0.00     0.032 A 
HETATM   11  C   UNL     1      45.205 -11.316   6.023  1.00  0.00     0.027 A 
HETATM   12  H   UNL     1      46.696 -10.539   9.694  1.00  0.00     0.165 HD
ENDROOT
BRANCH   1  13
HETATM   13  S   UNL     1      43.054 -11.256   4.294  1.00  0.00     0.263 S 
HETATM   14  O   UNL     1      44.072 -11.640   3.340  1.00  0.00    -0.200 OA
HETATM   15  O   UNL     1      42.211 -10.101   4.067  1.00  0.00    -0.200 OA
BRANCH  13  16
HETATM   16  N   UNL     1      42.012 -12.553   4.582  1.00  0.00    -0.281 N 
HETATM   17  H   UNL     1      41.324 -12.347   5.305  1.00  0.00     0.179 HD
BRANCH  16  18
HETATM   18  C   UNL     1      42.522 -13.878   4.508  1.00  0.00     0.043 A 
HETATM   19  C   UNL     1      43.035 -14.488   5.654  1.00  0.00     0.037 A 
HETATM   20  C   UNL     1      43.575 -15.777   5.579  1.00  0.00    -0.059 A 
HETATM   21  C   UNL     1      44.126 -16.456   6.799  1.00  0.00     0.048 C 
HETATM   22  C   UNL     1      43.575 -16.450   4.349  1.00  0.00     0.013 A 
HETATM   23  C   UNL     1      43.064 -15.842   3.195  1.00  0.00    -0.059 A 
HETATM   24  C   UNL     1      42.542 -14.546   3.284  1.00  0.00     0.037 A 
HETATM   25  C   UNL     1      43.050 -16.588   1.893  1.00  0.00     0.048 C 
ENDBRANCH  16  18
ENDBRANCH  13  16
ENDBRANCH   1  13
BRANCH   7  26
HETATM   26  C   UNL     1      43.046  -9.091  11.877  1.00  0.00     0.257 C 
HETATM   27  N   UNL     1      41.858  -9.679  12.225  1.00  0.00    -0.357 N 
HETATM   28  H   UNL     1      41.487 -10.417  11.624  1.00  0.00     0.162 HD
HETATM   29  O   UNL     1      43.574  -8.204  12.544  1.00  0.00    -0.267 OA
BRANCH  27  30
HETATM   30  C   UNL     1      41.138  -9.334  13.431  1.00  0.00     0.125 C 
BRANCH  30  31
HETATM   31  C   UNL     1      39.763  -8.744  13.141  1.00  0.00     0.046 C 
BRANCH  31  32
HETATM   32  C   UNL     1      39.877  -7.298  12.675  1.00  0.00     0.168 C 
BRANCH  32  33
HETATM   33  O   UNL     1      39.892  -7.276  11.249  1.00  0.00    -0.396 OA
HETATM   34  C   UNL     1      40.915  -6.426  10.748  1.00  0.00     0.201 C 
ENDBRANCH  32  33
ENDBRANCH  31  32
ENDBRANCH  30  31
ENDBRANCH  27  30
ENDBRANCH   7  26
TORSDOF 8
ENDMDL
MODEL 8
REMARK VINA RESULT:      -7.9      2.624      9.223
REMARK  8 active torsions:
REMARK  status: ('A' for Active; 'I' for Inactive)
REMARK    1  A    between atoms: C_4  and  N_5 
REMARK    2  A    between atoms: N_5  and  S_6 
REMARK    3  A    between atoms: S_6  and  C_7 
REMARK    4  A    between atoms: C_13  and  C_14 
REMARK       I    between atoms: C_14  and  N_15 
REMARK    5  A    between atoms: N_15  and  C_16 
REMARK    6  A    between atoms: C_16  and  C_17 
REMARK    7  A    between atoms: C_17  and  C_18 
REMARK    8  A    between atoms: C_18  and  O_19 
ROOT
HETATM    1  C   UNL     1      43.448  -9.417   7.647  1.00  0.00     0.081 A 
HETATM    2  C   UNL     1      43.685 -10.772   7.398  1.00  0.00     0.043 A 
HETATM    3  C   UNL     1      42.802 -11.475   6.573  1.00  0.00     0.043 A 
HETATM    4  C   UNL     1      41.699 -10.834   5.981  1.00  0.00     0.046 A 
HETATM    5  N   UNL     1      40.805 -11.572   5.198  1.00  0.00    -0.364 N 
HETATM    6  C   UNL     1      41.028 -12.901   4.940  1.00  0.00     0.109 A 
HETATM    7  C   UNL     1      42.047 -13.630   5.425  1.00  0.00     0.098 A 
HETATM    8  C   UNL     1      43.019 -12.923   6.308  1.00  0.00     0.201 A 
HETATM    9  O   UNL     1      43.976 -13.505   6.813  1.00  0.00    -0.286 OA
HETATM   10  C   UNL     1      41.482  -9.476   6.239  1.00  0.00     0.032 A 
HETATM   11  C   UNL     1      42.361  -8.763   7.060  1.00  0.00     0.027 A 
HETATM   12  H   UNL     1      40.087 -11.090   4.668  1.00  0.00     0.165 HD
ENDROOT
BRANCH   1  13
HETATM   13  S   UNL     1      44.582  -8.511   8.679  1.00  0.00     0.263 S 
HETATM   14  O   UNL     1      44.028  -7.192   8.895  1.00  0.00    -0.200 OA
HETATM   15  O   UNL     1      45.904  -8.686   8.115  1.00  0.00    -0.200 OA
BRANCH  13  16
HETATM   16  N   UNL     1      44.562  -9.391  10.120  1.00  0.00    -0.281 N 
HETATM   17  H   UNL     1      44.867 -10.354   9.993  1.00  0.00     0.179 HD
BRANCH  16  18
HETATM   18  C   UNL     1      43.533  -9.140  11.067  1.00  0.00     0.043 A 
HETATM   19  C   UNL     1      42.266  -9.697  10.879  1.00  0.00     0.037 A 
HETATM   20  C   UNL     1      41.237  -9.420  11.787  1.00  0.00    -0.059 A 
HETATM   21  C   UNL     1      39.870 -10.013  11.609  1.00  0.00     0.048 C 
HETATM   22  C   UNL     1      41.500  -8.598  12.892  1.00  0.00     0.013 A 
HETATM   23  C   UNL     1      42.768  -8.035  13.084  1.00  0.00    -0.059 A 
HETATM   24  C   UNL     1      43.781  -8.308  12.159  1.00  0.00     0.037 A 
HETATM   25  C   UNL     1      43.037  -7.178  14.287  1.00  0.00     0.048 C 
ENDBRANCH  16  18
ENDBRANCH  13  16
ENDBRANCH   1  13
BRANCH   7  26
HETATM   26  C   UNL     1      42.125 -15.074   5.062  1.00  0.00     0.257 C 
HETATM   27  N   UNL     1      43.179 -15.424   4.258  1.00  0.00    -0.357 N 
HETATM   28  H   UNL     1      43.830 -14.693   3.966  1.00  0.00     0.162 HD
HETATM   29  O   UNL     1      41.297 -15.886   5.472  1.00  0.00    -0.267 OA
BRANCH  27  30
HETATM   30  C   UNL     1      43.432 -16.787   3.849  1.00  0.00     0.125 C 
BRANCH  30  31
HETATM   31  C   UNL     1      42.840 -17.106   2.481  1.00  0.00     0.046 C 
BRANCH  31  32
HETATM   32  C   UNL     1      43.197 -16.025   1.468  1.00  0.00     0.168 C 
BRANCH  32  33
HETATM   33  O   UNL     1      42.212 -14.996   1.531  1.00  0.00    -0.396 OA
HETATM   34  C   UNL     1      40.894 -15.525   1.455  1.00  0.00     0.201 C 
ENDBRANCH  32  33
ENDBRANCH  31  32
ENDBRANCH  30  31
ENDBRANCH  27  30
ENDBRANCH   7  26
TORSDOF 8
ENDMDL
MODEL 9
REMARK VINA RESULT:      -7.8      5.273      7.299
REMARK  8 active torsions:
REMARK  status: ('A' for Active; 'I' for Inactive)
REMARK    1  A    between atoms: C_4  and  N_5 
REMARK    2  A    between atoms: N_5  and  S_6 
REMARK    3  A    between atoms: S_6  and  C_7 
REMARK    4  A    between atoms: C_13  and  C_14 
REMARK       I    between atoms: C_14  and  N_15 
REMARK    5  A    between atoms: N_15  and  C_16 
REMARK    6  A    between atoms: C_16  and  C_17 
REMARK    7  A    between atoms: C_17  and  C_18 
REMARK    8  A    between atoms: C_18  and  O_19 
ROOT
HETATM    1  C   UNL     1      40.626 -13.839   0.540  1.00  0.00     0.081 A 
HETATM    2  C   UNL     1      41.067 -12.518   0.430  1.00  0.00     0.043 A 
HETATM    3  C   UNL     1      40.806 -11.809  -0.746  1.00  0.00     0.043 A 
HETATM    4  C   UNL     1      40.092 -12.401  -1.804  1.00  0.00     0.046 A 
HETATM    5  N   UNL     1      39.886 -11.686  -2.988  1.00  0.00    -0.364 N 
HETATM    6  C   UNL     1      40.308 -10.386  -3.107  1.00  0.00     0.109 A 
HETATM    7  C   UNL     1      40.983  -9.696  -2.172  1.00  0.00     0.098 A 
HETATM    8  C   UNL     1      41.283 -10.408  -0.897  1.00  0.00     0.201 A 
HETATM    9  O   UNL     1      41.907  -9.868   0.014  1.00  0.00    -0.286 OA
HETATM   10  C   UNL     1      39.655 -13.724  -1.673  1.00  0.00     0.032 A 
HETATM   11  C   UNL     1      39.908 -14.440  -0.500  1.00  0.00     0.027 A 
HETATM   12  H   UNL     1      39.264 -12.060  -3.697  1.00  0.00     0.165 HD
ENDROOT
BRANCH   1  13
HETATM   13  S   UNL     1      40.936 -14.739   2.044  1.00  0.00     0.263 S 
HETATM   14  O   UNL     1      40.017 -15.855   2.092  1.00  0.00    -0.200 OA
HETATM   15  O   UNL     1      40.994 -13.768   3.117  1.00  0.00    -0.200 OA
BRANCH  13  16
HETATM   16  N   UNL     1      42.515 -15.298   1.827  1.00  0.00    -0.281 N 
HETATM   17  H   UNL     1      42.805 -15.278   0.851  1.00  0.00     0.179 HD
BRANCH  16  18
HETATM   18  C   UNL     1      42.986 -16.367   2.638  1.00  0.00     0.043 A 
HETATM   19  C   UNL     1      43.376 -16.117   3.955  1.00  0.00     0.037 A 
HETATM   20  C   UNL     1      43.879 -17.157   4.746  1.00  0.00    -0.059 A 
HETATM   21  C   UNL     1      44.297 -16.915   6.167  1.00  0.00     0.048 C 
HETATM   22  C   UNL     1      43.965 -18.448   4.206  1.00  0.00     0.013 A 
HETATM   23  C   UNL     1      43.578 -18.704   2.884  1.00  0.00    -0.059 A 
HETATM   24  C   UNL     1      43.093 -17.650   2.102  1.00  0.00     0.037 A 
HETATM   25  C   UNL     1      43.655 -20.097   2.333  1.00  0.00     0.048 C 
ENDBRANCH  16  18
ENDBRANCH  13  16
ENDBRANCH   1  13
BRANCH   7  26
HETATM   26  C   UNL     1      41.388  -8.294  -2.478  1.00  0.00     0.257 C 
HETATM   27  N   UNL     1      42.695  -7.985  -2.198  1.00  0.00    -0.357 N 
HETATM   28  H   UNL     1      43.295  -8.715  -1.810  1.00  0.00     0.162 HD
HETATM   29  O   UNL     1      40.597  -7.485  -2.956  1.00  0.00    -0.267 OA
BRANCH  27  30
HETATM   30  C   UNL     1      43.268  -6.687  -2.477  1.00  0.00     0.125 C 
BRANCH  30  31
HETATM   31  C   UNL     1      43.881  -6.042  -1.240  1.00  0.00     0.046 C 
BRANCH  31  32
HETATM   32  C   UNL     1      42.806  -5.405  -0.368  1.00  0.00     0.168 C 
BRANCH  32  33
HETATM   33  O   UNL     1      43.356  -4.254   0.270  1.00  0.00    -0.396 OA
HETATM   34  C   UNL     1      44.450  -4.593   1.112  1.00  0.00     0.201 C 
ENDBRANCH  32  33
ENDBRANCH  31  32
ENDBRANCH  30  31
ENDBRANCH  27  30
ENDBRANCH   7  26
TORSDOF 8
ENDMDL
MODEL 10
REMARK VINA RESULT:      -7.8      1.839      2.912
REMARK  8 active torsions:
REMARK  status: ('A' for Active; 'I' for Inactive)
REMARK    1  A    between atoms: C_4  and  N_5 
REMARK    2  A    between atoms: N_5  and  S_6 
REMARK    3  A    between atoms: S_6  and  C_7 
REMARK    4  A    between atoms: C_13  and  C_14 
REMARK       I    between atoms: C_14  and  N_15 
REMARK    5  A    between atoms: N_15  and  C_16 
REMARK    6  A    between atoms: C_16  and  C_17 
REMARK    7  A    between atoms: C_17  and  C_18 
REMARK    8  A    between atoms: C_18  and  O_19 
ROOT
HETATM    1  C   UNL     1      41.201 -12.854   3.261  1.00  0.00     0.081 A 
HETATM    2  C   UNL     1      40.933 -12.118   4.418  1.00  0.00     0.043 A 
HETATM    3  C   UNL     1      42.000 -11.600   5.158  1.00  0.00     0.043 A 
HETATM    4  C   UNL     1      43.329 -11.794   4.742  1.00  0.00     0.046 A 
HETATM    5  N   UNL     1      44.380 -11.306   5.526  1.00  0.00    -0.364 N 
HETATM    6  C   UNL     1      44.131 -10.576   6.661  1.00  0.00     0.109 A 
HETATM    7  C   UNL     1      42.914 -10.304   7.161  1.00  0.00     0.098 A 
HETATM    8  C   UNL     1      41.742 -10.831   6.405  1.00  0.00     0.201 A 
HETATM    9  O   UNL     1      40.589 -10.648   6.789  1.00  0.00    -0.286 OA
HETATM   10  C   UNL     1      43.578 -12.529   3.578  1.00  0.00     0.032 A 
HETATM   11  C   UNL     1      42.518 -13.049   2.829  1.00  0.00     0.027 A 
HETATM   12  H   UNL     1      45.328 -11.331   5.165  1.00  0.00     0.165 HD
ENDROOT
BRANCH   1  13
HETATM   13  S   UNL     1      39.845 -13.497   2.303  1.00  0.00     0.263 S 
HETATM   14  O   UNL     1      40.315 -13.701   0.950  1.00  0.00    -0.200 OA
HETATM   15  O   UNL     1      38.695 -12.662   2.579  1.00  0.00    -0.200 OA
BRANCH  13  16
HETATM   16  N   UNL     1      39.538 -14.984   3.041  1.00  0.00    -0.281 N 
HETATM   17  H   UNL     1      38.652 -14.994   3.544  1.00  0.00     0.179 HD
BRANCH  16  18
HETATM   18  C   UNL     1      40.623 -15.718   3.592  1.00  0.00     0.043 A 
HETATM   19  C   UNL     1      40.877 -15.655   4.963  1.00  0.00     0.037 A 
HETATM   20  C   UNL     1      41.968 -16.343   5.507  1.00  0.00    -0.059 A 
HETATM   21  C   UNL     1      42.257 -16.296   6.979  1.00  0.00     0.048 C 
HETATM   22  C   UNL     1      42.785 -17.109   4.662  1.00  0.00     0.013 A 
HETATM   23  C   UNL     1      42.536 -17.174   3.285  1.00  0.00    -0.059 A 
HETATM   24  C   UNL     1      41.451 -16.467   2.756  1.00  0.00     0.037 A 
HETATM   25  C   UNL     1      43.407 -18.019   2.402  1.00  0.00     0.048 C 
ENDBRANCH  16  18
ENDBRANCH  13  16
ENDBRANCH   1  13
BRANCH   7  26
HETATM   26  C   UNL     1      42.825  -9.515   8.424  1.00  0.00     0.257 C 
HETATM   27  N   UNL     1      43.277 -10.155   9.550  1.00  0.00    -0.357 N 
HETATM   28  H   UNL     1      43.638 -11.106   9.457  1.00  0.00     0.162 HD
HETATM   29  O   UNL     1      42.383  -8.369   8.437  1.00  0.00    -0.267 OA
BRANCH  27  30
HETATM   30  C   UNL     1      43.307  -9.521  10.849  1.00  0.00     0.125 C 
BRANCH  30  31
HETATM   31  C   UNL     1      42.559 -10.323  11.908  1.00  0.00     0.046 C 
BRANCH  31  32
HETATM   32  C   UNL     1      41.162  -9.758  12.133  1.00  0.00     0.168 C 
BRANCH  32  33
HETATM   33  O   UNL     1      40.402  -9.923  10.938  1.00  0.00    -0.396 OA
HETATM   34  C   UNL     1      39.591  -8.786  10.670  1.00  0.00     0.201 C 
ENDBRANCH  32  33
ENDBRANCH  31  32
ENDBRANCH  30  31
ENDBRANCH  27  30
ENDBRANCH   7  26
TORSDOF 8
ENDMDL
