MODEL 1
REMARK VINA RESULT:      -9.3      0.000      0.000
REMARK  4 active torsions:
REMARK  status: ('A' for Active; 'I' for Inactive)
REMARK    1  A    between atoms: C_7  and  C_8 
REMARK    2  A    between atoms: N_9  and  N_10 
REMARK       I    between atoms: N_10  and  C_11 
REMARK    3  A    between atoms: C_11  and  C_12 
REMARK    4  A    between atoms: C_16  and  C_17 
ROOT
HETATM    1  N   UNL     1      43.594 -12.536   7.619  1.00  0.00    -0.242 N 
HETATM    2  C   UNL     1      44.494 -11.497   7.802  1.00  0.00     0.289 C 
HETATM    3  O   UNL     1      45.517 -11.342   7.140  1.00  0.00    -0.264 OA
HETATM    4  H   UNL     1      42.766 -12.605   8.194  1.00  0.00     0.192 HD
ENDROOT
BRANCH   1   5
HETATM    5  N   UNL     1      43.826 -13.482   6.661  1.00  0.00    -0.183 NA
HETATM    6  C   UNL     1      42.961 -14.441   6.589  1.00  0.00     0.153 C 
BRANCH   6   7
HETATM    7  C   UNL     1      43.116 -15.504   5.613  1.00  0.00     0.018 A 
HETATM    8  C   UNL     1      43.322 -16.854   5.870  1.00  0.00     0.018 A 
HETATM    9  C   UNL     1      43.441 -17.601   7.152  1.00  0.00     0.069 C 
HETATM   10  N   UNL     1      43.411 -17.500   4.663  1.00  0.00    -0.358 N 
HETATM   11  H   UNL     1      43.560 -18.494   4.547  1.00  0.00     0.166 HD
HETATM   12  C   UNL     1      43.270 -16.612   3.625  1.00  0.00     0.043 A 
HETATM   13  C   UNL     1      43.084 -15.350   4.187  1.00  0.00     0.004 A 
HETATM   14  C   UNL     1      43.294 -16.834   2.243  1.00  0.00     0.030 A 
HETATM   15  C   UNL     1      42.914 -14.251   3.316  1.00  0.00     0.014 A 
HETATM   16  C   UNL     1      42.936 -14.455   1.931  1.00  0.00     0.001 A 
HETATM   17  C   UNL     1      43.122 -15.730   1.404  1.00  0.00     0.002 A 
ENDBRANCH   6   7
ENDBRANCH   1   5
BRANCH   2  18
HETATM   18  C   UNL     1      44.146 -10.576   8.856  1.00  0.00     0.121 A 
HETATM   19  N   UNL     1      44.314  -9.230   8.699  1.00  0.00    -0.272 N 
HETATM   20  H   UNL     1      44.677  -8.756   7.876  1.00  0.00     0.189 HD
HETATM   21  N   UNL     1      43.951  -8.501   9.764  1.00  0.00    -0.174 NA
HETATM   22  C   UNL     1      43.525  -9.398  10.666  1.00  0.00     0.089 A 
HETATM   23  C   UNL     1      43.631 -10.716  10.130  1.00  0.00     0.071 A 
BRANCH  22  24
HETATM   24  C   UNL     1      43.042  -8.984  11.991  1.00  0.00    -0.006 A 
HETATM   25  C   UNL     1      42.030  -9.716  12.637  1.00  0.00     0.015 A 
HETATM   26  C   UNL     1      41.556  -9.336  13.896  1.00  0.00     0.024 A 
HETATM   27  C   UNL     1      42.091  -8.216  14.526  1.00  0.00     0.034 A 
HETATM   28 CL   UNL     1      41.512  -7.743  16.074  1.00  0.00    -0.084 Cl
HETATM   29  C   UNL     1      43.094  -7.476  13.905  1.00  0.00     0.024 A 
HETATM   30  C   UNL     1      43.568  -7.859  12.645  1.00  0.00     0.015 A 
ENDBRANCH  22  24
ENDBRANCH   2  18
TORSDOF 4
ENDMDL
MODEL 2
REMARK VINA RESULT:      -9.2      1.184      2.197
REMARK  4 active torsions:
REMARK  status: ('A' for Active; 'I' for Inactive)
REMARK    1  A    between atoms: C_7  and  C_8 
REMARK    2  A    between atoms: N_9  and  N_10 
REMARK       I    between atoms: N_10  and  C_11 
REMARK    3  A    between atoms: C_11  and  C_12 
REMARK    4  A    between atoms: C_16  and  C_17 
ROOT
HETATM    1  N   UNL     1      43.546 -12.230   7.052  1.00  0.00    -0.242 N 
HETATM    2  C   UNL     1      44.529 -11.291   7.324  1.00  0.00     0.289 C 
HETATM    3  O   UNL     1      45.429 -10.984   6.546  1.00  0.00    -0.264 OA
HETATM    4  H   UNL     1      42.829 -12.435   7.733  1.00  0.00     0.192 HD
ENDROOT
BRANCH   1   5
HETATM    5  N   UNL     1      43.546 -12.896   5.858  1.00  0.00    -0.183 NA
HETATM    6  C   UNL     1      42.809 -13.956   5.799  1.00  0.00     0.153 C 
BRANCH   6   7
HETATM    7  C   UNL     1      42.743 -14.743   4.581  1.00  0.00     0.018 A 
HETATM    8  C   UNL     1      42.179 -14.364   3.369  1.00  0.00     0.018 A 
HETATM    9  C   UNL     1      41.502 -13.104   2.954  1.00  0.00     0.069 C 
HETATM   10  N   UNL     1      42.337 -15.406   2.491  1.00  0.00    -0.358 N 
HETATM   11  H   UNL     1      42.021 -15.407   1.530  1.00  0.00     0.166 HD
HETATM   12  C   UNL     1      42.987 -16.455   3.093  1.00  0.00     0.043 A 
HETATM   13  C   UNL     1      43.255 -16.072   4.406  1.00  0.00     0.004 A 
HETATM   14  C   UNL     1      43.353 -17.702   2.574  1.00  0.00     0.030 A 
HETATM   15  C   UNL     1      43.926 -16.990   5.245  1.00  0.00     0.014 A 
HETATM   16  C   UNL     1      44.298 -18.242   4.743  1.00  0.00     0.001 A 
HETATM   17  C   UNL     1      44.015 -18.591   3.425  1.00  0.00     0.002 A 
ENDBRANCH   6   7
ENDBRANCH   1   5
BRANCH   2  18
HETATM   18  C   UNL     1      44.429 -10.674   8.624  1.00  0.00     0.121 A 
HETATM   19  N   UNL     1      45.532 -10.163   9.247  1.00  0.00    -0.272 N 
HETATM   20  H   UNL     1      46.484 -10.158   8.888  1.00  0.00     0.189 HD
HETATM   21  N   UNL     1      45.286  -9.627  10.451  1.00  0.00    -0.174 NA
HETATM   22  C   UNL     1      43.967  -9.787  10.636  1.00  0.00     0.089 A 
HETATM   23  C   UNL     1      43.392 -10.443   9.506  1.00  0.00     0.071 A 
BRANCH  22  24
HETATM   24  C   UNL     1      43.302  -9.326  11.864  1.00  0.00    -0.006 A 
HETATM   25  C   UNL     1      42.271 -10.089  12.441  1.00  0.00     0.015 A 
HETATM   26  C   UNL     1      41.626  -9.664  13.606  1.00  0.00     0.024 A 
HETATM   27  C   UNL     1      42.005  -8.469  14.209  1.00  0.00     0.034 A 
HETATM   28 CL   UNL     1      41.215  -7.942  15.642  1.00  0.00    -0.084 Cl
HETATM   29  C   UNL     1      43.024  -7.698  13.656  1.00  0.00     0.024 A 
HETATM   30  C   UNL     1      43.670  -8.124  12.489  1.00  0.00     0.015 A 
ENDBRANCH  22  24
ENDBRANCH   2  18
TORSDOF 4
ENDMDL
MODEL 3
REMARK VINA RESULT:      -8.9      7.650     11.243
REMARK  4 active torsions:
REMARK  status: ('A' for Active; 'I' for Inactive)
REMARK    1  A    between atoms: C_7  and  C_8 
REMARK    2  A    between atoms: N_9  and  N_10 
REMARK       I    between atoms: N_10  and  C_11 
REMARK    3  A    between atoms: C_11  and  C_12 
REMARK    4  A    between atoms: C_16  and  C_17 
ROOT
HETATM    1  N   UNL     1      41.686 -14.849   0.844  1.00  0.00    -0.242 N 
HETATM    2  C   UNL     1      40.490 -14.833   0.142  1.00  0.00     0.289 C 
HETATM    3  O   UNL     1      39.549 -15.592   0.360  1.00  0.00    -0.264 OA
HETATM    4  H   UNL     1      42.422 -14.194   0.620  1.00  0.00     0.192 HD
ENDROOT
BRANCH   1   5
HETATM    5  N   UNL     1      41.883 -15.762   1.841  1.00  0.00    -0.183 NA
HETATM    6  C   UNL     1      43.072 -15.800   2.350  1.00  0.00     0.153 C 
BRANCH   6   7
HETATM    7  C   UNL     1      43.392 -16.739   3.409  1.00  0.00     0.018 A 
HETATM    8  C   UNL     1      43.619 -16.445   4.748  1.00  0.00     0.018 A 
HETATM    9  C   UNL     1      43.608 -15.151   5.483  1.00  0.00     0.069 C 
HETATM   10  N   UNL     1      43.886 -17.625   5.395  1.00  0.00    -0.358 N 
HETATM   11  H   UNL     1      44.088 -17.712   6.382  1.00  0.00     0.166 HD
HETATM   12  C   UNL     1      43.839 -18.682   4.519  1.00  0.00     0.043 A 
HETATM   13  C   UNL     1      43.532 -18.160   3.263  1.00  0.00     0.004 A 
HETATM   14  C   UNL     1      44.044 -20.048   4.746  1.00  0.00     0.030 A 
HETATM   15  C   UNL     1      43.427 -19.056   2.176  1.00  0.00     0.014 A 
HETATM   16  C   UNL     1      43.630 -20.425   2.385  1.00  0.00     0.001 A 
HETATM   17  C   UNL     1      43.934 -20.912   3.654  1.00  0.00     0.002 A 
ENDBRANCH   6   7
ENDBRANCH   1   5
BRANCH   2  18
HETATM   18  C   UNL     1      40.414 -13.835  -0.897  1.00  0.00     0.121 A 
HETATM   19  N   UNL     1      40.653 -14.159  -2.202  1.00  0.00    -0.272 N 
HETATM   20  H   UNL     1      40.894 -15.078  -2.564  1.00  0.00     0.189 HD
HETATM   21  N   UNL     1      40.551 -13.129  -3.053  1.00  0.00    -0.174 NA
HETATM   22  C   UNL     1      40.232 -12.077  -2.283  1.00  0.00     0.089 A 
HETATM   23  C   UNL     1      40.135 -12.483  -0.919  1.00  0.00     0.071 A 
BRANCH  22  24
HETATM   24  C   UNL     1      40.036 -10.737  -2.856  1.00  0.00    -0.006 A 
HETATM   25  C   UNL     1      41.083  -9.799  -2.840  1.00  0.00     0.015 A 
HETATM   26  C   UNL     1      40.913  -8.520  -3.378  1.00  0.00     0.024 A 
HETATM   27  C   UNL     1      39.692  -8.163  -3.940  1.00  0.00     0.034 A 
HETATM   28 CL   UNL     1      39.477  -6.591  -4.603  1.00  0.00    -0.084 Cl
HETATM   29  C   UNL     1      38.641  -9.077  -3.968  1.00  0.00     0.024 A 
HETATM   30  C   UNL     1      38.812 -10.358  -3.430  1.00  0.00     0.015 A 
ENDBRANCH  22  24
ENDBRANCH   2  18
TORSDOF 4
ENDMDL
MODEL 4
REMARK VINA RESULT:      -8.3      2.275      3.117
REMARK  4 active torsions:
REMARK  status: ('A' for Active; 'I' for Inactive)
REMARK    1  A    between atoms: C_7  and  C_8 
REMARK    2  A    between atoms: N_9  and  N_10 
REMARK       I    between atoms: N_10  and  C_11 
REMARK    3  A    between atoms: C_11  and  C_12 
REMARK    4  A    between atoms: C_16  and  C_17 
ROOT
HETATM    1  N   UNL     1      42.328 -12.263   5.764  1.00  0.00    -0.242 N 
HETATM    2  C   UNL     1      42.539 -10.923   5.473  1.00  0.00     0.289 C 
HETATM    3  O   UNL     1      42.797 -10.490   4.353  1.00  0.00    -0.264 OA
HETATM    4  H   UNL     1      42.114 -12.556   6.707  1.00  0.00     0.192 HD
ENDROOT
BRANCH   1   5
HETATM    5  N   UNL     1      42.418 -13.201   4.775  1.00  0.00    -0.183 NA
HETATM    6  C   UNL     1      41.748 -14.291   4.963  1.00  0.00     0.153 C 
BRANCH   6   7
HETATM    7  C   UNL     1      41.781 -15.356   3.978  1.00  0.00     0.018 A 
HETATM    8  C   UNL     1      40.961 -15.493   2.865  1.00  0.00     0.018 A 
HETATM    9  C   UNL     1      39.852 -14.641   2.353  1.00  0.00     0.069 C 
HETATM   10  N   UNL     1      41.334 -16.638   2.209  1.00  0.00    -0.358 N 
HETATM   11  H   UNL     1      40.906 -16.986   1.361  1.00  0.00     0.166 HD
HETATM   12  C   UNL     1      42.374 -17.255   2.861  1.00  0.00     0.043 A 
HETATM   13  C   UNL     1      42.678 -16.477   3.976  1.00  0.00     0.004 A 
HETATM   14  C   UNL     1      43.059 -18.434   2.545  1.00  0.00     0.030 A 
HETATM   15  C   UNL     1      43.725 -16.904   4.822  1.00  0.00     0.014 A 
HETATM   16  C   UNL     1      44.421 -18.081   4.522  1.00  0.00     0.001 A 
HETATM   17  C   UNL     1      44.091 -18.834   3.399  1.00  0.00     0.002 A 
ENDBRANCH   6   7
ENDBRANCH   1   5
BRANCH   2  18
HETATM   18  C   UNL     1      42.435 -10.037   6.607  1.00  0.00     0.121 A 
HETATM   19  N   UNL     1      41.842  -8.812   6.490  1.00  0.00    -0.272 N 
HETATM   20  H   UNL     1      41.434  -8.413   5.648  1.00  0.00     0.189 HD
HETATM   21  N   UNL     1      41.824  -8.099   7.625  1.00  0.00    -0.174 NA
HETATM   22  C   UNL     1      42.428  -8.880   8.533  1.00  0.00     0.089 A 
HETATM   23  C   UNL     1      42.826 -10.110   7.929  1.00  0.00     0.071 A 
BRANCH  22  24
HETATM   24  C   UNL     1      42.611  -8.441   9.924  1.00  0.00    -0.006 A 
HETATM   25  C   UNL     1      42.306  -7.120  10.295  1.00  0.00     0.015 A 
HETATM   26  C   UNL     1      42.476  -6.683  11.613  1.00  0.00     0.024 A 
HETATM   27  C   UNL     1      42.955  -7.566  12.576  1.00  0.00     0.034 A 
HETATM   28 CL   UNL     1      43.168  -7.035  14.197  1.00  0.00    -0.084 Cl
HETATM   29  C   UNL     1      43.264  -8.879  12.230  1.00  0.00     0.024 A 
HETATM   30  C   UNL     1      43.092  -9.315  10.911  1.00  0.00     0.015 A 
ENDBRANCH  22  24
ENDBRANCH   2  18
TORSDOF 4
ENDMDL
MODEL 5
REMARK VINA RESULT:      -8.2      2.120      3.003
REMARK  4 active torsions:
REMARK  status: ('A' for Active; 'I' for Inactive)
REMARK    1  A    between atoms: C_7  and  C_8 
REMARK    2  A    between atoms: N_9  and  N_10 
REMARK       I    between atoms: N_10  and  C_11 
REMARK    3  A    between atoms: C_11  and  C_12 
REMARK    4  A    between atoms: C_16  and  C_17 
ROOT
HETATM    1  N   UNL     1      42.558 -11.606   7.187  1.00  0.00    -0.242 N 
HETATM    2  C   UNL     1      42.674 -10.276   7.563  1.00  0.00     0.289 C 
HETATM    3  O   UNL     1      42.639  -9.330   6.781  1.00  0.00    -0.264 OA
HETATM    4  H   UNL     1      42.590 -12.340   7.880  1.00  0.00     0.192 HD
ENDROOT
BRANCH   1   5
HETATM    5  N   UNL     1      42.410 -11.935   5.869  1.00  0.00    -0.183 NA
HETATM    6  C   UNL     1      41.446 -12.751   5.592  1.00  0.00     0.153 C 
BRANCH   6   7
HETATM    7  C   UNL     1      41.205 -13.172   4.224  1.00  0.00     0.018 A 
HETATM    8  C   UNL     1      40.287 -12.633   3.331  1.00  0.00     0.018 A 
HETATM    9  C   UNL     1      39.314 -11.516   3.480  1.00  0.00     0.069 C 
HETATM   10  N   UNL     1      40.392 -13.328   2.153  1.00  0.00    -0.358 N 
HETATM   11  H   UNL     1      39.842 -13.149   1.323  1.00  0.00     0.166 HD
HETATM   12  C   UNL     1      41.352 -14.306   2.250  1.00  0.00     0.043 A 
HETATM   13  C   UNL     1      41.881 -14.235   3.538  1.00  0.00     0.004 A 
HETATM   14  C   UNL     1      41.785 -15.237   1.299  1.00  0.00     0.030 A 
HETATM   15  C   UNL     1      42.898 -15.149   3.892  1.00  0.00     0.014 A 
HETATM   16  C   UNL     1      43.342 -16.089   2.953  1.00  0.00     0.001 A 
HETATM   17  C   UNL     1      42.792 -16.129   1.675  1.00  0.00     0.002 A 
ENDBRANCH   6   7
ENDBRANCH   1   5
BRANCH   2  18
HETATM   18  C   UNL     1      42.845 -10.063   8.979  1.00  0.00     0.121 A 
HETATM   19  N   UNL     1      43.690 -10.846   9.712  1.00  0.00    -0.272 N 
HETATM   20  H   UNL     1      44.258 -11.615   9.365  1.00  0.00     0.189 HD
HETATM   21  N   UNL     1      43.742 -10.533  11.014  1.00  0.00    -0.174 NA
HETATM   22  C   UNL     1      42.896  -9.501  11.154  1.00  0.00     0.089 A 
HETATM   23  C   UNL     1      42.313  -9.175   9.894  1.00  0.00     0.071 A 
BRANCH  22  24
HETATM   24  C   UNL     1      42.667  -8.868  12.461  1.00  0.00    -0.006 A 
HETATM   25  C   UNL     1      43.467  -7.788  12.875  1.00  0.00     0.015 A 
HETATM   26  C   UNL     1      43.265  -7.175  14.115  1.00  0.00     0.024 A 
HETATM   27  C   UNL     1      42.259  -7.637  14.958  1.00  0.00     0.034 A 
HETATM   28 CL   UNL     1      42.007  -6.888  16.485  1.00  0.00    -0.084 Cl
HETATM   29  C   UNL     1      41.454  -8.704  14.568  1.00  0.00     0.024 A 
HETATM   30  C   UNL     1      41.657  -9.317  13.325  1.00  0.00     0.015 A 
ENDBRANCH  22  24
ENDBRANCH   2  18
TORSDOF 4
ENDMDL
MODEL 6
REMARK VINA RESULT:      -8.0     18.936     20.415
REMARK  4 active torsions:
REMARK  status: ('A' for Active; 'I' for Inactive)
REMARK    1  A    between atoms: C_7  and  C_8 
REMARK    2  A    between atoms: N_9  and  N_10 
REMARK       I    between atoms: N_10  and  C_11 
REMARK    3  A    between atoms: C_11  and  C_12 
REMARK    4  A    between atoms: C_16  and  C_17 
ROOT
HETATM    1  N   UNL     1      43.032 -30.075   3.254  1.00  0.00    -0.242 N 
HETATM    2  C   UNL     1      41.858 -30.664   2.809  1.00  0.00     0.289 C 
HETATM    3  O   UNL     1      41.511 -30.717   1.632  1.00  0.00    -0.264 OA
HETATM    4  H   UNL     1      43.263 -30.068   4.237  1.00  0.00     0.192 HD
ENDROOT
BRANCH   1   5
HETATM    5  N   UNL     1      43.884 -29.487   2.361  1.00  0.00    -0.183 NA
HETATM    6  C   UNL     1      45.146 -29.676   2.571  1.00  0.00     0.153 C 
BRANCH   6   7
HETATM    7  C   UNL     1      46.137 -29.091   1.688  1.00  0.00     0.018 A 
HETATM    8  C   UNL     1      47.440 -28.734   2.012  1.00  0.00     0.018 A 
HETATM    9  C   UNL     1      48.195 -28.832   3.292  1.00  0.00     0.069 C 
HETATM   10  N   UNL     1      48.026 -28.221   0.882  1.00  0.00    -0.358 N 
HETATM   11  H   UNL     1      48.977 -27.880   0.826  1.00  0.00     0.166 HD
HETATM   12  C   UNL     1      47.144 -28.231  -0.171  1.00  0.00     0.043 A 
HETATM   13  C   UNL     1      45.948 -28.771   0.302  1.00  0.00     0.004 A 
HETATM   14  C   UNL     1      47.318 -27.807  -1.493  1.00  0.00     0.030 A 
HETATM   15  C   UNL     1      44.868 -28.890  -0.600  1.00  0.00     0.014 A 
HETATM   16  C   UNL     1      45.024 -28.469  -1.926  1.00  0.00     0.001 A 
HETATM   17  C   UNL     1      46.233 -27.936  -2.365  1.00  0.00     0.002 A 
ENDBRANCH   6   7
ENDBRANCH   1   5
BRANCH   2  18
HETATM   18  C   UNL     1      41.037 -31.231   3.851  1.00  0.00     0.121 A 
HETATM   19  N   UNL     1      41.332 -31.027   5.169  1.00  0.00    -0.272 N 
HETATM   20  H   UNL     1      42.110 -30.488   5.540  1.00  0.00     0.189 HD
HETATM   21  N   UNL     1      40.484 -31.620   6.021  1.00  0.00    -0.174 NA
HETATM   22  C   UNL     1      39.588 -32.242   5.239  1.00  0.00     0.089 A 
HETATM   23  C   UNL     1      39.903 -32.019   3.866  1.00  0.00     0.071 A 
BRANCH  22  24
HETATM   24  C   UNL     1      38.481 -33.022   5.811  1.00  0.00    -0.006 A 
HETATM   25  C   UNL     1      38.528 -33.442   7.152  1.00  0.00     0.015 A 
HETATM   26  C   UNL     1      37.485 -34.187   7.711  1.00  0.00     0.024 A 
HETATM   27  C   UNL     1      36.381 -34.521   6.934  1.00  0.00     0.034 A 
HETATM   28 CL   UNL     1      35.096 -35.437   7.616  1.00  0.00    -0.084 Cl
HETATM   29  C   UNL     1      36.313 -34.115   5.603  1.00  0.00     0.024 A 
HETATM   30  C   UNL     1      37.357 -33.369   5.045  1.00  0.00     0.015 A 
ENDBRANCH  22  24
ENDBRANCH   2  18
TORSDOF 4
ENDMDL
MODEL 7
REMARK VINA RESULT:      -7.7      2.299      2.570
REMARK  4 active torsions:
REMARK  status: ('A' for Active; 'I' for Inactive)
REMARK    1  A    between atoms: C_7  and  C_8 
REMARK    2  A    between atoms: N_9  and  N_10 
REMARK       I    between atoms: N_10  and  C_11 
REMARK    3  A    between atoms: C_11  and  C_12 
REMARK    4  A    between atoms: C_16  and  C_17 
ROOT
HETATM    1  N   UNL     1      43.369 -11.894   7.253  1.00  0.00    -0.242 N 
HETATM    2  C   UNL     1      44.377 -11.189   7.893  1.00  0.00     0.289 C 
HETATM    3  O   UNL     1      45.575 -11.433   7.775  1.00  0.00    -0.264 OA
HETATM    4  H   UNL     1      42.400 -11.641   7.388  1.00  0.00     0.192 HD
ENDROOT
BRANCH   1   5
HETATM    5  N   UNL     1      43.679 -12.947   6.440  1.00  0.00    -0.183 NA
HETATM    6  C   UNL     1      42.829 -13.922   6.424  1.00  0.00     0.153 C 
BRANCH   6   7
HETATM    7  C   UNL     1      43.065 -15.094   5.601  1.00  0.00     0.018 A 
HETATM    8  C   UNL     1      43.362 -16.379   6.038  1.00  0.00     0.018 A 
HETATM    9  C   UNL     1      43.524 -16.935   7.410  1.00  0.00     0.069 C 
HETATM   10  N   UNL     1      43.505 -17.175   4.930  1.00  0.00    -0.358 N 
HETATM   11  H   UNL     1      43.723 -18.163   4.950  1.00  0.00     0.166 HD
HETATM   12  C   UNL     1      43.310 -16.448   3.781  1.00  0.00     0.043 A 
HETATM   13  C   UNL     1      43.033 -15.138   4.167  1.00  0.00     0.004 A 
HETATM   14  C   UNL     1      43.359 -16.854   2.442  1.00  0.00     0.030 A 
HETATM   15  C   UNL     1      42.793 -14.182   3.155  1.00  0.00     0.014 A 
HETATM   16  C   UNL     1      42.839 -14.569   1.811  1.00  0.00     0.001 A 
HETATM   17  C   UNL     1      43.117 -15.888   1.462  1.00  0.00     0.002 A 
ENDBRANCH   6   7
ENDBRANCH   1   5
BRANCH   2  18
HETATM   18  C   UNL     1      43.918 -10.114   8.738  1.00  0.00     0.121 A 
HETATM   19  N   UNL     1      44.127 -10.142  10.088  1.00  0.00    -0.272 N 
HETATM   20  H   UNL     1      44.598 -10.874  10.614  1.00  0.00     0.189 HD
HETATM   21  N   UNL     1      43.640  -9.078  10.742  1.00  0.00    -0.174 NA
HETATM   22  C   UNL     1      43.086  -8.312   9.790  1.00  0.00     0.089 A 
HETATM   23  C   UNL     1      43.243  -8.931   8.514  1.00  0.00     0.071 A 
BRANCH  22  24
HETATM   24  C   UNL     1      42.431  -7.037  10.116  1.00  0.00    -0.006 A 
HETATM   25  C   UNL     1      41.795  -6.290   9.109  1.00  0.00     0.015 A 
HETATM   26  C   UNL     1      41.168  -5.074   9.400  1.00  0.00     0.024 A 
HETATM   27  C   UNL     1      41.171  -4.590  10.704  1.00  0.00     0.034 A 
HETATM   28 CL   UNL     1      40.404  -3.096  11.067  1.00  0.00    -0.084 Cl
HETATM   29  C   UNL     1      41.795  -5.314  11.718  1.00  0.00     0.024 A 
HETATM   30  C   UNL     1      42.421  -6.532  11.425  1.00  0.00     0.015 A 
ENDBRANCH  22  24
ENDBRANCH   2  18
TORSDOF 4
ENDMDL
MODEL 8
REMARK VINA RESULT:      -7.6      3.221      3.750
REMARK  4 active torsions:
REMARK  status: ('A' for Active; 'I' for Inactive)
REMARK    1  A    between atoms: C_7  and  C_8 
REMARK    2  A    between atoms: N_9  and  N_10 
REMARK       I    between atoms: N_10  and  C_11 
REMARK    3  A    between atoms: C_11  and  C_12 
REMARK    4  A    between atoms: C_16  and  C_17 
ROOT
HETATM    1  N   UNL     1      41.742 -12.350   6.180  1.00  0.00    -0.242 N 
HETATM    2  C   UNL     1      41.237 -11.071   5.995  1.00  0.00     0.289 C 
HETATM    3  O   UNL     1      40.931 -10.599   4.903  1.00  0.00    -0.264 OA
HETATM    4  H   UNL     1      41.970 -12.682   7.107  1.00  0.00     0.192 HD
ENDROOT
BRANCH   1   5
HETATM    5  N   UNL     1      41.945 -13.168   5.106  1.00  0.00    -0.183 NA
HETATM    6  C   UNL     1      41.408 -14.343   5.178  1.00  0.00     0.153 C 
BRANCH   6   7
HETATM    7  C   UNL     1      41.568 -15.295   4.094  1.00  0.00     0.018 A 
HETATM    8  C   UNL     1      40.859 -15.332   2.900  1.00  0.00     0.018 A 
HETATM    9  C   UNL     1      39.772 -14.460   2.378  1.00  0.00     0.069 C 
HETATM   10  N   UNL     1      41.331 -16.391   2.166  1.00  0.00    -0.358 N 
HETATM   11  H   UNL     1      40.996 -16.656   1.249  1.00  0.00     0.166 HD
HETATM   12  C   UNL     1      42.329 -17.047   2.845  1.00  0.00     0.043 A 
HETATM   13  C   UNL     1      42.502 -16.385   4.060  1.00  0.00     0.004 A 
HETATM   14  C   UNL     1      43.082 -18.167   2.475  1.00  0.00     0.030 A 
HETATM   15  C   UNL     1      43.482 -16.874   4.952  1.00  0.00     0.014 A 
HETATM   16  C   UNL     1      44.243 -17.994   4.598  1.00  0.00     0.001 A 
HETATM   17  C   UNL     1      44.045 -18.629   3.375  1.00  0.00     0.002 A 
ENDBRANCH   6   7
ENDBRANCH   1   5
BRANCH   2  18
HETATM   18  C   UNL     1      41.088 -10.300   7.205  1.00  0.00     0.121 A 
HETATM   19  N   UNL     1      42.158 -10.048   8.015  1.00  0.00    -0.272 N 
HETATM   20  H   UNL     1      43.117 -10.353   7.866  1.00  0.00     0.189 HD
HETATM   21  N   UNL     1      41.865  -9.325   9.105  1.00  0.00    -0.174 NA
HETATM   22  C   UNL     1      40.548  -9.086   9.016  1.00  0.00     0.089 A 
HETATM   23  C   UNL     1      40.023  -9.684   7.832  1.00  0.00     0.071 A 
BRANCH  22  24
HETATM   24  C   UNL     1      39.837  -8.314  10.046  1.00  0.00    -0.006 A 
HETATM   25  C   UNL     1      39.783  -8.781  11.370  1.00  0.00     0.015 A 
HETATM   26  C   UNL     1      39.109  -8.061  12.362  1.00  0.00     0.024 A 
HETATM   27  C   UNL     1      38.480  -6.863  12.039  1.00  0.00     0.034 A 
HETATM   28 CL   UNL     1      37.649  -5.974  13.253  1.00  0.00    -0.084 Cl
HETATM   29  C   UNL     1      38.521  -6.381  10.733  1.00  0.00     0.024 A 
HETATM   30  C   UNL     1      39.197  -7.102   9.741  1.00  0.00     0.015 A 
ENDBRANCH  22  24
ENDBRANCH   2  18
TORSDOF 4
ENDMDL
MODEL 9
REMARK VINA RESULT:      -7.6      7.467     11.222
REMARK  4 active torsions:
REMARK  status: ('A' for Active; 'I' for Inactive)
REMARK    1  A    between atoms: C_7  and  C_8 
REMARK    2  A    between atoms: N_9  and  N_10 
REMARK       I    between atoms: N_10  and  C_11 
REMARK    3  A    between atoms: C_11  and  C_12 
REMARK    4  A    between atoms: C_16  and  C_17 
ROOT
HETATM    1  N   UNL     1      41.326 -11.983   1.331  1.00  0.00    -0.242 N 
HETATM    2  C   UNL     1      40.638 -12.296   0.167  1.00  0.00     0.289 C 
HETATM    3  O   UNL     1      40.114 -13.384  -0.055  1.00  0.00    -0.264 OA
HETATM    4  H   UNL     1      41.732 -11.066   1.456  1.00  0.00     0.192 HD
ENDROOT
BRANCH   1   5
HETATM    5  N   UNL     1      41.469 -12.920   2.315  1.00  0.00    -0.183 NA
HETATM    6  C   UNL     1      42.663 -13.387   2.485  1.00  0.00     0.153 C 
BRANCH   6   7
HETATM    7  C   UNL     1      42.925 -14.392   3.498  1.00  0.00     0.018 A 
HETATM    8  C   UNL     1      43.008 -14.196   4.871  1.00  0.00     0.018 A 
HETATM    9  C   UNL     1      42.864 -12.965   5.696  1.00  0.00     0.069 C 
HETATM   10  N   UNL     1      43.268 -15.412   5.452  1.00  0.00    -0.358 N 
HETATM   11  H   UNL     1      43.379 -15.567   6.445  1.00  0.00     0.166 HD
HETATM   12  C   UNL     1      43.357 -16.397   4.499  1.00  0.00     0.043 A 
HETATM   13  C   UNL     1      43.147 -15.791   3.262  1.00  0.00     0.004 A 
HETATM   14  C   UNL     1      43.605 -17.767   4.644  1.00  0.00     0.030 A 
HETATM   15  C   UNL     1      43.190 -16.601   2.106  1.00  0.00     0.014 A 
HETATM   16  C   UNL     1      43.438 -17.973   2.232  1.00  0.00     0.001 A 
HETATM   17  C   UNL     1      43.642 -18.546   3.484  1.00  0.00     0.002 A 
ENDBRANCH   6   7
ENDBRANCH   1   5
BRANCH   2  18
HETATM   18  C   UNL     1      40.575 -11.229  -0.801  1.00  0.00     0.121 A 
HETATM   19  N   UNL     1      39.375 -10.730  -1.220  1.00  0.00    -0.272 N 
HETATM   20  H   UNL     1      38.453 -11.032  -0.917  1.00  0.00     0.189 HD
HETATM   21  N   UNL     1      39.473  -9.745  -2.125  1.00  0.00    -0.174 NA
HETATM   22  C   UNL     1      40.792  -9.583  -2.315  1.00  0.00     0.089 A 
HETATM   23  C   UNL     1      41.518 -10.499  -1.497  1.00  0.00     0.071 A 
BRANCH  22  24
HETATM   24  C   UNL     1      41.314  -8.582  -3.256  1.00  0.00    -0.006 A 
HETATM   25  C   UNL     1      40.696  -8.393  -4.505  1.00  0.00     0.015 A 
HETATM   26  C   UNL     1      41.181  -7.447  -5.414  1.00  0.00     0.024 A 
HETATM   27  C   UNL     1      42.292  -6.678  -5.083  1.00  0.00     0.034 A 
HETATM   28 CL   UNL     1      42.893  -5.515  -6.197  1.00  0.00    -0.084 Cl
HETATM   29  C   UNL     1      42.920  -6.848  -3.852  1.00  0.00     0.024 A 
HETATM   30  C   UNL     1      42.433  -7.795  -2.942  1.00  0.00     0.015 A 
ENDBRANCH  22  24
ENDBRANCH   2  18
TORSDOF 4
ENDMDL
MODEL 10
REMARK VINA RESULT:      -7.5      6.897     13.633
REMARK  4 active torsions:
REMARK  status: ('A' for Active; 'I' for Inactive)
REMARK    1  A    between atoms: C_7  and  C_8 
REMARK    2  A    between atoms: N_9  and  N_10 
REMARK       I    between atoms: N_10  and  C_11 
REMARK    3  A    between atoms: C_11  and  C_12 
REMARK    4  A    between atoms: C_16  and  C_17 
ROOT
HETATM    1  N   UNL     1      40.994  -8.181  16.441  1.00  0.00    -0.242 N 
HETATM    2  C   UNL     1      41.046  -7.251  15.412  1.00  0.00     0.289 C 
HETATM    3  O   UNL     1      40.718  -6.073  15.526  1.00  0.00    -0.264 OA
HETATM    4  H   UNL     1      41.283  -9.136  16.285  1.00  0.00     0.192 HD
ENDROOT
BRANCH   1   5
HETATM    5  N   UNL     1      40.539  -7.811  17.675  1.00  0.00    -0.183 NA
HETATM    6  C   UNL     1      41.349  -8.013  18.663  1.00  0.00     0.153 C 
BRANCH   6   7
HETATM    7  C   UNL     1      40.963  -7.664  20.018  1.00  0.00     0.018 A 
HETATM    8  C   UNL     1      40.549  -8.531  21.021  1.00  0.00     0.018 A 
HETATM    9  C   UNL     1      40.378 -10.010  21.029  1.00  0.00     0.069 C 
HETATM   10  N   UNL     1      40.285  -7.782  22.139  1.00  0.00    -0.358 N 
HETATM   11  H   UNL     1      39.966  -8.154  23.024  1.00  0.00     0.166 HD
HETATM   12  C   UNL     1      40.514  -6.450  21.897  1.00  0.00     0.043 A 
HETATM   13  C   UNL     1      40.941  -6.341  20.574  1.00  0.00     0.004 A 
HETATM   14  C   UNL     1      40.376  -5.345  22.746  1.00  0.00     0.030 A 
HETATM   15  C   UNL     1      41.244  -5.055  20.075  1.00  0.00     0.014 A 
HETATM   16  C   UNL     1      41.110  -3.939  20.909  1.00  0.00     0.001 A 
HETATM   17  C   UNL     1      40.683  -4.085  22.227  1.00  0.00     0.002 A 
ENDBRANCH   6   7
ENDBRANCH   1   5
BRANCH   2  18
HETATM   18  C   UNL     1      41.526  -7.771  14.155  1.00  0.00     0.121 A 
HETATM   19  N   UNL     1      40.771  -8.639  13.419  1.00  0.00    -0.272 N 
HETATM   20  H   UNL     1      39.848  -8.993  13.657  1.00  0.00     0.189 HD
HETATM   21  N   UNL     1      41.349  -9.040  12.278  1.00  0.00    -0.174 NA
HETATM   22  C   UNL     1      42.535  -8.414  12.254  1.00  0.00     0.089 A 
HETATM   23  C   UNL     1      42.682  -7.604  13.419  1.00  0.00     0.071 A 
BRANCH  22  24
HETATM   24  C   UNL     1      43.481  -8.603  11.144  1.00  0.00    -0.006 A 
HETATM   25  C   UNL     1      44.467  -9.603  11.217  1.00  0.00     0.015 A 
HETATM   26  C   UNL     1      45.377  -9.796  10.173  1.00  0.00     0.024 A 
HETATM   27  C   UNL     1      45.310  -8.990   9.041  1.00  0.00     0.034 A 
HETATM   28 CL   UNL     1      46.426  -9.222   7.755  1.00  0.00    -0.084 Cl
HETATM   29  C   UNL     1      44.341  -7.994   8.947  1.00  0.00     0.024 A 
HETATM   30  C   UNL     1      43.430  -7.802   9.993  1.00  0.00     0.015 A 
ENDBRANCH  22  24
ENDBRANCH   2  18
TORSDOF 4
ENDMDL
