MODEL 1
REMARK VINA RESULT:      -8.8      0.000      0.000
REMARK  5 active torsions:
REMARK  status: ('A' for Active; 'I' for Inactive)
REMARK    1  A    between atoms: O_2  and  C_3 
REMARK    2  A    between atoms: C_5  and  C_6 
REMARK       I    between atoms: C_6  and  N_7 
REMARK    3  A    between atoms: N_7  and  C_8 
REMARK    4  A    between atoms: C_8  and  C_9 
REMARK       I    between atoms: C_9  and  N_10 
REMARK    5  A    between atoms: N_10  and  N_11 
ROOT
HETATM    1  C   UNL     1      43.848 -12.039   7.097  1.00  0.00     0.255 C 
HETATM    2  N   UNL     1      42.777 -12.890   6.876  1.00  0.00    -0.245 N 
HETATM    3  O   UNL     1      45.027 -12.326   6.879  1.00  0.00    -0.270 OA
HETATM    4  H   UNL     1      41.817 -12.539   6.949  1.00  0.00     0.192 HD
ENDROOT
BRANCH   1   5
HETATM    5  C   UNL     1      43.458 -10.622   7.511  1.00  0.00     0.227 C 
BRANCH   5   6
HETATM    6  N   UNL     1      43.233 -10.436   8.936  1.00  0.00    -0.348 N 
HETATM    7  C   UNL     1      42.510  -9.371   9.422  1.00  0.00     0.252 C 
HETATM    8  O   UNL     1      41.889  -8.619   8.679  1.00  0.00    -0.268 OA
HETATM    9  H   UNL     1      43.566 -11.158   9.560  1.00  0.00     0.163 HD
BRANCH   7  10
HETATM   10  C   UNL     1      42.505  -9.167  10.899  1.00  0.00     0.034 A 
HETATM   11  C   UNL     1      41.409  -9.642  11.631  1.00  0.00     0.053 A 
HETATM   12  C   UNL     1      41.313  -9.409  13.006  1.00  0.00     0.069 A 
HETATM   13  C   UNL     1      42.337  -8.722  13.660  1.00  0.00     0.037 A 
HETATM   14  C   UNL     1      43.434  -8.246  12.939  1.00  0.00     0.004 A 
HETATM   15  C   UNL     1      43.515  -8.456  11.561  1.00  0.00     0.017 A 
BRANCH  12  16
HETATM   16  O   UNL     1      40.185  -9.905  13.600  1.00  0.00    -0.356 OA
HETATM   17  C   UNL     1      39.449 -10.866  12.853  1.00  0.00     0.210 C 
ENDBRANCH  12  16
ENDBRANCH   7  10
ENDBRANCH   5   6
ENDBRANCH   1   5
BRANCH   2  18
HETATM   18  N   UNL     1      43.017 -14.146   6.402  1.00  0.00    -0.166 NA
HETATM   19  C   UNL     1      42.893 -14.344   5.131  1.00  0.00     0.157 A 
HETATM   20  C   UNL     1      42.468 -13.368   4.034  1.00  0.00     0.277 A 
HETATM   21  C   UNL     1      43.150 -15.613   4.461  1.00  0.00     0.028 A 
HETATM   22  O   UNL     1      42.131 -12.218   4.213  1.00  0.00    -0.266 OA
HETATM   23  N   UNL     1      42.530 -14.086   2.857  1.00  0.00    -0.321 N 
HETATM   24  C   UNL     1      42.923 -15.400   3.102  1.00  0.00     0.048 A 
HETATM   25  H   UNL     1      42.300 -13.692   1.956  1.00  0.00     0.169 HD
HETATM   26  C   UNL     1      43.085 -16.416   2.184  1.00  0.00     0.032 A 
HETATM   27  C   UNL     1      43.484 -17.668   2.674  1.00  0.00     0.021 A 
HETATM   28  C   UNL     1      43.709 -17.868   4.053  1.00  0.00     0.012 A 
HETATM   29 BR   UNL     1      44.243 -19.576   4.664  1.00  0.00    -0.051 Br
HETATM   30  C   UNL     1      43.545 -16.833   4.972  1.00  0.00     0.035 A 
ENDBRANCH   2  18
TORSDOF 5
ENDMDL
MODEL 2
REMARK VINA RESULT:      -8.7      2.457      4.324
REMARK  5 active torsions:
REMARK  status: ('A' for Active; 'I' for Inactive)
REMARK    1  A    between atoms: O_2  and  C_3 
REMARK    2  A    between atoms: C_5  and  C_6 
REMARK       I    between atoms: C_6  and  N_7 
REMARK    3  A    between atoms: N_7  and  C_8 
REMARK    4  A    between atoms: C_8  and  C_9 
REMARK       I    between atoms: C_9  and  N_10 
REMARK    5  A    between atoms: N_10  and  N_11 
ROOT
HETATM    1  C   UNL     1      41.227 -13.342   3.757  1.00  0.00     0.255 C 
HETATM    2  N   UNL     1      42.543 -13.740   3.590  1.00  0.00    -0.245 N 
HETATM    3  O   UNL     1      40.252 -14.089   3.657  1.00  0.00    -0.270 OA
HETATM    4  H   UNL     1      43.309 -13.099   3.822  1.00  0.00     0.192 HD
ENDROOT
BRANCH   1   5
HETATM    5  C   UNL     1      41.056 -11.899   4.226  1.00  0.00     0.227 C 
BRANCH   5   6
HETATM    6  N   UNL     1      41.879 -11.518   5.363  1.00  0.00    -0.348 N 
HETATM    7  C   UNL     1      43.181 -11.102   5.207  1.00  0.00     0.252 C 
HETATM    8  O   UNL     1      43.660 -10.879   4.100  1.00  0.00    -0.268 OA
HETATM    9  H   UNL     1      41.439 -11.500   6.273  1.00  0.00     0.163 HD
BRANCH   7  10
HETATM   10  C   UNL     1      43.994 -10.924   6.445  1.00  0.00     0.034 A 
HETATM   11  C   UNL     1      43.352 -10.456   7.598  1.00  0.00     0.053 A 
HETATM   12  C   UNL     1      44.078 -10.194   8.763  1.00  0.00     0.069 A 
HETATM   13  C   UNL     1      45.452 -10.434   8.786  1.00  0.00     0.037 A 
HETATM   14  C   UNL     1      46.101 -10.903   7.641  1.00  0.00     0.004 A 
HETATM   15  C   UNL     1      45.378 -11.137   6.469  1.00  0.00     0.017 A 
BRANCH  12  16
HETATM   16  O   UNL     1      43.339  -9.720   9.813  1.00  0.00    -0.356 OA
HETATM   17  C   UNL     1      44.071  -9.226  10.928  1.00  0.00     0.210 C 
ENDBRANCH  12  16
ENDBRANCH   7  10
ENDBRANCH   5   6
ENDBRANCH   1   5
BRANCH   2  18
HETATM   18  N   UNL     1      42.806 -15.041   3.275  1.00  0.00    -0.166 NA
HETATM   19  C   UNL     1      43.150 -15.836   4.234  1.00  0.00     0.157 A 
HETATM   20  C   UNL     1      43.353 -15.534   5.719  1.00  0.00     0.277 A 
HETATM   21  C   UNL     1      43.426 -17.259   4.073  1.00  0.00     0.028 A 
HETATM   22  O   UNL     1      43.254 -14.439   6.230  1.00  0.00    -0.266 OA
HETATM   23  N   UNL     1      43.688 -16.741   6.298  1.00  0.00    -0.321 N 
HETATM   24  C   UNL     1      43.736 -17.750   5.341  1.00  0.00     0.048 A 
HETATM   25  H   UNL     1      43.882 -16.845   7.284  1.00  0.00     0.169 HD
HETATM   26  C   UNL     1      44.046 -19.079   5.533  1.00  0.00     0.032 A 
HETATM   27  C   UNL     1      44.037 -19.912   4.404  1.00  0.00     0.021 A 
HETATM   28  C   UNL     1      43.721 -19.399   3.128  1.00  0.00     0.012 A 
HETATM   29 BR   UNL     1      43.726 -20.562   1.636  1.00  0.00    -0.051 Br
HETATM   30  C   UNL     1      43.407 -18.053   2.945  1.00  0.00     0.035 A 
ENDBRANCH   2  18
TORSDOF 5
ENDMDL
MODEL 3
REMARK VINA RESULT:      -8.6      2.121      3.183
REMARK  5 active torsions:
REMARK  status: ('A' for Active; 'I' for Inactive)
REMARK    1  A    between atoms: O_2  and  C_3 
REMARK    2  A    between atoms: C_5  and  C_6 
REMARK       I    between atoms: C_6  and  N_7 
REMARK    3  A    between atoms: N_7  and  C_8 
REMARK    4  A    between atoms: C_8  and  C_9 
REMARK       I    between atoms: C_9  and  N_10 
REMARK    5  A    between atoms: N_10  and  N_11 
ROOT
HETATM    1  C   UNL     1      41.753 -13.325   5.532  1.00  0.00     0.255 C 
HETATM    2  N   UNL     1      42.926 -13.821   4.985  1.00  0.00    -0.245 N 
HETATM    3  O   UNL     1      40.881 -14.016   6.061  1.00  0.00    -0.270 OA
HETATM    4  H   UNL     1      43.667 -13.179   4.686  1.00  0.00     0.192 HD
ENDROOT
BRANCH   1   5
HETATM    5  C   UNL     1      41.665 -11.801   5.567  1.00  0.00     0.227 C 
BRANCH   5   6
HETATM    6  N   UNL     1      42.362 -11.169   6.677  1.00  0.00    -0.348 N 
HETATM    7  C   UNL     1      43.726 -10.987   6.664  1.00  0.00     0.252 C 
HETATM    8  O   UNL     1      44.398 -11.200   5.661  1.00  0.00    -0.268 OA
HETATM    9  H   UNL     1      41.801 -10.799   7.431  1.00  0.00     0.163 HD
BRANCH   7  10
HETATM   10  C   UNL     1      44.362 -10.509   7.926  1.00  0.00     0.034 A 
HETATM   11  C   UNL     1      43.896 -11.028   9.141  1.00  0.00     0.053 A 
HETATM   12  C   UNL     1      44.399 -10.558  10.358  1.00  0.00     0.069 A 
HETATM   13  C   UNL     1      45.399  -9.585  10.359  1.00  0.00     0.037 A 
HETATM   14  C   UNL     1      45.871  -9.063   9.152  1.00  0.00     0.004 A 
HETATM   15  C   UNL     1      45.348  -9.514   7.938  1.00  0.00     0.017 A 
BRANCH  12  16
HETATM   16  O   UNL     1      43.847 -11.128  11.472  1.00  0.00    -0.356 OA
HETATM   17  C   UNL     1      42.954 -10.313  12.222  1.00  0.00     0.210 C 
ENDBRANCH  12  16
ENDBRANCH   7  10
ENDBRANCH   5   6
ENDBRANCH   1   5
BRANCH   2  18
HETATM   18  N   UNL     1      43.147 -15.167   5.003  1.00  0.00    -0.166 NA
HETATM   19  C   UNL     1      43.139 -15.794   3.874  1.00  0.00     0.157 A 
HETATM   20  C   UNL     1      42.872 -15.257   2.467  1.00  0.00     0.277 A 
HETATM   21  C   UNL     1      43.396 -17.221   3.716  1.00  0.00     0.028 A 
HETATM   22  O   UNL     1      42.578 -14.113   2.199  1.00  0.00    -0.266 OA
HETATM   23  N   UNL     1      43.014 -16.342   1.626  1.00  0.00    -0.321 N 
HETATM   24  C   UNL     1      43.314 -17.492   2.351  1.00  0.00     0.048 A 
HETATM   25  H   UNL     1      42.893 -16.284   0.625  1.00  0.00     0.169 HD
HETATM   26  C   UNL     1      43.514 -18.767   1.865  1.00  0.00     0.032 A 
HETATM   27  C   UNL     1      43.800 -19.774   2.798  1.00  0.00     0.021 A 
HETATM   28  C   UNL     1      43.878 -19.483   4.176  1.00  0.00     0.012 A 
HETATM   29 BR   UNL     1      44.264 -20.877   5.395  1.00  0.00    -0.051 Br
HETATM   30  C   UNL     1      43.677 -18.190   4.657  1.00  0.00     0.035 A 
ENDBRANCH   2  18
TORSDOF 5
ENDMDL
MODEL 4
REMARK VINA RESULT:      -8.6      4.347      8.932
REMARK  5 active torsions:
REMARK  status: ('A' for Active; 'I' for Inactive)
REMARK    1  A    between atoms: O_2  and  C_3 
REMARK    2  A    between atoms: C_5  and  C_6 
REMARK       I    between atoms: C_6  and  N_7 
REMARK    3  A    between atoms: N_7  and  C_8 
REMARK    4  A    between atoms: C_8  and  C_9 
REMARK       I    between atoms: C_9  and  N_10 
REMARK    5  A    between atoms: N_10  and  N_11 
ROOT
HETATM    1  C   UNL     1      40.827 -12.218   4.180  1.00  0.00     0.255 C 
HETATM    2  N   UNL     1      41.087 -12.401   5.529  1.00  0.00    -0.245 N 
HETATM    3  O   UNL     1      41.010 -11.164   3.569  1.00  0.00    -0.270 OA
HETATM    4  H   UNL     1      41.042 -13.338   5.941  1.00  0.00     0.192 HD
ENDROOT
BRANCH   1   5
HETATM    5  C   UNL     1      40.415 -13.486   3.437  1.00  0.00     0.227 C 
BRANCH   5   6
HETATM    6  N   UNL     1      41.181 -14.676   3.776  1.00  0.00    -0.348 N 
HETATM    7  C   UNL     1      42.205 -15.128   2.977  1.00  0.00     0.252 C 
HETATM    8  O   UNL     1      42.628 -14.471   2.033  1.00  0.00    -0.268 OA
HETATM    9  H   UNL     1      40.982 -15.123   4.660  1.00  0.00     0.163 HD
BRANCH   7  10
HETATM   10  C   UNL     1      42.793 -16.458   3.310  1.00  0.00     0.034 A 
HETATM   11  C   UNL     1      42.940 -16.799   4.661  1.00  0.00     0.053 A 
HETATM   12  C   UNL     1      43.558 -17.997   5.031  1.00  0.00     0.069 A 
HETATM   13  C   UNL     1      44.004 -18.876   4.044  1.00  0.00     0.037 A 
HETATM   14  C   UNL     1      43.860 -18.545   2.694  1.00  0.00     0.004 A 
HETATM   15  C   UNL     1      43.267 -17.335   2.326  1.00  0.00     0.017 A 
BRANCH  12  16
HETATM   16  O   UNL     1      43.660 -18.203   6.380  1.00  0.00    -0.356 OA
HETATM   17  C   UNL     1      43.675 -17.038   7.197  1.00  0.00     0.210 C 
ENDBRANCH  12  16
ENDBRANCH   7  10
ENDBRANCH   5   6
ENDBRANCH   1   5
BRANCH   2  18
HETATM   18  N   UNL     1      41.564 -11.351   6.259  1.00  0.00    -0.166 NA
HETATM   19  C   UNL     1      42.809 -11.372   6.601  1.00  0.00     0.157 A 
HETATM   20  C   UNL     1      43.870 -12.443   6.343  1.00  0.00     0.277 A 
HETATM   21  C   UNL     1      43.483 -10.314   7.346  1.00  0.00     0.028 A 
HETATM   22  O   UNL     1      43.675 -13.500   5.783  1.00  0.00    -0.266 OA
HETATM   23  N   UNL     1      45.034 -11.951   6.897  1.00  0.00    -0.321 N 
HETATM   24  C   UNL     1      44.811 -10.710   7.489  1.00  0.00     0.048 A 
HETATM   25  H   UNL     1      45.910 -12.452   6.877  1.00  0.00     0.169 HD
HETATM   26  C   UNL     1      45.724  -9.917   8.152  1.00  0.00     0.032 A 
HETATM   27  C   UNL     1      45.260  -8.701   8.675  1.00  0.00     0.021 A 
HETATM   28  C   UNL     1      43.911  -8.315   8.522  1.00  0.00     0.012 A 
HETATM   29 BR   UNL     1      43.333  -6.666   9.248  1.00  0.00    -0.051 Br
HETATM   30  C   UNL     1      42.997  -9.123   7.847  1.00  0.00     0.035 A 
ENDBRANCH   2  18
TORSDOF 5
ENDMDL
MODEL 5
REMARK VINA RESULT:      -8.4      3.730      9.107
REMARK  5 active torsions:
REMARK  status: ('A' for Active; 'I' for Inactive)
REMARK    1  A    between atoms: O_2  and  C_3 
REMARK    2  A    between atoms: C_5  and  C_6 
REMARK       I    between atoms: C_6  and  N_7 
REMARK    3  A    between atoms: N_7  and  C_8 
REMARK    4  A    between atoms: C_8  and  C_9 
REMARK       I    between atoms: C_9  and  N_10 
REMARK    5  A    between atoms: N_10  and  N_11 
ROOT
HETATM    1  C   UNL     1      42.590 -10.831   4.222  1.00  0.00     0.255 C 
HETATM    2  N   UNL     1      43.022 -11.431   5.394  1.00  0.00    -0.245 N 
HETATM    3  O   UNL     1      41.975  -9.764   4.168  1.00  0.00    -0.270 OA
HETATM    4  H   UNL     1      43.645 -12.244   5.357  1.00  0.00     0.192 HD
ENDROOT
BRANCH   1   5
HETATM    5  C   UNL     1      43.059 -11.523   2.945  1.00  0.00     0.227 C 
BRANCH   5   6
HETATM    6  N   UNL     1      43.369 -12.937   3.088  1.00  0.00    -0.348 N 
HETATM    7  C   UNL     1      42.683 -13.903   2.387  1.00  0.00     0.252 C 
HETATM    8  O   UNL     1      41.894 -13.615   1.495  1.00  0.00    -0.268 OA
HETATM    9  H   UNL     1      44.158 -13.186   3.669  1.00  0.00     0.163 HD
BRANCH   7  10
HETATM   10  C   UNL     1      42.945 -15.325   2.752  1.00  0.00     0.034 A 
HETATM   11  C   UNL     1      43.106 -15.644   4.106  1.00  0.00     0.053 A 
HETATM   12  C   UNL     1      43.433 -16.945   4.499  1.00  0.00     0.069 A 
HETATM   13  C   UNL     1      43.568 -17.943   3.532  1.00  0.00     0.037 A 
HETATM   14  C   UNL     1      43.407 -17.634   2.179  1.00  0.00     0.004 A 
HETATM   15  C   UNL     1      43.108 -16.327   1.787  1.00  0.00     0.017 A 
BRANCH  12  16
HETATM   16  O   UNL     1      43.585 -17.123   5.847  1.00  0.00    -0.356 OA
HETATM   17  C   UNL     1      42.527 -16.644   6.669  1.00  0.00     0.210 C 
ENDBRANCH  12  16
ENDBRANCH   7  10
ENDBRANCH   5   6
ENDBRANCH   1   5
BRANCH   2  18
HETATM   18  N   UNL     1      42.744 -10.831   6.587  1.00  0.00    -0.166 NA
HETATM   19  C   UNL     1      43.714 -10.682   7.427  1.00  0.00     0.157 A 
HETATM   20  C   UNL     1      45.174 -11.123   7.312  1.00  0.00     0.277 A 
HETATM   21  C   UNL     1      43.594 -10.028   8.725  1.00  0.00     0.028 A 
HETATM   22  O   UNL     1      45.647 -11.741   6.383  1.00  0.00    -0.266 OA
HETATM   23  N   UNL     1      45.781 -10.693   8.474  1.00  0.00    -0.321 N 
HETATM   24  C   UNL     1      44.862 -10.058   9.305  1.00  0.00     0.048 A 
HETATM   25  H   UNL     1      46.759 -10.847   8.676  1.00  0.00     0.169 HD
HETATM   26  C   UNL     1      45.088  -9.510  10.549  1.00  0.00     0.032 A 
HETATM   27  C   UNL     1      43.995  -8.925  11.204  1.00  0.00     0.021 A 
HETATM   28  C   UNL     1      42.718  -8.904  10.604  1.00  0.00     0.012 A 
HETATM   29 BR   UNL     1      41.274  -8.106  11.529  1.00  0.00    -0.051 Br
HETATM   30  C   UNL     1      42.500  -9.459   9.344  1.00  0.00     0.035 A 
ENDBRANCH   2  18
TORSDOF 5
ENDMDL
MODEL 6
REMARK VINA RESULT:      -8.2      6.912      9.838
REMARK  5 active torsions:
REMARK  status: ('A' for Active; 'I' for Inactive)
REMARK    1  A    between atoms: O_2  and  C_3 
REMARK    2  A    between atoms: C_5  and  C_6 
REMARK       I    between atoms: C_6  and  N_7 
REMARK    3  A    between atoms: N_7  and  C_8 
REMARK    4  A    between atoms: C_8  and  C_9 
REMARK       I    between atoms: C_9  and  N_10 
REMARK    5  A    between atoms: N_10  and  N_11 
ROOT
HETATM    1  C   UNL     1      41.921 -12.111   2.245  1.00  0.00     0.255 C 
HETATM    2  N   UNL     1      40.699 -12.678   1.920  1.00  0.00    -0.245 N 
HETATM    3  O   UNL     1      42.293 -10.994   1.881  1.00  0.00    -0.270 OA
HETATM    4  H   UNL     1      40.400 -13.550   2.368  1.00  0.00     0.192 HD
ENDROOT
BRANCH   1   5
HETATM    5  C   UNL     1      42.755 -12.925   3.231  1.00  0.00     0.227 C 
BRANCH   5   6
HETATM    6  N   UNL     1      42.734 -14.364   3.016  1.00  0.00    -0.348 N 
HETATM    7  C   UNL     1      43.112 -15.248   4.000  1.00  0.00     0.252 C 
HETATM    8  O   UNL     1      43.332 -14.881   5.150  1.00  0.00    -0.268 OA
HETATM    9  H   UNL     1      42.361 -14.699   2.139  1.00  0.00     0.163 HD
BRANCH   7  10
HETATM   10  C   UNL     1      43.240 -16.683   3.615  1.00  0.00     0.034 A 
HETATM   11  C   UNL     1      43.750 -17.581   4.561  1.00  0.00     0.053 A 
HETATM   12  C   UNL     1      43.966 -18.922   4.229  1.00  0.00     0.069 A 
HETATM   13  C   UNL     1      43.641 -19.375   2.950  1.00  0.00     0.037 A 
HETATM   14  C   UNL     1      43.131 -18.486   2.000  1.00  0.00     0.004 A 
HETATM   15  C   UNL     1      42.941 -17.142   2.326  1.00  0.00     0.017 A 
BRANCH  12  16
HETATM   16  O   UNL     1      44.488 -19.691   5.233  1.00  0.00    -0.356 OA
HETATM   17  C   UNL     1      44.005 -21.026   5.321  1.00  0.00     0.210 C 
ENDBRANCH  12  16
ENDBRANCH   7  10
ENDBRANCH   5   6
ENDBRANCH   1   5
BRANCH   2  18
HETATM   18  N   UNL     1      39.835 -11.979   1.129  1.00  0.00    -0.166 NA
HETATM   19  C   UNL     1      39.321 -12.589   0.113  1.00  0.00     0.157 A 
HETATM   20  C   UNL     1      39.563 -14.014  -0.389  1.00  0.00     0.277 A 
HETATM   21  C   UNL     1      38.354 -12.001  -0.806  1.00  0.00     0.028 A 
HETATM   22  O   UNL     1      40.342 -14.804   0.099  1.00  0.00    -0.266 OA
HETATM   23  N   UNL     1      38.743 -14.162  -1.489  1.00  0.00    -0.321 N 
HETATM   24  C   UNL     1      38.039 -12.987  -1.740  1.00  0.00     0.048 A 
HETATM   25  H   UNL     1      38.693 -15.013  -2.030  1.00  0.00     0.169 HD
HETATM   26  C   UNL     1      37.138 -12.745  -2.755  1.00  0.00     0.032 A 
HETATM   27  C   UNL     1      36.556 -11.470  -2.809  1.00  0.00     0.021 A 
HETATM   28  C   UNL     1      36.886 -10.483  -1.857  1.00  0.00     0.012 A 
HETATM   29 BR   UNL     1      36.077  -8.777  -1.974  1.00  0.00    -0.051 Br
HETATM   30  C   UNL     1      37.797 -10.738  -0.832  1.00  0.00     0.035 A 
ENDBRANCH   2  18
TORSDOF 5
ENDMDL
MODEL 7
REMARK VINA RESULT:      -8.2      5.958      9.018
REMARK  5 active torsions:
REMARK  status: ('A' for Active; 'I' for Inactive)
REMARK    1  A    between atoms: O_2  and  C_3 
REMARK    2  A    between atoms: C_5  and  C_6 
REMARK       I    between atoms: C_6  and  N_7 
REMARK    3  A    between atoms: N_7  and  C_8 
REMARK    4  A    between atoms: C_8  and  C_9 
REMARK       I    between atoms: C_9  and  N_10 
REMARK    5  A    between atoms: N_10  and  N_11 
ROOT
HETATM    1  C   UNL     1      41.967 -12.654   3.857  1.00  0.00     0.255 C 
HETATM    2  N   UNL     1      41.902 -13.429   2.710  1.00  0.00    -0.245 N 
HETATM    3  O   UNL     1      41.723 -11.447   3.900  1.00  0.00    -0.270 OA
HETATM    4  H   UNL     1      41.985 -14.449   2.772  1.00  0.00     0.192 HD
ENDROOT
BRANCH   1   5
HETATM    5  C   UNL     1      42.235 -13.439   5.139  1.00  0.00     0.227 C 
BRANCH   5   6
HETATM    6  N   UNL     1      42.796 -14.767   4.943  1.00  0.00    -0.348 N 
HETATM    7  C   UNL     1      42.121 -15.901   5.332  1.00  0.00     0.252 C 
HETATM    8  O   UNL     1      40.957 -15.863   5.713  1.00  0.00    -0.268 OA
HETATM    9  H   UNL     1      43.671 -14.835   4.443  1.00  0.00     0.163 HD
BRANCH   7  10
HETATM   10  C   UNL     1      42.864 -17.193   5.265  1.00  0.00     0.034 A 
HETATM   11  C   UNL     1      43.282 -17.653   4.010  1.00  0.00     0.053 A 
HETATM   12  C   UNL     1      43.911 -18.895   3.878  1.00  0.00     0.069 A 
HETATM   13  C   UNL     1      44.154 -19.668   5.014  1.00  0.00     0.037 A 
HETATM   14  C   UNL     1      43.742 -19.216   6.270  1.00  0.00     0.004 A 
HETATM   15  C   UNL     1      43.089 -17.988   6.396  1.00  0.00     0.017 A 
BRANCH  12  16
HETATM   16  O   UNL     1      44.251 -19.240   2.598  1.00  0.00    -0.356 OA
HETATM   17  C   UNL     1      43.357 -20.118   1.923  1.00  0.00     0.210 C 
ENDBRANCH  12  16
ENDBRANCH   7  10
ENDBRANCH   5   6
ENDBRANCH   1   5
BRANCH   2  18
HETATM   18  N   UNL     1      41.564 -12.837   1.529  1.00  0.00    -0.166 NA
HETATM   19  C   UNL     1      40.817 -13.504   0.713  1.00  0.00     0.157 A 
HETATM   20  C   UNL     1      40.259 -14.922   0.845  1.00  0.00     0.277 A 
HETATM   21  C   UNL     1      40.335 -13.003  -0.569  1.00  0.00     0.028 A 
HETATM   22  O   UNL     1      40.481 -15.678   1.766  1.00  0.00    -0.266 OA
HETATM   23  N   UNL     1      39.506 -15.130  -0.292  1.00  0.00    -0.321 N 
HETATM   24  C   UNL     1      39.551 -14.014  -1.124  1.00  0.00     0.048 A 
HETATM   25  H   UNL     1      39.013 -15.991  -0.478  1.00  0.00     0.169 HD
HETATM   26  C   UNL     1      38.939 -13.850  -2.348  1.00  0.00     0.032 A 
HETATM   27  C   UNL     1      39.138 -12.629  -3.009  1.00  0.00     0.021 A 
HETATM   28  C   UNL     1      39.935 -11.616  -2.433  1.00  0.00     0.012 A 
HETATM   29 BR   UNL     1      40.175  -9.987  -3.366  1.00  0.00    -0.051 Br
HETATM   30  C   UNL     1      40.547 -11.791  -1.194  1.00  0.00     0.035 A 
ENDBRANCH   2  18
TORSDOF 5
ENDMDL
MODEL 8
REMARK VINA RESULT:      -8.1      6.251      9.704
REMARK  5 active torsions:
REMARK  status: ('A' for Active; 'I' for Inactive)
REMARK    1  A    between atoms: O_2  and  C_3 
REMARK    2  A    between atoms: C_5  and  C_6 
REMARK       I    between atoms: C_6  and  N_7 
REMARK    3  A    between atoms: N_7  and  C_8 
REMARK    4  A    between atoms: C_8  and  C_9 
REMARK       I    between atoms: C_9  and  N_10 
REMARK    5  A    between atoms: N_10  and  N_11 
ROOT
HETATM    1  C   UNL     1      40.524 -13.406   0.445  1.00  0.00     0.255 C 
HETATM    2  N   UNL     1      41.577 -13.633   1.316  1.00  0.00    -0.245 N 
HETATM    3  O   UNL     1      39.935 -14.286  -0.185  1.00  0.00    -0.270 OA
HETATM    4  H   UNL     1      41.929 -12.874   1.909  1.00  0.00     0.192 HD
ENDROOT
BRANCH   1   5
HETATM    5  C   UNL     1      40.026 -11.963   0.414  1.00  0.00     0.227 C 
BRANCH   5   6
HETATM    6  N   UNL     1      40.448 -11.190  -0.744  1.00  0.00    -0.348 N 
HETATM    7  C   UNL     1      41.390 -10.192  -0.643  1.00  0.00     0.252 C 
HETATM    8  O   UNL     1      42.033 -10.011   0.385  1.00  0.00    -0.268 OA
HETATM    9  H   UNL     1      40.077 -11.459  -1.645  1.00  0.00     0.163 HD
BRANCH   7  10
HETATM   10  C   UNL     1      41.606  -9.335  -1.845  1.00  0.00     0.034 A 
HETATM   11  C   UNL     1      42.421  -8.204  -1.715  1.00  0.00     0.053 A 
HETATM   12  C   UNL     1      42.594  -7.321  -2.786  1.00  0.00     0.069 A 
HETATM   13  C   UNL     1      41.972  -7.589  -4.005  1.00  0.00     0.037 A 
HETATM   14  C   UNL     1      41.158  -8.716  -4.144  1.00  0.00     0.004 A 
HETATM   15  C   UNL     1      40.964  -9.582  -3.066  1.00  0.00     0.017 A 
BRANCH  12  16
HETATM   16  O   UNL     1      43.396  -6.244  -2.525  1.00  0.00    -0.356 OA
HETATM   17  C   UNL     1      43.726  -6.019  -1.159  1.00  0.00     0.210 C 
ENDBRANCH  12  16
ENDBRANCH   7  10
ENDBRANCH   5   6
ENDBRANCH   1   5
BRANCH   2  18
HETATM   18  N   UNL     1      42.025 -14.909   1.495  1.00  0.00    -0.166 NA
HETATM   19  C   UNL     1      42.542 -15.212   2.639  1.00  0.00     0.157 A 
HETATM   20  C   UNL     1      42.777 -14.325   3.863  1.00  0.00     0.277 A 
HETATM   21  C   UNL     1      43.031 -16.536   3.005  1.00  0.00     0.028 A 
HETATM   22  O   UNL     1      42.534 -13.140   3.925  1.00  0.00    -0.266 OA
HETATM   23  N   UNL     1      43.330 -15.154   4.818  1.00  0.00    -0.321 N 
HETATM   24  C   UNL     1      43.484 -16.445   4.320  1.00  0.00     0.048 A 
HETATM   25  H   UNL     1      43.592 -14.836   5.740  1.00  0.00     0.169 HD
HETATM   26  C   UNL     1      44.011 -17.541   4.969  1.00  0.00     0.032 A 
HETATM   27  C   UNL     1      44.072 -18.746   4.253  1.00  0.00     0.021 A 
HETATM   28  C   UNL     1      43.609 -18.821   2.922  1.00  0.00     0.012 A 
HETATM   29 BR   UNL     1      43.716 -20.468   1.997  1.00  0.00    -0.051 Br
HETATM   30  C   UNL     1      43.076 -17.707   2.275  1.00  0.00     0.035 A 
ENDBRANCH   2  18
TORSDOF 5
ENDMDL
MODEL 9
REMARK VINA RESULT:      -8.1     18.374     20.504
REMARK  5 active torsions:
REMARK  status: ('A' for Active; 'I' for Inactive)
REMARK    1  A    between atoms: O_2  and  C_3 
REMARK    2  A    between atoms: C_5  and  C_6 
REMARK       I    between atoms: C_6  and  N_7 
REMARK    3  A    between atoms: N_7  and  C_8 
REMARK    4  A    between atoms: C_8  and  C_9 
REMARK       I    between atoms: C_9  and  N_10 
REMARK    5  A    between atoms: N_10  and  N_11 
ROOT
HETATM    1  C   UNL     1      44.098 -30.310   2.757  1.00  0.00     0.255 C 
HETATM    2  N   UNL     1      45.292 -29.708   3.116  1.00  0.00    -0.245 N 
HETATM    3  O   UNL     1      43.800 -31.479   3.009  1.00  0.00    -0.270 OA
HETATM    4  H   UNL     1      45.417 -28.697   2.996  1.00  0.00     0.192 HD
ENDROOT
BRANCH   1   5
HETATM    5  C   UNL     1      43.075 -29.366   2.128  1.00  0.00     0.227 C 
BRANCH   5   6
HETATM    6  N   UNL     1      43.414 -28.890   0.795  1.00  0.00    -0.348 N 
HETATM    7  C   UNL     1      43.630 -29.759  -0.249  1.00  0.00     0.252 C 
HETATM    8  O   UNL     1      43.394 -30.958  -0.153  1.00  0.00    -0.268 OA
HETATM    9  H   UNL     1      43.414 -27.892   0.643  1.00  0.00     0.163 HD
BRANCH   7  10
HETATM   10  C   UNL     1      44.159 -29.181  -1.518  1.00  0.00     0.034 A 
HETATM   11  C   UNL     1      43.777 -29.774  -2.728  1.00  0.00     0.053 A 
HETATM   12  C   UNL     1      44.306 -29.325  -3.942  1.00  0.00     0.069 A 
HETATM   13  C   UNL     1      45.199 -28.253  -3.949  1.00  0.00     0.037 A 
HETATM   14  C   UNL     1      45.584 -27.654  -2.747  1.00  0.00     0.004 A 
HETATM   15  C   UNL     1      45.076 -28.122  -1.533  1.00  0.00     0.017 A 
BRANCH  12  16
HETATM   16  O   UNL     1      43.871 -30.001  -5.049  1.00  0.00    -0.356 OA
HETATM   17  C   UNL     1      44.744 -31.000  -5.562  1.00  0.00     0.210 C 
ENDBRANCH  12  16
ENDBRANCH   7  10
ENDBRANCH   5   6
ENDBRANCH   1   5
BRANCH   2  18
HETATM   18  N   UNL     1      46.231 -30.442   3.780  1.00  0.00    -0.166 NA
HETATM   19  C   UNL     1      47.461 -30.054   3.710  1.00  0.00     0.157 A 
HETATM   20  C   UNL     1      48.065 -28.880   2.939  1.00  0.00     0.277 A 
HETATM   21  C   UNL     1      48.576 -30.702   4.391  1.00  0.00     0.028 A 
HETATM   22  O   UNL     1      47.450 -28.127   2.216  1.00  0.00    -0.266 OA
HETATM   23  N   UNL     1      49.414 -28.903   3.231  1.00  0.00    -0.321 N 
HETATM   24  C   UNL     1      49.717 -29.969   4.074  1.00  0.00     0.048 A 
HETATM   25  H   UNL     1      50.071 -28.234   2.856  1.00  0.00     0.169 HD
HETATM   26  C   UNL     1      50.953 -30.325   4.570  1.00  0.00     0.032 A 
HETATM   27  C   UNL     1      51.012 -31.452   5.402  1.00  0.00     0.021 A 
HETATM   28  C   UNL     1      49.847 -32.184   5.712  1.00  0.00     0.012 A 
HETATM   29 BR   UNL     1      49.979 -33.700   6.837  1.00  0.00    -0.051 Br
HETATM   30  C   UNL     1      48.602 -31.814   5.207  1.00  0.00     0.035 A 
ENDBRANCH   2  18
TORSDOF 5
ENDMDL
MODEL 10
REMARK VINA RESULT:      -8.0      7.210     10.188
REMARK  5 active torsions:
REMARK  status: ('A' for Active; 'I' for Inactive)
REMARK    1  A    between atoms: O_2  and  C_3 
REMARK    2  A    between atoms: C_5  and  C_6 
REMARK       I    between atoms: C_6  and  N_7 
REMARK    3  A    between atoms: N_7  and  C_8 
REMARK    4  A    between atoms: C_8  and  C_9 
REMARK       I    between atoms: C_9  and  N_10 
REMARK    5  A    between atoms: N_10  and  N_11 
ROOT
HETATM    1  C   UNL     1      40.557 -14.052   1.138  1.00  0.00     0.255 C 
HETATM    2  N   UNL     1      40.973 -13.604  -0.106  1.00  0.00    -0.245 N 
HETATM    3  O   UNL     1      40.382 -13.328   2.120  1.00  0.00    -0.270 OA
HETATM    4  H   UNL     1      40.965 -14.238  -0.911  1.00  0.00     0.192 HD
ENDROOT
BRANCH   1   5
HETATM    5  C   UNL     1      40.179 -15.530   1.185  1.00  0.00     0.227 C 
BRANCH   5   6
HETATM    6  N   UNL     1      40.930 -16.328   2.143  1.00  0.00    -0.348 N 
HETATM    7  C   UNL     1      42.279 -16.553   1.997  1.00  0.00     0.252 C 
HETATM    8  O   UNL     1      42.945 -15.968   1.150  1.00  0.00    -0.268 OA
HETATM    9  H   UNL     1      40.440 -16.654   2.964  1.00  0.00     0.163 HD
BRANCH   7  10
HETATM   10  C   UNL     1      42.910 -17.539   2.922  1.00  0.00     0.034 A 
HETATM   11  C   UNL     1      43.088 -17.173   4.262  1.00  0.00     0.053 A 
HETATM   12  C   UNL     1      43.746 -18.025   5.154  1.00  0.00     0.069 A 
HETATM   13  C   UNL     1      44.199 -19.268   4.710  1.00  0.00     0.037 A 
HETATM   14  C   UNL     1      44.024 -19.643   3.376  1.00  0.00     0.004 A 
HETATM   15  C   UNL     1      43.391 -18.778   2.480  1.00  0.00     0.017 A 
BRANCH  12  16
HETATM   16  O   UNL     1      43.876 -17.542   6.427  1.00  0.00    -0.356 OA
HETATM   17  C   UNL     1      44.688 -16.384   6.583  1.00  0.00     0.210 C 
ENDBRANCH  12  16
ENDBRANCH   7  10
ENDBRANCH   5   6
ENDBRANCH   1   5
BRANCH   2  18
HETATM   18  N   UNL     1      41.232 -12.276  -0.278  1.00  0.00    -0.166 NA
HETATM   19  C   UNL     1      41.090 -11.783  -1.464  1.00  0.00     0.157 A 
HETATM   20  C   UNL     1      40.699 -12.483  -2.766  1.00  0.00     0.277 A 
HETATM   21  C   UNL     1      41.288 -10.379  -1.808  1.00  0.00     0.028 A 
HETATM   22  O   UNL     1      40.493 -13.671  -2.886  1.00  0.00    -0.266 OA
HETATM   23  N   UNL     1      40.669 -11.490  -3.724  1.00  0.00    -0.321 N 
HETATM   24  C   UNL     1      41.017 -10.261  -3.170  1.00  0.00     0.048 A 
HETATM   25  H   UNL     1      40.438 -11.664  -4.691  1.00  0.00     0.169 HD
HETATM   26  C   UNL     1      41.111  -9.044  -3.812  1.00  0.00     0.032 A 
HETATM   27  C   UNL     1      41.491  -7.937  -3.040  1.00  0.00     0.021 A 
HETATM   28  C   UNL     1      41.763  -8.074  -1.662  1.00  0.00     0.012 A 
HETATM   29 BR   UNL     1      42.275  -6.551  -0.664  1.00  0.00    -0.051 Br
HETATM   30  C   UNL     1      41.662  -9.309  -1.022  1.00  0.00     0.035 A 
ENDBRANCH   2  18
TORSDOF 5
ENDMDL
