MODEL 1
REMARK VINA RESULT:      -8.5      0.000      0.000
REMARK  8 active torsions:
REMARK  status: ('A' for Active; 'I' for Inactive)
REMARK    1  A    between atoms: C_3  and  C_4 
REMARK    2  A    between atoms: C_4  and  C_5 
REMARK    3  A    between atoms: C_5  and  N_6 
REMARK       I    between atoms: N_6  and  C_7 
REMARK    4  A    between atoms: C_7  and  C_8 
REMARK    5  A    between atoms: C_8  and  S_9 
REMARK    6  A    between atoms: S_9  and  C_10 
REMARK    7  A    between atoms: C_13  and  C_14 
REMARK    8  A    between atoms: C_15  and  O_16 
ROOT
HETATM    1  S   UNL     1      43.188 -10.252   7.667  1.00  0.00    -0.081 SA
ENDROOT
BRANCH   1   2
HETATM    2  C   UNL     1      44.268 -11.664   7.306  1.00  0.00     0.185 C 
BRANCH   2   3
HETATM    3  C   UNL     1      43.562 -12.721   6.462  1.00  0.00     0.227 C 
HETATM    4  N   UNL     1      43.221 -13.855   7.183  1.00  0.00    -0.360 N 
HETATM    5  H   UNL     1      43.646 -13.995   8.091  1.00  0.00     0.162 HD
HETATM    6  O   UNL     1      43.290 -12.597   5.270  1.00  0.00    -0.273 OA
BRANCH   4   7
HETATM    7  C   UNL     1      42.606 -14.996   6.525  1.00  0.00     0.127 C 
BRANCH   7   8
HETATM    8  C   UNL     1      43.639 -16.055   6.140  1.00  0.00     0.058 C 
BRANCH   8   9
HETATM    9  C   UNL     1      43.446 -16.560   4.729  1.00  0.00    -0.051 A 
HETATM   10  C   UNL     1      43.608 -17.913   4.364  1.00  0.00    -0.056 A 
HETATM   11  C   UNL     1      43.987 -19.002   5.330  1.00  0.00     0.049 C 
HETATM   12  C   UNL     1      43.429 -18.283   3.018  1.00  0.00     0.007 A 
HETATM   13  C   UNL     1      43.094 -17.339   2.048  1.00  0.00     0.001 A 
HETATM   14  C   UNL     1      42.937 -16.007   2.406  1.00  0.00     0.001 A 
HETATM   15  C   UNL     1      43.114 -15.620   3.734  1.00  0.00     0.007 A 
ENDBRANCH   8   9
ENDBRANCH   7   8
ENDBRANCH   4   7
ENDBRANCH   2   3
ENDBRANCH   1   2
BRANCH   1  16
HETATM   16  C   UNL     1      43.409 -10.166   9.378  1.00  0.00     0.191 A 
HETATM   17  N   UNL     1      42.792  -9.260  10.192  1.00  0.00    -0.312 N 
HETATM   18  C   UNL     1      41.881  -8.208   9.821  1.00  0.00     0.160 C 
HETATM   19  C   UNL     1      43.188  -9.581  11.472  1.00  0.00     0.166 A 
HETATM   20  N   UNL     1      44.022 -10.605  11.410  1.00  0.00    -0.128 NA
HETATM   21  N   UNL     1      44.151 -10.978  10.091  1.00  0.00    -0.122 NA
BRANCH  19  22
HETATM   22  C   UNL     1      42.733  -8.914  12.686  1.00  0.00     0.045 A 
HETATM   23  C   UNL     1      41.586  -9.341  13.370  1.00  0.00     0.082 A 
HETATM   24  C   UNL     1      41.181  -8.705  14.547  1.00  0.00     0.038 A 
HETATM   25  C   UNL     1      41.901  -7.614  15.031  1.00  0.00     0.003 A 
HETATM   26  C   UNL     1      43.031  -7.165  14.347  1.00  0.00     0.001 A 
HETATM   27  C   UNL     1      43.445  -7.813  13.180  1.00  0.00     0.018 A 
BRANCH  23  28
HETATM   28  O   UNL     1      40.902 -10.450  12.938  1.00  0.00    -0.355 OA
HETATM   29  C   UNL     1      39.598 -10.084  12.485  1.00  0.00     0.210 C 
ENDBRANCH  23  28
ENDBRANCH  19  22
ENDBRANCH   1  16
TORSDOF 8
ENDMDL
MODEL 2
REMARK VINA RESULT:      -8.3      6.046      9.641
REMARK  8 active torsions:
REMARK  status: ('A' for Active; 'I' for Inactive)
REMARK    1  A    between atoms: C_3  and  C_4 
REMARK    2  A    between atoms: C_4  and  C_5 
REMARK    3  A    between atoms: C_5  and  N_6 
REMARK       I    between atoms: N_6  and  C_7 
REMARK    4  A    between atoms: C_7  and  C_8 
REMARK    5  A    between atoms: C_8  and  S_9 
REMARK    6  A    between atoms: S_9  and  C_10 
REMARK    7  A    between atoms: C_13  and  C_14 
REMARK    8  A    between atoms: C_15  and  O_16 
ROOT
HETATM    1  S   UNL     1      42.343 -12.815   4.420  1.00  0.00    -0.081 SA
ENDROOT
BRANCH   1   2
HETATM    2  C   UNL     1      41.563 -13.506   5.904  1.00  0.00     0.185 C 
BRANCH   2   3
HETATM    3  C   UNL     1      42.356 -14.679   6.472  1.00  0.00     0.227 C 
HETATM    4  N   UNL     1      42.278 -15.820   5.687  1.00  0.00    -0.360 N 
HETATM    5  H   UNL     1      41.560 -15.867   4.975  1.00  0.00     0.162 HD
HETATM    6  O   UNL     1      43.022 -14.639   7.504  1.00  0.00    -0.273 OA
BRANCH   4   7
HETATM    7  C   UNL     1      42.913 -17.057   6.110  1.00  0.00     0.127 C 
BRANCH   7   8
HETATM    8  C   UNL     1      44.172 -17.356   5.297  1.00  0.00     0.058 C 
BRANCH   8   9
HETATM    9  C   UNL     1      43.951 -18.446   4.274  1.00  0.00    -0.051 A 
HETATM   10  C   UNL     1      43.528 -18.191   2.953  1.00  0.00    -0.056 A 
HETATM   11  C   UNL     1      43.250 -16.815   2.412  1.00  0.00     0.049 C 
HETATM   12  C   UNL     1      43.327 -19.276   2.080  1.00  0.00     0.007 A 
HETATM   13  C   UNL     1      43.541 -20.589   2.497  1.00  0.00     0.001 A 
HETATM   14  C   UNL     1      43.956 -20.841   3.798  1.00  0.00     0.001 A 
HETATM   15  C   UNL     1      44.156 -19.779   4.680  1.00  0.00     0.007 A 
ENDBRANCH   8   9
ENDBRANCH   7   8
ENDBRANCH   4   7
ENDBRANCH   2   3
ENDBRANCH   1   2
BRANCH   1  16
HETATM   16  C   UNL     1      41.224 -13.381   3.231  1.00  0.00     0.191 A 
HETATM   17  N   UNL     1      41.044 -12.807   2.005  1.00  0.00    -0.312 N 
HETATM   18  C   UNL     1      41.698 -11.644   1.464  1.00  0.00     0.160 C 
HETATM   19  C   UNL     1      40.122 -13.601   1.357  1.00  0.00     0.166 A 
HETATM   20  N   UNL     1      39.756 -14.573   2.173  1.00  0.00    -0.128 NA
HETATM   21  N   UNL     1      40.459 -14.439   3.349  1.00  0.00    -0.122 NA
BRANCH  19  22
HETATM   22  C   UNL     1      39.661 -13.406  -0.012  1.00  0.00     0.045 A 
HETATM   23  C   UNL     1      38.642 -12.493  -0.319  1.00  0.00     0.082 A 
HETATM   24  C   UNL     1      38.232 -12.301  -1.641  1.00  0.00     0.038 A 
HETATM   25  C   UNL     1      38.814 -13.046  -2.665  1.00  0.00     0.003 A 
HETATM   26  C   UNL     1      39.813 -13.974  -2.371  1.00  0.00     0.001 A 
HETATM   27  C   UNL     1      40.235 -14.153  -1.050  1.00  0.00     0.018 A 
BRANCH  23  28
HETATM   28  O   UNL     1      38.101 -11.711   0.671  1.00  0.00    -0.355 OA
HETATM   29  C   UNL     1      38.329 -10.329   0.393  1.00  0.00     0.210 C 
ENDBRANCH  23  28
ENDBRANCH  19  22
ENDBRANCH   1  16
TORSDOF 8
ENDMDL
MODEL 3
REMARK VINA RESULT:      -8.2      4.129      5.713
REMARK  8 active torsions:
REMARK  status: ('A' for Active; 'I' for Inactive)
REMARK    1  A    between atoms: C_3  and  C_4 
REMARK    2  A    between atoms: C_4  and  C_5 
REMARK    3  A    between atoms: C_5  and  N_6 
REMARK       I    between atoms: N_6  and  C_7 
REMARK    4  A    between atoms: C_7  and  C_8 
REMARK    5  A    between atoms: C_8  and  S_9 
REMARK    6  A    between atoms: S_9  and  C_10 
REMARK    7  A    between atoms: C_13  and  C_14 
REMARK    8  A    between atoms: C_15  and  O_16 
ROOT
HETATM    1  S   UNL     1      39.738 -12.364   3.365  1.00  0.00    -0.081 SA
ENDROOT
BRANCH   1   2
HETATM    2  C   UNL     1      40.695 -12.794   1.886  1.00  0.00     0.185 C 
BRANCH   2   3
HETATM    3  C   UNL     1      40.667 -14.293   1.604  1.00  0.00     0.227 C 
HETATM    4  N   UNL     1      41.438 -15.028   2.491  1.00  0.00    -0.360 N 
HETATM    5  H   UNL     1      42.108 -14.537   3.070  1.00  0.00     0.162 HD
HETATM    6  O   UNL     1      40.019 -14.823   0.704  1.00  0.00    -0.273 OA
BRANCH   4   7
HETATM    7  C   UNL     1      41.587 -16.465   2.331  1.00  0.00     0.127 C 
BRANCH   7   8
HETATM    8  C   UNL     1      43.049 -16.867   2.139  1.00  0.00     0.058 C 
BRANCH   8   9
HETATM    9  C   UNL     1      43.395 -18.144   2.870  1.00  0.00    -0.051 A 
HETATM   10  C   UNL     1      43.847 -18.172   4.205  1.00  0.00    -0.056 A 
HETATM   11  C   UNL     1      44.037 -16.943   5.052  1.00  0.00     0.049 C 
HETATM   12  C   UNL     1      44.167 -19.410   4.792  1.00  0.00     0.007 A 
HETATM   13  C   UNL     1      44.040 -20.602   4.079  1.00  0.00     0.001 A 
HETATM   14  C   UNL     1      43.597 -20.575   2.764  1.00  0.00     0.001 A 
HETATM   15  C   UNL     1      43.280 -19.357   2.163  1.00  0.00     0.007 A 
ENDBRANCH   8   9
ENDBRANCH   7   8
ENDBRANCH   4   7
ENDBRANCH   2   3
ENDBRANCH   1   2
BRANCH   1  16
HETATM   16  C   UNL     1      40.982 -12.519   4.554  1.00  0.00     0.191 A 
HETATM   17  N   UNL     1      41.905 -11.554   4.837  1.00  0.00    -0.312 N 
HETATM   18  C   UNL     1      42.055 -10.260   4.221  1.00  0.00     0.160 C 
HETATM   19  C   UNL     1      42.656 -12.053   5.879  1.00  0.00     0.166 A 
HETATM   20  N   UNL     1      42.216 -13.265   6.172  1.00  0.00    -0.128 NA
HETATM   21  N   UNL     1      41.155 -13.552   5.343  1.00  0.00    -0.122 NA
BRANCH  19  22
HETATM   22  C   UNL     1      43.733 -11.341   6.556  1.00  0.00     0.045 A 
HETATM   23  C   UNL     1      43.469 -10.306   7.464  1.00  0.00     0.082 A 
HETATM   24  C   UNL     1      44.514  -9.653   8.124  1.00  0.00     0.038 A 
HETATM   25  C   UNL     1      45.836 -10.008   7.854  1.00  0.00     0.003 A 
HETATM   26  C   UNL     1      46.112 -11.021   6.936  1.00  0.00     0.001 A 
HETATM   27  C   UNL     1      45.065 -11.685   6.290  1.00  0.00     0.018 A 
BRANCH  23  28
HETATM   28  O   UNL     1      42.173  -9.987   7.783  1.00  0.00    -0.355 OA
HETATM   29  C   UNL     1      41.993  -8.570   7.775  1.00  0.00     0.210 C 
ENDBRANCH  23  28
ENDBRANCH  19  22
ENDBRANCH   1  16
TORSDOF 8
ENDMDL
MODEL 4
REMARK VINA RESULT:      -8.2      7.981     10.939
REMARK  8 active torsions:
REMARK  status: ('A' for Active; 'I' for Inactive)
REMARK    1  A    between atoms: C_3  and  C_4 
REMARK    2  A    between atoms: C_4  and  C_5 
REMARK    3  A    between atoms: C_5  and  N_6 
REMARK       I    between atoms: N_6  and  C_7 
REMARK    4  A    between atoms: C_7  and  C_8 
REMARK    5  A    between atoms: C_8  and  S_9 
REMARK    6  A    between atoms: S_9  and  C_10 
REMARK    7  A    between atoms: C_13  and  C_14 
REMARK    8  A    between atoms: C_15  and  O_16 
ROOT
HETATM    1  S   UNL     1      40.842 -13.283   3.028  1.00  0.00    -0.081 SA
ENDROOT
BRANCH   1   2
HETATM    2  C   UNL     1      39.770 -13.480   1.579  1.00  0.00     0.185 C 
BRANCH   2   3
HETATM    3  C   UNL     1      40.085 -12.457   0.492  1.00  0.00     0.227 C 
HETATM    4  N   UNL     1      40.934 -12.948  -0.488  1.00  0.00    -0.360 N 
HETATM    5  H   UNL     1      41.441 -13.804  -0.303  1.00  0.00     0.162 HD
HETATM    6  O   UNL     1      39.631 -11.316   0.453  1.00  0.00    -0.273 OA
BRANCH   4   7
HETATM    7  C   UNL     1      41.400 -12.089  -1.564  1.00  0.00     0.127 C 
BRANCH   7   8
HETATM    8  C   UNL     1      40.766 -12.463  -2.904  1.00  0.00     0.058 C 
BRANCH   8   9
HETATM    9  C   UNL     1      39.261 -12.327  -2.886  1.00  0.00    -0.051 A 
HETATM   10  C   UNL     1      38.387 -13.433  -2.841  1.00  0.00    -0.056 A 
HETATM   11  C   UNL     1      38.847 -14.865  -2.805  1.00  0.00     0.049 C 
HETATM   12  C   UNL     1      36.998 -13.206  -2.851  1.00  0.00     0.007 A 
HETATM   13  C   UNL     1      36.477 -11.914  -2.901  1.00  0.00     0.001 A 
HETATM   14  C   UNL     1      37.337 -10.825  -2.947  1.00  0.00     0.001 A 
HETATM   15  C   UNL     1      38.717 -11.030  -2.943  1.00  0.00     0.007 A 
ENDBRANCH   8   9
ENDBRANCH   7   8
ENDBRANCH   4   7
ENDBRANCH   2   3
ENDBRANCH   1   2
BRANCH   1  16
HETATM   16  C   UNL     1      41.981 -14.540   2.703  1.00  0.00     0.191 A 
HETATM   17  N   UNL     1      41.956 -15.775   3.284  1.00  0.00    -0.312 N 
HETATM   18  C   UNL     1      41.030 -16.275   4.268  1.00  0.00     0.160 C 
HETATM   19  C   UNL     1      42.986 -16.481   2.701  1.00  0.00     0.166 A 
HETATM   20  N   UNL     1      43.606 -15.688   1.844  1.00  0.00    -0.128 NA
HETATM   21  N   UNL     1      42.965 -14.470   1.839  1.00  0.00    -0.122 NA
BRANCH  19  22
HETATM   22  C   UNL     1      43.308 -17.877   2.972  1.00  0.00     0.045 A 
HETATM   23  C   UNL     1      44.019 -18.255   4.119  1.00  0.00     0.082 A 
HETATM   24  C   UNL     1      44.294 -19.601   4.375  1.00  0.00     0.038 A 
HETATM   25  C   UNL     1      43.891 -20.578   3.466  1.00  0.00     0.003 A 
HETATM   26  C   UNL     1      43.202 -20.213   2.309  1.00  0.00     0.001 A 
HETATM   27  C   UNL     1      42.911 -18.868   2.064  1.00  0.00     0.018 A 
BRANCH  23  28
HETATM   28  O   UNL     1      44.371 -17.310   5.051  1.00  0.00    -0.355 OA
HETATM   29  C   UNL     1      43.772 -17.609   6.312  1.00  0.00     0.210 C 
ENDBRANCH  23  28
ENDBRANCH  19  22
ENDBRANCH   1  16
TORSDOF 8
ENDMDL
MODEL 5
REMARK VINA RESULT:      -7.9      6.596     10.147
REMARK  8 active torsions:
REMARK  status: ('A' for Active; 'I' for Inactive)
REMARK    1  A    between atoms: C_3  and  C_4 
REMARK    2  A    between atoms: C_4  and  C_5 
REMARK    3  A    between atoms: C_5  and  N_6 
REMARK       I    between atoms: N_6  and  C_7 
REMARK    4  A    between atoms: C_7  and  C_8 
REMARK    5  A    between atoms: C_8  and  S_9 
REMARK    6  A    between atoms: S_9  and  C_10 
REMARK    7  A    between atoms: C_13  and  C_14 
REMARK    8  A    between atoms: C_15  and  O_16 
ROOT
HETATM    1  S   UNL     1      40.449 -11.234   4.158  1.00  0.00    -0.081 SA
ENDROOT
BRANCH   1   2
HETATM    2  C   UNL     1      39.583 -12.552   5.055  1.00  0.00     0.185 C 
BRANCH   2   3
HETATM    3  C   UNL     1      40.456 -13.790   5.232  1.00  0.00     0.227 C 
HETATM    4  N   UNL     1      40.256 -14.743   4.245  1.00  0.00    -0.360 N 
HETATM    5  H   UNL     1      39.436 -14.665   3.657  1.00  0.00     0.162 HD
HETATM    6  O   UNL     1      41.275 -13.944   6.135  1.00  0.00    -0.273 OA
BRANCH   4   7
HETATM    7  C   UNL     1      40.951 -16.019   4.294  1.00  0.00     0.127 C 
BRANCH   7   8
HETATM    8  C   UNL     1      42.268 -15.979   3.519  1.00  0.00     0.058 C 
BRANCH   8   9
HETATM    9  C   UNL     1      42.909 -17.343   3.405  1.00  0.00    -0.051 A 
HETATM   10  C   UNL     1      43.854 -17.831   4.331  1.00  0.00    -0.056 A 
HETATM   11  C   UNL     1      44.330 -17.058   5.531  1.00  0.00     0.049 C 
HETATM   12  C   UNL     1      44.415 -19.106   4.126  1.00  0.00     0.007 A 
HETATM   13  C   UNL     1      44.049 -19.889   3.032  1.00  0.00     0.001 A 
HETATM   14  C   UNL     1      43.120 -19.408   2.119  1.00  0.00     0.001 A 
HETATM   15  C   UNL     1      42.557 -18.145   2.302  1.00  0.00     0.007 A 
ENDBRANCH   8   9
ENDBRANCH   7   8
ENDBRANCH   4   7
ENDBRANCH   2   3
ENDBRANCH   1   2
BRANCH   1  16
HETATM   16  C   UNL     1      40.755 -12.065   2.674  1.00  0.00     0.191 A 
HETATM   17  N   UNL     1      39.843 -12.215   1.670  1.00  0.00    -0.312 N 
HETATM   18  C   UNL     1      38.478 -11.756   1.634  1.00  0.00     0.160 C 
HETATM   19  C   UNL     1      40.509 -12.869   0.658  1.00  0.00     0.166 A 
HETATM   20  N   UNL     1      41.744 -13.120   1.060  1.00  0.00    -0.128 NA
HETATM   21  N   UNL     1      41.899 -12.603   2.326  1.00  0.00    -0.122 NA
BRANCH  19  22
HETATM   22  C   UNL     1      39.945 -13.197  -0.646  1.00  0.00     0.045 A 
HETATM   23  C   UNL     1      39.769 -12.220  -1.635  1.00  0.00     0.082 A 
HETATM   24  C   UNL     1      39.251 -12.560  -2.888  1.00  0.00     0.038 A 
HETATM   25  C   UNL     1      38.873 -13.876  -3.151  1.00  0.00     0.003 A 
HETATM   26  C   UNL     1      39.022 -14.853  -2.167  1.00  0.00     0.001 A 
HETATM   27  C   UNL     1      39.557 -14.516  -0.921  1.00  0.00     0.018 A 
BRANCH  23  28
HETATM   28  O   UNL     1      40.191 -10.933  -1.411  1.00  0.00    -0.355 OA
HETATM   29  C   UNL     1      40.932 -10.451  -2.532  1.00  0.00     0.210 C 
ENDBRANCH  23  28
ENDBRANCH  19  22
ENDBRANCH   1  16
TORSDOF 8
ENDMDL
MODEL 6
REMARK VINA RESULT:      -7.9      3.144     10.345
REMARK  8 active torsions:
REMARK  status: ('A' for Active; 'I' for Inactive)
REMARK    1  A    between atoms: C_3  and  C_4 
REMARK    2  A    between atoms: C_4  and  C_5 
REMARK    3  A    between atoms: C_5  and  N_6 
REMARK       I    between atoms: N_6  and  C_7 
REMARK    4  A    between atoms: C_7  and  C_8 
REMARK    5  A    between atoms: C_8  and  S_9 
REMARK    6  A    between atoms: S_9  and  C_10 
REMARK    7  A    between atoms: C_13  and  C_14 
REMARK    8  A    between atoms: C_15  and  O_16 
ROOT
HETATM    1  S   UNL     1      40.306 -13.195   4.023  1.00  0.00    -0.081 SA
ENDROOT
BRANCH   1   2
HETATM    2  C   UNL     1      40.677 -13.010   5.789  1.00  0.00     0.185 C 
BRANCH   2   3
HETATM    3  C   UNL     1      41.492 -11.753   6.072  1.00  0.00     0.227 C 
HETATM    4  N   UNL     1      40.777 -10.784   6.759  1.00  0.00    -0.360 N 
HETATM    5  H   UNL     1      39.770 -10.872   6.809  1.00  0.00     0.162 HD
HETATM    6  O   UNL     1      42.668 -11.596   5.755  1.00  0.00    -0.273 OA
BRANCH   4   7
HETATM    7  C   UNL     1      41.372  -9.490   7.052  1.00  0.00     0.127 C 
BRANCH   7   8
HETATM    8  C   UNL     1      41.456  -9.232   8.557  1.00  0.00     0.058 C 
BRANCH   8   9
HETATM    9  C   UNL     1      42.869  -9.349   9.082  1.00  0.00    -0.051 A 
HETATM   10  C   UNL     1      43.171  -9.562  10.442  1.00  0.00    -0.056 A 
HETATM   11  C   UNL     1      42.132  -9.698  11.522  1.00  0.00     0.049 C 
HETATM   12  C   UNL     1      44.520  -9.634  10.839  1.00  0.00     0.007 A 
HETATM   13  C   UNL     1      45.553  -9.502   9.912  1.00  0.00     0.001 A 
HETATM   14  C   UNL     1      45.256  -9.290   8.573  1.00  0.00     0.001 A 
HETATM   15  C   UNL     1      43.926  -9.211   8.161  1.00  0.00     0.007 A 
ENDBRANCH   8   9
ENDBRANCH   7   8
ENDBRANCH   4   7
ENDBRANCH   2   3
ENDBRANCH   1   2
BRANCH   1  16
HETATM   16  C   UNL     1      41.582 -14.275   3.584  1.00  0.00     0.191 A 
HETATM   17  N   UNL     1      41.593 -15.611   3.862  1.00  0.00    -0.312 N 
HETATM   18  C   UNL     1      40.602 -16.380   4.570  1.00  0.00     0.160 C 
HETATM   19  C   UNL     1      42.744 -16.101   3.284  1.00  0.00     0.166 A 
HETATM   20  N   UNL     1      43.394 -15.095   2.723  1.00  0.00    -0.128 NA
HETATM   21  N   UNL     1      42.654 -13.948   2.904  1.00  0.00    -0.122 NA
BRANCH  19  22
HETATM   22  C   UNL     1      43.152 -17.501   3.276  1.00  0.00     0.045 A 
HETATM   23  C   UNL     1      43.875 -18.060   4.338  1.00  0.00     0.082 A 
HETATM   24  C   UNL     1      44.232 -19.411   4.323  1.00  0.00     0.038 A 
HETATM   25  C   UNL     1      43.899 -20.206   3.227  1.00  0.00     0.003 A 
HETATM   26  C   UNL     1      43.199 -19.656   2.154  1.00  0.00     0.001 A 
HETATM   27  C   UNL     1      42.826 -18.310   2.178  1.00  0.00     0.018 A 
BRANCH  23  28
HETATM   28  O   UNL     1      44.159 -17.303   5.448  1.00  0.00    -0.355 OA
HETATM   29  C   UNL     1      43.429 -17.785   6.577  1.00  0.00     0.210 C 
ENDBRANCH  23  28
ENDBRANCH  19  22
ENDBRANCH   1  16
TORSDOF 8
ENDMDL
MODEL 7
REMARK VINA RESULT:      -7.8      1.913     10.576
REMARK  8 active torsions:
REMARK  status: ('A' for Active; 'I' for Inactive)
REMARK    1  A    between atoms: C_3  and  C_4 
REMARK    2  A    between atoms: C_4  and  C_5 
REMARK    3  A    between atoms: C_5  and  N_6 
REMARK       I    between atoms: N_6  and  C_7 
REMARK    4  A    between atoms: C_7  and  C_8 
REMARK    5  A    between atoms: C_8  and  S_9 
REMARK    6  A    between atoms: S_9  and  C_10 
REMARK    7  A    between atoms: C_13  and  C_14 
REMARK    8  A    between atoms: C_15  and  O_16 
ROOT
HETATM    1  S   UNL     1      41.625 -11.238   5.596  1.00  0.00    -0.081 SA
ENDROOT
BRANCH   1   2
HETATM    2  C   UNL     1      43.000 -11.123   6.773  1.00  0.00     0.185 C 
BRANCH   2   3
HETATM    3  C   UNL     1      42.804  -9.983   7.769  1.00  0.00     0.227 C 
HETATM    4  N   UNL     1      42.889 -10.394   9.090  1.00  0.00    -0.360 N 
HETATM    5  H   UNL     1      42.837 -11.385   9.292  1.00  0.00     0.162 HD
HETATM    6  O   UNL     1      42.613  -8.810   7.459  1.00  0.00    -0.273 OA
BRANCH   4   7
HETATM    7  C   UNL     1      42.657  -9.455  10.176  1.00  0.00     0.127 C 
BRANCH   7   8
HETATM    8  C   UNL     1      42.756 -10.132  11.543  1.00  0.00     0.058 C 
BRANCH   8   9
HETATM    9  C   UNL     1      42.452  -9.182  12.678  1.00  0.00    -0.051 A 
HETATM   10  C   UNL     1      41.282  -9.262  13.461  1.00  0.00    -0.056 A 
HETATM   11  C   UNL     1      40.207 -10.296  13.259  1.00  0.00     0.049 C 
HETATM   12  C   UNL     1      41.077  -8.316  14.482  1.00  0.00     0.007 A 
HETATM   13  C   UNL     1      42.008  -7.309  14.732  1.00  0.00     0.001 A 
HETATM   14  C   UNL     1      43.160  -7.228  13.960  1.00  0.00     0.001 A 
HETATM   15  C   UNL     1      43.379  -8.154  12.940  1.00  0.00     0.007 A 
ENDBRANCH   8   9
ENDBRANCH   7   8
ENDBRANCH   4   7
ENDBRANCH   2   3
ENDBRANCH   1   2
BRANCH   1  16
HETATM   16  C   UNL     1      41.524 -12.958   5.457  1.00  0.00     0.191 A 
HETATM   17  N   UNL     1      42.248 -13.705   4.574  1.00  0.00    -0.312 N 
HETATM   18  C   UNL     1      43.196 -13.247   3.592  1.00  0.00     0.160 C 
HETATM   19  C   UNL     1      41.918 -15.016   4.840  1.00  0.00     0.166 A 
HETATM   20  N   UNL     1      41.020 -15.036   5.810  1.00  0.00    -0.128 NA
HETATM   21  N   UNL     1      40.781 -13.738   6.204  1.00  0.00    -0.122 NA
BRANCH  19  22
HETATM   22  C   UNL     1      42.493 -16.180   4.176  1.00  0.00     0.045 A 
HETATM   23  C   UNL     1      43.567 -16.886   4.735  1.00  0.00     0.082 A 
HETATM   24  C   UNL     1      44.087 -18.015   4.096  1.00  0.00     0.038 A 
HETATM   25  C   UNL     1      43.559 -18.427   2.873  1.00  0.00     0.003 A 
HETATM   26  C   UNL     1      42.506 -17.719   2.295  1.00  0.00     0.001 A 
HETATM   27  C   UNL     1      41.974 -16.601   2.943  1.00  0.00     0.018 A 
BRANCH  23  28
HETATM   28  O   UNL     1      44.057 -16.527   5.966  1.00  0.00    -0.355 OA
HETATM   29  C   UNL     1      43.596 -17.433   6.968  1.00  0.00     0.210 C 
ENDBRANCH  23  28
ENDBRANCH  19  22
ENDBRANCH   1  16
TORSDOF 8
ENDMDL
MODEL 8
REMARK VINA RESULT:      -7.8      2.325     10.596
REMARK  8 active torsions:
REMARK  status: ('A' for Active; 'I' for Inactive)
REMARK    1  A    between atoms: C_3  and  C_4 
REMARK    2  A    between atoms: C_4  and  C_5 
REMARK    3  A    between atoms: C_5  and  N_6 
REMARK       I    between atoms: N_6  and  C_7 
REMARK    4  A    between atoms: C_7  and  C_8 
REMARK    5  A    between atoms: C_8  and  S_9 
REMARK    6  A    between atoms: S_9  and  C_10 
REMARK    7  A    between atoms: C_13  and  C_14 
REMARK    8  A    between atoms: C_15  and  O_16 
ROOT
HETATM    1  S   UNL     1      41.185 -10.932   6.097  1.00  0.00    -0.081 SA
ENDROOT
BRANCH   1   2
HETATM    2  C   UNL     1      39.603 -10.659   6.940  1.00  0.00     0.185 C 
BRANCH   2   3
HETATM    3  C   UNL     1      39.739  -9.687   8.108  1.00  0.00     0.227 C 
HETATM    4  N   UNL     1      40.948  -9.805   8.776  1.00  0.00    -0.360 N 
HETATM    5  H   UNL     1      41.514 -10.627   8.608  1.00  0.00     0.162 HD
HETATM    6  O   UNL     1      38.890  -8.861   8.432  1.00  0.00    -0.273 OA
BRANCH   4   7
HETATM    7  C   UNL     1      41.223  -9.007   9.960  1.00  0.00     0.127 C 
BRANCH   7   8
HETATM    8  C   UNL     1      42.123  -9.749  10.948  1.00  0.00     0.058 C 
BRANCH   8   9
HETATM    9  C   UNL     1      42.154  -9.086  12.306  1.00  0.00    -0.051 A 
HETATM   10  C   UNL     1      41.218  -9.366  13.323  1.00  0.00    -0.056 A 
HETATM   11  C   UNL     1      40.090 -10.350  13.177  1.00  0.00     0.049 C 
HETATM   12  C   UNL     1      41.316  -8.680  14.548  1.00  0.00     0.007 A 
HETATM   13  C   UNL     1      42.318  -7.736  14.770  1.00  0.00     0.001 A 
HETATM   14  C   UNL     1      43.238  -7.458  13.768  1.00  0.00     0.001 A 
HETATM   15  C   UNL     1      43.155  -8.125  12.546  1.00  0.00     0.007 A 
ENDBRANCH   8   9
ENDBRANCH   7   8
ENDBRANCH   4   7
ENDBRANCH   2   3
ENDBRANCH   1   2
BRANCH   1  16
HETATM   16  C   UNL     1      41.053 -12.630   5.803  1.00  0.00     0.191 A 
HETATM   17  N   UNL     1      41.870 -13.335   4.967  1.00  0.00    -0.312 N 
HETATM   18  C   UNL     1      42.958 -12.841   4.163  1.00  0.00     0.160 C 
HETATM   19  C   UNL     1      41.468 -14.648   5.077  1.00  0.00     0.166 A 
HETATM   20  N   UNL     1      40.445 -14.707   5.912  1.00  0.00    -0.128 NA
HETATM   21  N   UNL     1      40.192 -13.435   6.376  1.00  0.00    -0.122 NA
BRANCH  19  22
HETATM   22  C   UNL     1      42.095 -15.779   4.402  1.00  0.00     0.045 A 
HETATM   23  C   UNL     1      41.641 -16.231   3.156  1.00  0.00     0.082 A 
HETATM   24  C   UNL     1      42.272 -17.299   2.512  1.00  0.00     0.038 A 
HETATM   25  C   UNL     1      43.342 -17.947   3.128  1.00  0.00     0.003 A 
HETATM   26  C   UNL     1      43.789 -17.521   4.378  1.00  0.00     0.001 A 
HETATM   27  C   UNL     1      43.169 -16.441   5.012  1.00  0.00     0.018 A 
BRANCH  23  28
HETATM   28  O   UNL     1      40.626 -15.566   2.513  1.00  0.00    -0.355 OA
HETATM   29  C   UNL     1      41.133 -14.869   1.373  1.00  0.00     0.210 C 
ENDBRANCH  23  28
ENDBRANCH  19  22
ENDBRANCH   1  16
TORSDOF 8
ENDMDL
MODEL 9
REMARK VINA RESULT:      -7.8      7.333     10.100
REMARK  8 active torsions:
REMARK  status: ('A' for Active; 'I' for Inactive)
REMARK    1  A    between atoms: C_3  and  C_4 
REMARK    2  A    between atoms: C_4  and  C_5 
REMARK    3  A    between atoms: C_5  and  N_6 
REMARK       I    between atoms: N_6  and  C_7 
REMARK    4  A    between atoms: C_7  and  C_8 
REMARK    5  A    between atoms: C_8  and  S_9 
REMARK    6  A    between atoms: S_9  and  C_10 
REMARK    7  A    between atoms: C_13  and  C_14 
REMARK    8  A    between atoms: C_15  and  O_16 
ROOT
HETATM    1  S   UNL     1      42.069 -11.424   3.590  1.00  0.00    -0.081 SA
ENDROOT
BRANCH   1   2
HETATM    2  C   UNL     1      43.317 -12.699   3.265  1.00  0.00     0.185 C 
BRANCH   2   3
HETATM    3  C   UNL     1      42.838 -14.086   3.685  1.00  0.00     0.227 C 
HETATM    4  N   UNL     1      42.812 -14.993   2.636  1.00  0.00    -0.360 N 
HETATM    5  H   UNL     1      42.874 -14.638   1.690  1.00  0.00     0.162 HD
HETATM    6  O   UNL     1      42.524 -14.400   4.830  1.00  0.00    -0.273 OA
BRANCH   4   7
HETATM    7  C   UNL     1      42.314 -16.344   2.836  1.00  0.00     0.127 C 
BRANCH   7   8
HETATM    8  C   UNL     1      43.294 -17.394   2.313  1.00  0.00     0.058 C 
BRANCH   8   9
HETATM    9  C   UNL     1      43.571 -18.478   3.329  1.00  0.00    -0.051 A 
HETATM   10  C   UNL     1      43.706 -19.840   2.987  1.00  0.00    -0.056 A 
HETATM   11  C   UNL     1      43.592 -20.368   1.583  1.00  0.00     0.049 C 
HETATM   12  C   UNL     1      43.939 -20.779   4.009  1.00  0.00     0.007 A 
HETATM   13  C   UNL     1      44.042 -20.387   5.343  1.00  0.00     0.001 A 
HETATM   14  C   UNL     1      43.907 -19.047   5.679  1.00  0.00     0.001 A 
HETATM   15  C   UNL     1      43.671 -18.101   4.682  1.00  0.00     0.007 A 
ENDBRANCH   8   9
ENDBRANCH   7   8
ENDBRANCH   4   7
ENDBRANCH   2   3
ENDBRANCH   1   2
BRANCH   1  16
HETATM   16  C   UNL     1      40.751 -12.091   2.695  1.00  0.00     0.191 A 
HETATM   17  N   UNL     1      40.682 -12.125   1.332  1.00  0.00    -0.312 N 
HETATM   18  C   UNL     1      41.636 -11.616   0.381  1.00  0.00     0.160 C 
HETATM   19  C   UNL     1      39.514 -12.795   1.037  1.00  0.00     0.166 A 
HETATM   20  N   UNL     1      38.911 -13.109   2.171  1.00  0.00    -0.128 NA
HETATM   21  N   UNL     1      39.698 -12.674   3.214  1.00  0.00    -0.122 NA
BRANCH  19  22
HETATM   22  C   UNL     1      39.048 -13.121  -0.305  1.00  0.00     0.045 A 
HETATM   23  C   UNL     1      38.095 -12.330  -0.962  1.00  0.00     0.082 A 
HETATM   24  C   UNL     1      37.681 -12.644  -2.260  1.00  0.00     0.038 A 
HETATM   25  C   UNL     1      38.191 -13.773  -2.898  1.00  0.00     0.003 A 
HETATM   26  C   UNL     1      39.123 -14.581  -2.247  1.00  0.00     0.001 A 
HETATM   27  C   UNL     1      39.550 -14.256  -0.956  1.00  0.00     0.018 A 
BRANCH  23  28
HETATM   28  O   UNL     1      37.629 -11.183  -0.369  1.00  0.00    -0.355 OA
HETATM   29  C   UNL     1      37.073 -10.306  -1.350  1.00  0.00     0.210 C 
ENDBRANCH  23  28
ENDBRANCH  19  22
ENDBRANCH   1  16
TORSDOF 8
ENDMDL
MODEL 10
REMARK VINA RESULT:      -7.7      6.406      9.461
REMARK  8 active torsions:
REMARK  status: ('A' for Active; 'I' for Inactive)
REMARK    1  A    between atoms: C_3  and  C_4 
REMARK    2  A    between atoms: C_4  and  C_5 
REMARK    3  A    between atoms: C_5  and  N_6 
REMARK       I    between atoms: N_6  and  C_7 
REMARK    4  A    between atoms: C_7  and  C_8 
REMARK    5  A    between atoms: C_8  and  S_9 
REMARK    6  A    between atoms: S_9  and  C_10 
REMARK    7  A    between atoms: C_13  and  C_14 
REMARK    8  A    between atoms: C_15  and  O_16 
ROOT
HETATM    1  S   UNL     1      41.256 -11.459   4.510  1.00  0.00    -0.081 SA
ENDROOT
BRANCH   1   2
HETATM    2  C   UNL     1      39.485 -11.141   4.743  1.00  0.00     0.185 C 
BRANCH   2   3
HETATM    3  C   UNL     1      38.800 -10.743   3.439  1.00  0.00     0.227 C 
HETATM    4  N   UNL     1      38.685 -11.795   2.542  1.00  0.00    -0.360 N 
HETATM    5  H   UNL     1      39.236 -12.628   2.702  1.00  0.00     0.162 HD
HETATM    6  O   UNL     1      38.366  -9.621   3.192  1.00  0.00    -0.273 OA
BRANCH   4   7
HETATM    7  C   UNL     1      38.123 -11.582   1.219  1.00  0.00     0.127 C 
BRANCH   7   8
HETATM    8  C   UNL     1      39.194 -11.642   0.130  1.00  0.00     0.058 C 
BRANCH   8   9
HETATM    9  C   UNL     1      38.965 -12.779  -0.840  1.00  0.00    -0.051 A 
HETATM   10  C   UNL     1      39.574 -14.043  -0.705  1.00  0.00    -0.056 A 
HETATM   11  C   UNL     1      40.514 -14.407   0.412  1.00  0.00     0.049 C 
HETATM   12  C   UNL     1      39.317 -15.031  -1.674  1.00  0.00     0.007 A 
HETATM   13  C   UNL     1      38.473 -14.781  -2.755  1.00  0.00     0.001 A 
HETATM   14  C   UNL     1      37.875 -13.536  -2.890  1.00  0.00     0.001 A 
HETATM   15  C   UNL     1      38.121 -12.542  -1.942  1.00  0.00     0.007 A 
ENDBRANCH   8   9
ENDBRANCH   7   8
ENDBRANCH   4   7
ENDBRANCH   2   3
ENDBRANCH   1   2
BRANCH   1  16
HETATM   16  C   UNL     1      41.235 -13.186   4.556  1.00  0.00     0.191 A 
HETATM   17  N   UNL     1      42.121 -13.987   3.895  1.00  0.00    -0.312 N 
HETATM   18  C   UNL     1      43.205 -13.592   3.034  1.00  0.00     0.160 C 
HETATM   19  C   UNL     1      41.794 -15.277   4.254  1.00  0.00     0.166 A 
HETATM   20  N   UNL     1      40.747 -15.237   5.060  1.00  0.00    -0.128 NA
HETATM   21  N   UNL     1      40.404 -13.918   5.258  1.00  0.00    -0.122 NA
BRANCH  19  22
HETATM   22  C   UNL     1      42.510 -16.475   3.831  1.00  0.00     0.045 A 
HETATM   23  C   UNL     1      43.535 -17.029   4.610  1.00  0.00     0.082 A 
HETATM   24  C   UNL     1      44.191 -18.193   4.201  1.00  0.00     0.038 A 
HETATM   25  C   UNL     1      43.850 -18.794   2.990  1.00  0.00     0.003 A 
HETATM   26  C   UNL     1      42.848 -18.240   2.195  1.00  0.00     0.001 A 
HETATM   27  C   UNL     1      42.180 -17.086   2.614  1.00  0.00     0.018 A 
BRANCH  23  28
HETATM   28  O   UNL     1      43.840 -16.481   5.832  1.00  0.00    -0.355 OA
HETATM   29  C   UNL     1      43.407 -17.343   6.885  1.00  0.00     0.210 C 
ENDBRANCH  23  28
ENDBRANCH  19  22
ENDBRANCH   1  16
TORSDOF 8
ENDMDL
