MODEL 1
REMARK VINA RESULT:      -8.8      0.000      0.000
REMARK  6 active torsions:
REMARK  status: ('A' for Active; 'I' for Inactive)
REMARK    1  A    between atoms: C_2  and  C_3 
REMARK    2  A    between atoms: C_3  and  C_4 
REMARK    3  A    between atoms: C_3  and  C_10 
REMARK    4  A    between atoms: C_10  and  C_11 
REMARK       I    between atoms: C_11  and  N_12 
REMARK    5  A    between atoms: N_12  and  C_13 
REMARK    6  A    between atoms: C_20  and  C_21 
REMARK       I    between atoms: C_21  and  N_22 
ROOT
HETATM    1  C   UNL     1      44.082 -12.758   6.381  1.00  0.00     0.035 A 
HETATM    2  C   UNL     1      43.784 -12.306   7.672  1.00  0.00     0.046 A 
HETATM    3  C   UNL     1      44.479 -11.192   8.197  1.00  0.00     0.030 A 
HETATM    4  C   UNL     1      45.456 -10.584   7.419  1.00  0.00     0.063 A 
HETATM    5  N   UNL     1      45.950  -9.566   8.184  1.00  0.00    -0.277 N 
HETATM    6  H   UNL     1      46.685  -8.913   7.937  1.00  0.00     0.189 HD
HETATM    7  N   UNL     1      45.368  -9.441   9.388  1.00  0.00    -0.168 NA
HETATM    8  C   UNL     1      44.454 -10.439   9.410  1.00  0.00     0.156 A 
HETATM    9  C   UNL     1      45.781 -11.009   6.131  1.00  0.00     0.034 A 
HETATM   10  C   UNL     1      45.068 -12.103   5.627  1.00  0.00     0.032 A 
ENDROOT
BRANCH   1  11
HETATM   11  N   UNL     1      43.440 -13.848   5.757  1.00  0.00    -0.327 N 
HETATM   12  C   UNL     1      43.716 -15.195   5.904  1.00  0.00     0.222 C 
HETATM   13  O   UNL     1      44.566 -15.683   6.643  1.00  0.00    -0.273 OA
HETATM   14  H   UNL     1      42.728 -13.600   5.086  1.00  0.00     0.169 HD
BRANCH  12  15
HETATM   15  C   UNL     1      42.789 -16.111   5.107  1.00  0.00     0.113 C 
BRANCH  15  16
HETATM   16  C   UNL     1      43.363 -16.640   3.775  1.00  0.00     0.030 C 
BRANCH  16  17
HETATM   17  C   UNL     1      42.590 -16.147   2.512  1.00  0.00    -0.014 C 
HETATM   18  C   UNL     1      43.377 -15.057   1.772  1.00  0.00     0.010 C 
HETATM   19  C   UNL     1      41.169 -15.642   2.784  1.00  0.00     0.010 C 
ENDBRANCH  16  17
BRANCH  16  20
HETATM   20  C   UNL     1      43.564 -18.152   3.751  1.00  0.00    -0.053 A 
HETATM   21  C   UNL     1      43.968 -18.875   4.881  1.00  0.00     0.007 A 
HETATM   22  C   UNL     1      44.145 -20.259   4.817  1.00  0.00     0.001 A 
HETATM   23  C   UNL     1      43.926 -20.939   3.622  1.00  0.00     0.000 A 
HETATM   24  C   UNL     1      43.524 -20.237   2.490  1.00  0.00     0.001 A 
HETATM   25  C   UNL     1      43.338 -18.854   2.555  1.00  0.00     0.007 A 
ENDBRANCH  16  20
ENDBRANCH  15  16
ENDBRANCH  12  15
ENDBRANCH   1  11
BRANCH   8  26
HETATM   26  C   UNL     1      43.580 -10.637  10.576  1.00  0.00     0.270 C 
HETATM   27  N   UNL     1      42.362 -10.022  10.468  1.00  0.00    -0.365 N 
HETATM   28  H   UNL     1      42.153  -9.506   9.622  1.00  0.00     0.159 HD
HETATM   29  H   UNL     1      41.687 -10.119  11.209  1.00  0.00     0.159 HD
HETATM   30  O   UNL     1      43.874 -11.293  11.568  1.00  0.00    -0.266 OA
ENDBRANCH   8  26
TORSDOF 6
ENDMDL
MODEL 2
REMARK VINA RESULT:      -8.5      1.905      2.686
REMARK  6 active torsions:
REMARK  status: ('A' for Active; 'I' for Inactive)
REMARK    1  A    between atoms: C_2  and  C_3 
REMARK    2  A    between atoms: C_3  and  C_4 
REMARK    3  A    between atoms: C_3  and  C_10 
REMARK    4  A    between atoms: C_10  and  C_11 
REMARK       I    between atoms: C_11  and  N_12 
REMARK    5  A    between atoms: N_12  and  C_13 
REMARK    6  A    between atoms: C_20  and  C_21 
REMARK       I    between atoms: C_21  and  N_22 
ROOT
HETATM    1  C   UNL     1      41.912 -12.797   5.468  1.00  0.00     0.035 A 
HETATM    2  C   UNL     1      43.075 -12.358   6.113  1.00  0.00     0.046 A 
HETATM    3  C   UNL     1      43.078 -11.103   6.764  1.00  0.00     0.030 A 
HETATM    4  C   UNL     1      41.927 -10.327   6.731  1.00  0.00     0.063 A 
HETATM    5  N   UNL     1      42.234  -9.188   7.420  1.00  0.00    -0.277 N 
HETATM    6  H   UNL     1      41.630  -8.392   7.591  1.00  0.00     0.189 HD
HETATM    7  N   UNL     1      43.481  -9.158   7.918  1.00  0.00    -0.168 NA
HETATM    8  C   UNL     1      44.015 -10.336   7.523  1.00  0.00     0.156 A 
HETATM    9  C   UNL     1      40.752 -10.731   6.096  1.00  0.00     0.034 A 
HETATM   10  C   UNL     1      40.768 -11.985   5.473  1.00  0.00     0.032 A 
ENDROOT
BRANCH   1  11
HETATM   11  N   UNL     1      41.796 -14.036   4.804  1.00  0.00    -0.327 N 
HETATM   12  C   UNL     1      41.719 -15.297   5.365  1.00  0.00     0.222 C 
HETATM   13  O   UNL     1      41.709 -15.557   6.565  1.00  0.00    -0.273 OA
HETATM   14  H   UNL     1      41.823 -13.986   3.796  1.00  0.00     0.169 HD
BRANCH  12  15
HETATM   15  C   UNL     1      41.554 -16.422   4.345  1.00  0.00     0.113 C 
BRANCH  15  16
HETATM   16  C   UNL     1      42.776 -16.680   3.437  1.00  0.00     0.030 C 
BRANCH  16  17
HETATM   17  C   UNL     1      42.621 -16.111   1.992  1.00  0.00    -0.014 C 
HETATM   18  C   UNL     1      43.532 -14.895   1.775  1.00  0.00     0.010 C 
HETATM   19  C   UNL     1      41.188 -15.740   1.596  1.00  0.00     0.010 C 
ENDBRANCH  16  17
BRANCH  16  20
HETATM   20  C   UNL     1      43.230 -18.135   3.418  1.00  0.00    -0.053 A 
HETATM   21  C   UNL     1      43.088 -18.953   2.289  1.00  0.00     0.007 A 
HETATM   22  C   UNL     1      43.514 -20.283   2.314  1.00  0.00     0.001 A 
HETATM   23  C   UNL     1      44.082 -20.817   3.467  1.00  0.00     0.000 A 
HETATM   24  C   UNL     1      44.231 -20.019   4.597  1.00  0.00     0.001 A 
HETATM   25  C   UNL     1      43.814 -18.687   4.572  1.00  0.00     0.007 A 
ENDBRANCH  16  20
ENDBRANCH  15  16
ENDBRANCH  12  15
ENDBRANCH   1  11
BRANCH   8  26
HETATM   26  C   UNL     1      45.392 -10.702   7.887  1.00  0.00     0.270 C 
HETATM   27  N   UNL     1      46.245 -10.789   6.821  1.00  0.00    -0.365 N 
HETATM   28  H   UNL     1      45.885 -10.590   5.895  1.00  0.00     0.159 HD
HETATM   29  H   UNL     1      47.215 -11.014   6.974  1.00  0.00     0.159 HD
HETATM   30  O   UNL     1      45.783 -10.910   9.030  1.00  0.00    -0.266 OA
ENDBRANCH   8  26
TORSDOF 6
ENDMDL
MODEL 3
REMARK VINA RESULT:      -8.5      4.873      8.137
REMARK  6 active torsions:
REMARK  status: ('A' for Active; 'I' for Inactive)
REMARK    1  A    between atoms: C_2  and  C_3 
REMARK    2  A    between atoms: C_3  and  C_4 
REMARK    3  A    between atoms: C_3  and  C_10 
REMARK    4  A    between atoms: C_10  and  C_11 
REMARK       I    between atoms: C_11  and  N_12 
REMARK    5  A    between atoms: N_12  and  C_13 
REMARK    6  A    between atoms: C_20  and  C_21 
REMARK       I    between atoms: C_21  and  N_22 
ROOT
HETATM    1  C   UNL     1      40.153 -13.396   2.024  1.00  0.00     0.035 A 
HETATM    2  C   UNL     1      40.042 -13.850   0.704  1.00  0.00     0.046 A 
HETATM    3  C   UNL     1      39.210 -13.153  -0.203  1.00  0.00     0.030 A 
HETATM    4  C   UNL     1      38.508 -12.042   0.247  1.00  0.00     0.063 A 
HETATM    5  N   UNL     1      37.796 -11.599  -0.831  1.00  0.00    -0.277 N 
HETATM    6  H   UNL     1      37.164 -10.807  -0.866  1.00  0.00     0.189 HD
HETATM    7  N   UNL     1      37.985 -12.311  -1.954  1.00  0.00    -0.168 NA
HETATM    8  C   UNL     1      38.859 -13.274  -1.583  1.00  0.00     0.156 A 
HETATM    9  C   UNL     1      38.592 -11.565   1.555  1.00  0.00     0.034 A 
HETATM   10  C   UNL     1      39.435 -12.261   2.430  1.00  0.00     0.032 A 
ENDROOT
BRANCH   1  11
HETATM   11  N   UNL     1      40.964 -14.006   3.004  1.00  0.00    -0.327 N 
HETATM   12  C   UNL     1      42.254 -13.667   3.370  1.00  0.00     0.222 C 
HETATM   13  O   UNL     1      42.916 -12.739   2.914  1.00  0.00    -0.273 OA
HETATM   14  H   UNL     1      40.562 -14.817   3.450  1.00  0.00     0.169 HD
BRANCH  12  15
HETATM   15  C   UNL     1      42.821 -14.517   4.505  1.00  0.00     0.113 C 
BRANCH  15  16
HETATM   16  C   UNL     1      42.095 -15.855   4.761  1.00  0.00     0.030 C 
BRANCH  16  17
HETATM   17  C   UNL     1      41.757 -16.115   6.262  1.00  0.00    -0.014 C 
HETATM   18  C   UNL     1      40.263 -15.898   6.538  1.00  0.00     0.010 C 
HETATM   19  C   UNL     1      42.576 -15.289   7.259  1.00  0.00     0.010 C 
ENDBRANCH  16  17
BRANCH  16  20
HETATM   20  C   UNL     1      42.786 -17.058   4.128  1.00  0.00    -0.053 A 
HETATM   21  C   UNL     1      43.724 -17.837   4.820  1.00  0.00     0.007 A 
HETATM   22  C   UNL     1      44.338 -18.930   4.203  1.00  0.00     0.001 A 
HETATM   23  C   UNL     1      44.029 -19.256   2.886  1.00  0.00     0.000 A 
HETATM   24  C   UNL     1      43.101 -18.494   2.184  1.00  0.00     0.001 A 
HETATM   25  C   UNL     1      42.479 -17.406   2.802  1.00  0.00     0.007 A 
ENDBRANCH  16  20
ENDBRANCH  15  16
ENDBRANCH  12  15
ENDBRANCH   1  11
BRANCH   8  26
HETATM   26  C   UNL     1      39.341 -14.271  -2.550  1.00  0.00     0.270 C 
HETATM   27  N   UNL     1      38.586 -15.412  -2.597  1.00  0.00    -0.365 N 
HETATM   28  H   UNL     1      37.774 -15.480  -1.995  1.00  0.00     0.159 HD
HETATM   29  H   UNL     1      38.827 -16.144  -3.245  1.00  0.00     0.159 HD
HETATM   30  O   UNL     1      40.319 -14.129  -3.274  1.00  0.00    -0.266 OA
ENDBRANCH   8  26
TORSDOF 6
ENDMDL
MODEL 4
REMARK VINA RESULT:      -8.3      5.295      8.289
REMARK  6 active torsions:
REMARK  status: ('A' for Active; 'I' for Inactive)
REMARK    1  A    between atoms: C_2  and  C_3 
REMARK    2  A    between atoms: C_3  and  C_4 
REMARK    3  A    between atoms: C_3  and  C_10 
REMARK    4  A    between atoms: C_10  and  C_11 
REMARK       I    between atoms: C_11  and  N_12 
REMARK    5  A    between atoms: N_12  and  C_13 
REMARK    6  A    between atoms: C_20  and  C_21 
REMARK       I    between atoms: C_21  and  N_22 
ROOT
HETATM    1  C   UNL     1      40.915 -14.727   1.216  1.00  0.00     0.035 A 
HETATM    2  C   UNL     1      40.166 -14.637   0.036  1.00  0.00     0.046 A 
HETATM    3  C   UNL     1      39.863 -13.365  -0.501  1.00  0.00     0.030 A 
HETATM    4  C   UNL     1      40.305 -12.231   0.169  1.00  0.00     0.063 A 
HETATM    5  N   UNL     1      39.857 -11.173  -0.569  1.00  0.00    -0.277 N 
HETATM    6  H   UNL     1      39.989 -10.187  -0.372  1.00  0.00     0.189 HD
HETATM    7  N   UNL     1      39.177 -11.514  -1.675  1.00  0.00    -0.168 NA
HETATM    8  C   UNL     1      39.174 -12.866  -1.649  1.00  0.00     0.156 A 
HETATM    9  C   UNL     1      41.049 -12.283   1.348  1.00  0.00     0.034 A 
HETATM   10  C   UNL     1      41.351 -13.554   1.851  1.00  0.00     0.032 A 
ENDROOT
BRANCH   1  11
HETATM   11  N   UNL     1      41.285 -15.943   1.828  1.00  0.00    -0.327 N 
HETATM   12  C   UNL     1      42.543 -16.512   1.894  1.00  0.00     0.222 C 
HETATM   13  O   UNL     1      43.580 -16.031   1.448  1.00  0.00    -0.273 OA
HETATM   14  H   UNL     1      40.522 -16.477   2.216  1.00  0.00     0.169 HD
BRANCH  12  15
HETATM   15  C   UNL     1      42.591 -17.823   2.676  1.00  0.00     0.113 C 
BRANCH  15  16
HETATM   16  C   UNL     1      43.770 -17.964   3.663  1.00  0.00     0.030 C 
BRANCH  16  17
HETATM   17  C   UNL     1      44.256 -19.434   3.863  1.00  0.00    -0.014 C 
HETATM   18  C   UNL     1      43.690 -20.357   2.774  1.00  0.00     0.010 C 
HETATM   19  C   UNL     1      43.946 -20.034   5.238  1.00  0.00     0.010 C 
ENDBRANCH  16  17
BRANCH  16  20
HETATM   20  C   UNL     1      43.539 -17.267   4.999  1.00  0.00    -0.053 A 
HETATM   21  C   UNL     1      42.258 -17.058   5.527  1.00  0.00     0.007 A 
HETATM   22  C   UNL     1      42.088 -16.411   6.753  1.00  0.00     0.001 A 
HETATM   23  C   UNL     1      43.194 -15.959   7.467  1.00  0.00     0.000 A 
HETATM   24  C   UNL     1      44.474 -16.158   6.958  1.00  0.00     0.001 A 
HETATM   25  C   UNL     1      44.646 -16.812   5.736  1.00  0.00     0.007 A 
ENDBRANCH  16  20
ENDBRANCH  15  16
ENDBRANCH  12  15
ENDBRANCH   1  11
BRANCH   8  26
HETATM   26  C   UNL     1      38.529 -13.642  -2.718  1.00  0.00     0.270 C 
HETATM   27  N   UNL     1      37.185 -13.829  -2.536  1.00  0.00    -0.365 N 
HETATM   28  H   UNL     1      36.747 -13.425  -1.718  1.00  0.00     0.159 HD
HETATM   29  H   UNL     1      36.653 -14.331  -3.228  1.00  0.00     0.159 HD
HETATM   30  O   UNL     1      39.103 -14.090  -3.703  1.00  0.00    -0.266 OA
ENDBRANCH   8  26
TORSDOF 6
ENDMDL
MODEL 5
REMARK VINA RESULT:      -8.3      3.565      4.126
REMARK  6 active torsions:
REMARK  status: ('A' for Active; 'I' for Inactive)
REMARK    1  A    between atoms: C_2  and  C_3 
REMARK    2  A    between atoms: C_3  and  C_4 
REMARK    3  A    between atoms: C_3  and  C_10 
REMARK    4  A    between atoms: C_10  and  C_11 
REMARK       I    between atoms: C_11  and  N_12 
REMARK    5  A    between atoms: N_12  and  C_13 
REMARK    6  A    between atoms: C_20  and  C_21 
REMARK       I    between atoms: C_21  and  N_22 
ROOT
HETATM    1  C   UNL     1      39.954 -12.993   4.802  1.00  0.00     0.035 A 
HETATM    2  C   UNL     1      39.810 -12.404   6.065  1.00  0.00     0.046 A 
HETATM    3  C   UNL     1      39.323 -11.080   6.162  1.00  0.00     0.030 A 
HETATM    4  C   UNL     1      39.015 -10.390   4.996  1.00  0.00     0.063 A 
HETATM    5  N   UNL     1      38.590  -9.158   5.403  1.00  0.00    -0.277 N 
HETATM    6  H   UNL     1      38.289  -8.388   4.816  1.00  0.00     0.189 HD
HETATM    7  N   UNL     1      38.573  -8.986   6.735  1.00  0.00    -0.168 NA
HETATM    8  C   UNL     1      39.022 -10.167   7.219  1.00  0.00     0.156 A 
HETATM    9  C   UNL     1      39.149 -10.945   3.724  1.00  0.00     0.034 A 
HETATM   10  C   UNL     1      39.617 -12.263   3.653  1.00  0.00     0.032 A 
ENDROOT
BRANCH   1  11
HETATM   11  N   UNL     1      40.415 -14.310   4.593  1.00  0.00    -0.327 N 
HETATM   12  C   UNL     1      41.703 -14.792   4.739  1.00  0.00     0.222 C 
HETATM   13  O   UNL     1      42.679 -14.149   5.114  1.00  0.00    -0.273 OA
HETATM   14  H   UNL     1      39.723 -14.957   4.246  1.00  0.00     0.169 HD
BRANCH  12  15
HETATM   15  C   UNL     1      41.840 -16.290   4.471  1.00  0.00     0.113 C 
BRANCH  15  16
HETATM   16  C   UNL     1      42.956 -16.687   3.481  1.00  0.00     0.030 C 
BRANCH  16  17
HETATM   17  C   UNL     1      42.695 -16.223   2.013  1.00  0.00    -0.014 C 
HETATM   18  C   UNL     1      43.480 -14.944   1.690  1.00  0.00     0.010 C 
HETATM   19  C   UNL     1      41.221 -16.009   1.658  1.00  0.00     0.010 C 
ENDBRANCH  16  17
BRANCH  16  20
HETATM   20  C   UNL     1      43.331 -18.164   3.540  1.00  0.00    -0.053 A 
HETATM   21  C   UNL     1      43.873 -18.757   4.688  1.00  0.00     0.007 A 
HETATM   22  C   UNL     1      44.207 -20.114   4.700  1.00  0.00     0.001 A 
HETATM   23  C   UNL     1      44.011 -20.894   3.565  1.00  0.00     0.000 A 
HETATM   24  C   UNL     1      43.475 -20.322   2.416  1.00  0.00     0.001 A 
HETATM   25  C   UNL     1      43.132 -18.968   2.405  1.00  0.00     0.007 A 
ENDBRANCH  16  20
ENDBRANCH  15  16
ENDBRANCH  12  15
ENDBRANCH   1  11
BRANCH   8  26
HETATM   26  C   UNL     1      39.140 -10.395   8.666  1.00  0.00     0.270 C 
HETATM   27  N   UNL     1      40.230  -9.795   9.237  1.00  0.00    -0.365 N 
HETATM   28  H   UNL     1      40.846  -9.249   8.647  1.00  0.00     0.159 HD
HETATM   29  H   UNL     1      40.383  -9.878  10.229  1.00  0.00     0.159 HD
HETATM   30  O   UNL     1      38.351 -11.047   9.339  1.00  0.00    -0.266 OA
ENDBRANCH   8  26
TORSDOF 6
ENDMDL
MODEL 6
REMARK VINA RESULT:      -8.2      2.170      2.553
REMARK  6 active torsions:
REMARK  status: ('A' for Active; 'I' for Inactive)
REMARK    1  A    between atoms: C_2  and  C_3 
REMARK    2  A    between atoms: C_3  and  C_4 
REMARK    3  A    between atoms: C_3  and  C_10 
REMARK    4  A    between atoms: C_10  and  C_11 
REMARK       I    between atoms: C_11  and  N_12 
REMARK    5  A    between atoms: N_12  and  C_13 
REMARK    6  A    between atoms: C_20  and  C_21 
REMARK       I    between atoms: C_21  and  N_22 
ROOT
HETATM    1  C   UNL     1      43.710 -11.851   6.545  1.00  0.00     0.035 A 
HETATM    2  C   UNL     1      43.121 -10.673   7.023  1.00  0.00     0.046 A 
HETATM    3  C   UNL     1      43.934  -9.678   7.612  1.00  0.00     0.030 A 
HETATM    4  C   UNL     1      45.301  -9.905   7.719  1.00  0.00     0.063 A 
HETATM    5  N   UNL     1      45.808  -8.794   8.330  1.00  0.00    -0.277 N 
HETATM    6  H   UNL     1      46.775  -8.616   8.576  1.00  0.00     0.189 HD
HETATM    7  N   UNL     1      44.896  -7.850   8.617  1.00  0.00    -0.168 NA
HETATM    8  C   UNL     1      43.732  -8.381   8.177  1.00  0.00     0.156 A 
HETATM    9  C   UNL     1      45.920 -11.066   7.258  1.00  0.00     0.034 A 
HETATM   10  C   UNL     1      45.096 -12.029   6.662  1.00  0.00     0.032 A 
ENDROOT
BRANCH   1  11
HETATM   11  N   UNL     1      42.995 -12.898   5.927  1.00  0.00    -0.327 N 
HETATM   12  C   UNL     1      42.802 -13.113   4.575  1.00  0.00     0.222 C 
HETATM   13  O   UNL     1      43.256 -12.430   3.661  1.00  0.00    -0.273 OA
HETATM   14  H   UNL     1      42.531 -13.532   6.560  1.00  0.00     0.169 HD
BRANCH  12  15
HETATM   15  C   UNL     1      42.008 -14.378   4.253  1.00  0.00     0.113 C 
BRANCH  15  16
HETATM   16  C   UNL     1      42.473 -15.153   3.002  1.00  0.00     0.030 C 
BRANCH  16  17
HETATM   17  C   UNL     1      41.388 -15.258   1.884  1.00  0.00    -0.014 C 
HETATM   18  C   UNL     1      41.349 -13.984   1.029  1.00  0.00     0.010 C 
HETATM   19  C   UNL     1      39.974 -15.568   2.386  1.00  0.00     0.010 C 
ENDBRANCH  16  17
BRANCH  16  20
HETATM   20  C   UNL     1      43.085 -16.514   3.314  1.00  0.00    -0.053 A 
HETATM   21  C   UNL     1      43.094 -17.565   2.389  1.00  0.00     0.007 A 
HETATM   22  C   UNL     1      43.662 -18.799   2.716  1.00  0.00     0.001 A 
HETATM   23  C   UNL     1      44.223 -19.001   3.973  1.00  0.00     0.000 A 
HETATM   24  C   UNL     1      44.223 -17.968   4.905  1.00  0.00     0.001 A 
HETATM   25  C   UNL     1      43.664 -16.731   4.577  1.00  0.00     0.007 A 
ENDBRANCH  16  20
ENDBRANCH  15  16
ENDBRANCH  12  15
ENDBRANCH   1  11
BRANCH   8  26
HETATM   26  C   UNL     1      42.470  -7.638   8.295  1.00  0.00     0.270 C 
HETATM   27  N   UNL     1      42.058  -7.051   7.128  1.00  0.00    -0.365 N 
HETATM   28  H   UNL     1      42.623  -7.178   6.298  1.00  0.00     0.159 HD
HETATM   29  H   UNL     1      41.193  -6.537   7.107  1.00  0.00     0.159 HD
HETATM   30  O   UNL     1      41.810  -7.535   9.323  1.00  0.00    -0.266 OA
ENDBRANCH   8  26
TORSDOF 6
ENDMDL
MODEL 7
REMARK VINA RESULT:      -8.2      6.063      9.013
REMARK  6 active torsions:
REMARK  status: ('A' for Active; 'I' for Inactive)
REMARK    1  A    between atoms: C_2  and  C_3 
REMARK    2  A    between atoms: C_3  and  C_4 
REMARK    3  A    between atoms: C_3  and  C_10 
REMARK    4  A    between atoms: C_10  and  C_11 
REMARK       I    between atoms: C_11  and  N_12 
REMARK    5  A    between atoms: N_12  and  C_13 
REMARK    6  A    between atoms: C_20  and  C_21 
REMARK       I    between atoms: C_21  and  N_22 
ROOT
HETATM    1  C   UNL     1      39.754 -13.915  -1.001  1.00  0.00     0.035 A 
HETATM    2  C   UNL     1      39.102 -12.685  -0.853  1.00  0.00     0.046 A 
HETATM    3  C   UNL     1      38.040 -12.351  -1.725  1.00  0.00     0.030 A 
HETATM    4  C   UNL     1      37.682 -13.251  -2.721  1.00  0.00     0.063 A 
HETATM    5  N   UNL     1      36.655 -12.656  -3.398  1.00  0.00    -0.277 N 
HETATM    6  H   UNL     1      36.151 -13.025  -4.196  1.00  0.00     0.189 HD
HETATM    7  N   UNL     1      36.296 -11.454  -2.920  1.00  0.00    -0.168 NA
HETATM    8  C   UNL     1      37.142 -11.252  -1.883  1.00  0.00     0.156 A 
HETATM    9  C   UNL     1      38.311 -14.483  -2.899  1.00  0.00     0.034 A 
HETATM   10  C   UNL     1      39.349 -14.798  -2.013  1.00  0.00     0.032 A 
ENDROOT
BRANCH   1  11
HETATM   11  N   UNL     1      40.813 -14.353  -0.178  1.00  0.00    -0.327 N 
HETATM   12  C   UNL     1      40.734 -15.102   0.982  1.00  0.00     0.222 C 
HETATM   13  O   UNL     1      39.708 -15.548   1.487  1.00  0.00    -0.273 OA
HETATM   14  H   UNL     1      41.730 -14.033  -0.451  1.00  0.00     0.169 HD
BRANCH  12  15
HETATM   15  C   UNL     1      42.090 -15.437   1.600  1.00  0.00     0.113 C 
BRANCH  15  16
HETATM   16  C   UNL     1      42.040 -16.057   3.013  1.00  0.00     0.030 C 
BRANCH  16  17
HETATM   17  C   UNL     1      42.454 -15.073   4.151  1.00  0.00    -0.014 C 
HETATM   18  C   UNL     1      41.306 -14.865   5.147  1.00  0.00     0.010 C 
HETATM   19  C   UNL     1      42.955 -13.707   3.671  1.00  0.00     0.010 C 
ENDBRANCH  16  17
BRANCH  16  20
HETATM   20  C   UNL     1      42.782 -17.385   3.126  1.00  0.00    -0.053 A 
HETATM   21  C   UNL     1      42.700 -18.379   2.141  1.00  0.00     0.007 A 
HETATM   22  C   UNL     1      43.393 -19.584   2.284  1.00  0.00     0.001 A 
HETATM   23  C   UNL     1      44.171 -19.815   3.414  1.00  0.00     0.000 A 
HETATM   24  C   UNL     1      44.264 -18.840   4.402  1.00  0.00     0.001 A 
HETATM   25  C   UNL     1      43.580 -17.631   4.257  1.00  0.00     0.007 A 
ENDBRANCH  16  20
ENDBRANCH  15  16
ENDBRANCH  12  15
ENDBRANCH   1  11
BRANCH   8  26
HETATM   26  C   UNL     1      37.063 -10.029  -1.070  1.00  0.00     0.270 C 
HETATM   27  N   UNL     1      36.599 -10.236   0.201  1.00  0.00    -0.365 N 
HETATM   28  H   UNL     1      36.365 -11.180   0.483  1.00  0.00     0.159 HD
HETATM   29  H   UNL     1      36.530  -9.460   0.839  1.00  0.00     0.159 HD
HETATM   30  O   UNL     1      37.382  -8.910  -1.455  1.00  0.00    -0.266 OA
ENDBRANCH   8  26
TORSDOF 6
ENDMDL
MODEL 8
REMARK VINA RESULT:      -8.0      4.952      7.842
REMARK  6 active torsions:
REMARK  status: ('A' for Active; 'I' for Inactive)
REMARK    1  A    between atoms: C_2  and  C_3 
REMARK    2  A    between atoms: C_3  and  C_4 
REMARK    3  A    between atoms: C_3  and  C_10 
REMARK    4  A    between atoms: C_10  and  C_11 
REMARK       I    between atoms: C_11  and  N_12 
REMARK    5  A    between atoms: N_12  and  C_13 
REMARK    6  A    between atoms: C_20  and  C_21 
REMARK       I    between atoms: C_21  and  N_22 
ROOT
HETATM    1  C   UNL     1      41.002 -13.485   0.868  1.00  0.00     0.035 A 
HETATM    2  C   UNL     1      41.336 -12.258   0.281  1.00  0.00     0.046 A 
HETATM    3  C   UNL     1      40.926 -11.988  -1.045  1.00  0.00     0.030 A 
HETATM    4  C   UNL     1      40.214 -12.958  -1.739  1.00  0.00     0.063 A 
HETATM    5  N   UNL     1      39.974 -12.423  -2.972  1.00  0.00    -0.277 N 
HETATM    6  H   UNL     1      39.483 -12.857  -3.745  1.00  0.00     0.189 HD
HETATM    7  N   UNL     1      40.450 -11.178  -3.141  1.00  0.00    -0.168 NA
HETATM    8  C   UNL     1      41.040 -10.894  -1.957  1.00  0.00     0.156 A 
HETATM    9  C   UNL     1      39.867 -14.191  -1.186  1.00  0.00     0.034 A 
HETATM   10  C   UNL     1      40.269 -14.429   0.133  1.00  0.00     0.032 A 
ENDROOT
BRANCH   1  11
HETATM   11  N   UNL     1      41.347 -13.850   2.186  1.00  0.00    -0.327 N 
HETATM   12  C   UNL     1      42.594 -14.195   2.673  1.00  0.00     0.222 C 
HETATM   13  O   UNL     1      43.642 -14.214   2.034  1.00  0.00    -0.273 OA
HETATM   14  H   UNL     1      40.574 -13.912   2.831  1.00  0.00     0.169 HD
BRANCH  12  15
HETATM   15  C   UNL     1      42.617 -14.494   4.171  1.00  0.00     0.113 C 
BRANCH  15  16
HETATM   16  C   UNL     1      42.005 -15.849   4.587  1.00  0.00     0.030 C 
BRANCH  16  17
HETATM   17  C   UNL     1      41.774 -15.994   6.124  1.00  0.00    -0.014 C 
HETATM   18  C   UNL     1      40.280 -15.918   6.469  1.00  0.00     0.010 C 
HETATM   19  C   UNL     1      42.539 -14.986   6.988  1.00  0.00     0.010 C 
ENDBRANCH  16  17
BRANCH  16  20
HETATM   20  C   UNL     1      42.742 -17.056   4.018  1.00  0.00    -0.053 A 
HETATM   21  C   UNL     1      43.764 -17.711   4.716  1.00  0.00     0.007 A 
HETATM   22  C   UNL     1      44.418 -18.812   4.157  1.00  0.00     0.001 A 
HETATM   23  C   UNL     1      44.064 -19.270   2.892  1.00  0.00     0.000 A 
HETATM   24  C   UNL     1      43.052 -18.631   2.183  1.00  0.00     0.001 A 
HETATM   25  C   UNL     1      42.391 -17.536   2.744  1.00  0.00     0.007 A 
ENDBRANCH  16  20
ENDBRANCH  15  16
ENDBRANCH  12  15
ENDBRANCH   1  11
BRANCH   8  26
HETATM   26  C   UNL     1      41.681  -9.591  -1.726  1.00  0.00     0.270 C 
HETATM   27  N   UNL     1      41.343  -8.634  -2.644  1.00  0.00    -0.365 N 
HETATM   28  H   UNL     1      40.692  -8.878  -3.380  1.00  0.00     0.159 HD
HETATM   29  H   UNL     1      41.717  -7.704  -2.555  1.00  0.00     0.159 HD
HETATM   30  O   UNL     1      42.446  -9.341  -0.802  1.00  0.00    -0.266 OA
ENDBRANCH   8  26
TORSDOF 6
ENDMDL
MODEL 9
REMARK VINA RESULT:      -7.9      4.962      7.721
REMARK  6 active torsions:
REMARK  status: ('A' for Active; 'I' for Inactive)
REMARK    1  A    between atoms: C_2  and  C_3 
REMARK    2  A    between atoms: C_3  and  C_4 
REMARK    3  A    between atoms: C_3  and  C_10 
REMARK    4  A    between atoms: C_10  and  C_11 
REMARK       I    between atoms: C_11  and  N_12 
REMARK    5  A    between atoms: N_12  and  C_13 
REMARK    6  A    between atoms: C_20  and  C_21 
REMARK       I    between atoms: C_21  and  N_22 
ROOT
HETATM    1  C   UNL     1      40.322 -13.807   1.420  1.00  0.00     0.035 A 
HETATM    2  C   UNL     1      39.522 -12.658   1.363  1.00  0.00     0.046 A 
HETATM    3  C   UNL     1      38.862 -12.331   0.157  1.00  0.00     0.030 A 
HETATM    4  C   UNL     1      39.038 -13.152  -0.950  1.00  0.00     0.063 A 
HETATM    5  N   UNL     1      38.300 -12.582  -1.948  1.00  0.00    -0.277 N 
HETATM    6  H   UNL     1      38.201 -12.911  -2.902  1.00  0.00     0.189 HD
HETATM    7  N   UNL     1      37.640 -11.470  -1.587  1.00  0.00    -0.168 NA
HETATM    8  C   UNL     1      37.975 -11.302  -0.288  1.00  0.00     0.156 A 
HETATM    9  C   UNL     1      39.828 -14.301  -0.929  1.00  0.00     0.034 A 
HETATM   10  C   UNL     1      40.459 -14.614   0.281  1.00  0.00     0.032 A 
ENDROOT
BRANCH   1  11
HETATM   11  N   UNL     1      41.011 -14.233   2.575  1.00  0.00    -0.327 N 
HETATM   12  C   UNL     1      42.234 -13.793   3.045  1.00  0.00     0.222 C 
HETATM   13  O   UNL     1      42.930 -12.914   2.543  1.00  0.00    -0.273 OA
HETATM   14  H   UNL     1      40.572 -14.986   3.083  1.00  0.00     0.169 HD
BRANCH  12  15
HETATM   15  C   UNL     1      42.667 -14.443   4.358  1.00  0.00     0.113 C 
BRANCH  15  16
HETATM   16  C   UNL     1      42.008 -15.802   4.675  1.00  0.00     0.030 C 
BRANCH  16  17
HETATM   17  C   UNL     1      41.742 -16.039   6.195  1.00  0.00    -0.014 C 
HETATM   18  C   UNL     1      40.246 -15.930   6.518  1.00  0.00     0.010 C 
HETATM   19  C   UNL     1      42.526 -15.118   7.136  1.00  0.00     0.010 C 
ENDBRANCH  16  17
BRANCH  16  20
HETATM   20  C   UNL     1      42.720 -16.992   4.041  1.00  0.00    -0.053 A 
HETATM   21  C   UNL     1      42.423 -17.447   2.750  1.00  0.00     0.007 A 
HETATM   22  C   UNL     1      43.096 -18.544   2.207  1.00  0.00     0.001 A 
HETATM   23  C   UNL     1      44.071 -19.205   2.948  1.00  0.00     0.000 A 
HETATM   24  C   UNL     1      44.380 -18.768   4.232  1.00  0.00     0.001 A 
HETATM   25  C   UNL     1      43.714 -17.666   4.773  1.00  0.00     0.007 A 
ENDBRANCH  16  20
ENDBRANCH  15  16
ENDBRANCH  12  15
ENDBRANCH   1  11
BRANCH   8  26
HETATM   26  C   UNL     1      37.435 -10.180   0.494  1.00  0.00     0.270 C 
HETATM   27  N   UNL     1      36.249 -10.456   1.119  1.00  0.00    -0.365 N 
HETATM   28  H   UNL     1      35.851 -11.381   1.013  1.00  0.00     0.159 HD
HETATM   29  H   UNL     1      35.813  -9.755   1.694  1.00  0.00     0.159 HD
HETATM   30  O   UNL     1      37.971  -9.083   0.608  1.00  0.00    -0.266 OA
ENDBRANCH   8  26
TORSDOF 6
ENDMDL
MODEL 10
REMARK VINA RESULT:      -7.9      5.329      9.106
REMARK  6 active torsions:
REMARK  status: ('A' for Active; 'I' for Inactive)
REMARK    1  A    between atoms: C_2  and  C_3 
REMARK    2  A    between atoms: C_3  and  C_4 
REMARK    3  A    between atoms: C_3  and  C_10 
REMARK    4  A    between atoms: C_10  and  C_11 
REMARK       I    between atoms: C_11  and  N_12 
REMARK    5  A    between atoms: N_12  and  C_13 
REMARK    6  A    between atoms: C_20  and  C_21 
REMARK       I    between atoms: C_21  and  N_22 
ROOT
HETATM    1  C   UNL     1      42.579 -15.767   1.996  1.00  0.00     0.035 A 
HETATM    2  C   UNL     1      42.901 -17.130   2.032  1.00  0.00     0.046 A 
HETATM    3  C   UNL     1      43.396 -17.697   3.229  1.00  0.00     0.030 A 
HETATM    4  C   UNL     1      43.566 -16.879   4.339  1.00  0.00     0.063 A 
HETATM    5  N   UNL     1      44.060 -17.692   5.318  1.00  0.00    -0.277 N 
HETATM    6  H   UNL     1      44.311 -17.429   6.265  1.00  0.00     0.189 HD
HETATM    7  N   UNL     1      44.210 -18.975   4.954  1.00  0.00    -0.168 NA
HETATM    8  C   UNL     1      43.801 -18.995   3.665  1.00  0.00     0.156 A 
HETATM    9  C   UNL     1      43.259 -15.518   4.338  1.00  0.00     0.034 A 
HETATM   10  C   UNL     1      42.755 -14.983   3.146  1.00  0.00     0.032 A 
ENDROOT
BRANCH   1  11
HETATM   11  N   UNL     1      42.065 -15.106   0.861  1.00  0.00    -0.327 N 
HETATM   12  C   UNL     1      40.744 -14.820   0.570  1.00  0.00     0.222 C 
HETATM   13  O   UNL     1      39.775 -15.072   1.280  1.00  0.00    -0.273 OA
HETATM   14  H   UNL     1      42.749 -14.861   0.161  1.00  0.00     0.169 HD
BRANCH  12  15
HETATM   15  C   UNL     1      40.548 -14.047  -0.733  1.00  0.00     0.113 C 
BRANCH  15  16
HETATM   16  C   UNL     1      39.144 -13.440  -0.940  1.00  0.00     0.030 C 
BRANCH  16  17
HETATM   17  C   UNL     1      38.587 -13.611  -2.388  1.00  0.00    -0.014 C 
HETATM   18  C   UNL     1      37.137 -13.118  -2.485  1.00  0.00     0.010 C 
HETATM   19  C   UNL     1      38.670 -15.035  -2.946  1.00  0.00     0.010 C 
ENDBRANCH  16  17
BRANCH  16  20
HETATM   20  C   UNL     1      39.023 -11.997  -0.463  1.00  0.00    -0.053 A 
HETATM   21  C   UNL     1      39.695 -10.939  -1.089  1.00  0.00     0.007 A 
HETATM   22  C   UNL     1      39.561  -9.630  -0.619  1.00  0.00     0.001 A 
HETATM   23  C   UNL     1      38.760  -9.361   0.487  1.00  0.00     0.000 A 
HETATM   24  C   UNL     1      38.086 -10.399   1.122  1.00  0.00     0.001 A 
HETATM   25  C   UNL     1      38.212 -11.707   0.648  1.00  0.00     0.007 A 
ENDBRANCH  16  20
ENDBRANCH  15  16
ENDBRANCH  12  15
ENDBRANCH   1  11
BRANCH   8  26
HETATM   26  C   UNL     1      43.797 -20.247   2.893  1.00  0.00     0.270 C 
HETATM   27  N   UNL     1      44.014 -21.367   3.648  1.00  0.00    -0.365 N 
HETATM   28  H   UNL     1      44.144 -21.260   4.647  1.00  0.00     0.159 HD
HETATM   29  H   UNL     1      44.009 -22.273   3.209  1.00  0.00     0.159 HD
HETATM   30  O   UNL     1      43.611 -20.323   1.684  1.00  0.00    -0.266 OA
ENDBRANCH   8  26
TORSDOF 6
ENDMDL
