MODEL 1
REMARK VINA RESULT:      -9.9      0.000      0.000
REMARK  7 active torsions:
REMARK  status: ('A' for Active; 'I' for Inactive)
REMARK    1  A    between atoms: C_2  and  O_3 
REMARK    2  A    between atoms: O_3  and  C_4 
REMARK    3  A    between atoms: C_5  and  O_6 
REMARK    4  A    between atoms: C_9  and  C_10 
REMARK    5  A    between atoms: N_11  and  N_12 
REMARK       I    between atoms: N_12  and  C_13 
REMARK    6  A    between atoms: C_13  and  C_14 
REMARK    7  A    between atoms: C_18  and  C_19 
ROOT
HETATM    1  C   UNL     1      43.567 -11.924   7.186  1.00  0.00     0.121 A 
HETATM    2  N   UNL     1      42.299 -12.086   6.703  1.00  0.00    -0.272 N 
HETATM    3  H   UNL     1      41.516 -11.451   6.829  1.00  0.00     0.189 HD
HETATM    4  N   UNL     1      42.100 -13.242   6.059  1.00  0.00    -0.174 NA
HETATM    5  C   UNL     1      43.287 -13.867   6.087  1.00  0.00     0.090 A 
HETATM    6  C   UNL     1      44.248 -13.044   6.751  1.00  0.00     0.071 A 
ENDROOT
BRANCH   1   7
HETATM    7  C   UNL     1      43.917 -10.799   8.017  1.00  0.00     0.289 C 
HETATM    8  N   UNL     1      43.266 -10.768   9.244  1.00  0.00    -0.242 N 
HETATM    9  H   UNL     1      42.883 -11.632   9.609  1.00  0.00     0.192 HD
HETATM   10  O   UNL     1      44.708  -9.947   7.623  1.00  0.00    -0.264 OA
BRANCH   8  11
HETATM   11  N   UNL     1      43.293  -9.743  10.161  1.00  0.00    -0.184 NA
HETATM   12  C   UNL     1      42.257  -9.601  10.926  1.00  0.00     0.150 C 
BRANCH  12  13
HETATM   13  C   UNL     1      42.180  -8.552  11.965  1.00  0.00    -0.014 A 
HETATM   14  C   UNL     1      43.315  -8.326  12.755  1.00  0.00     0.016 A 
HETATM   15  C   UNL     1      43.300  -7.311  13.708  1.00  0.00     0.040 A 
HETATM   16  C   UNL     1      42.155  -6.540  13.859  1.00  0.00     0.099 A 
HETATM   17  C   UNL     1      41.006  -6.765  13.088  1.00  0.00     0.102 A 
HETATM   18  C   UNL     1      41.023  -7.779  12.131  1.00  0.00     0.052 A 
BRANCH  16  19
HETATM   19  O   UNL     1      42.171  -5.541  14.792  1.00  0.00    -0.358 OA
HETATM   20  H   UNL     1      41.257  -5.197  14.812  1.00  0.00     0.218 HD
ENDBRANCH  16  19
BRANCH  17  21
HETATM   21  O   UNL     1      39.960  -5.922  13.359  1.00  0.00    -0.349 OA
BRANCH  21  22
HETATM   22  C   UNL     1      38.858  -6.474  14.077  1.00  0.00     0.171 C 
HETATM   23  C   UNL     1      37.697  -6.612  13.108  1.00  0.00     0.034 C 
ENDBRANCH  21  22
ENDBRANCH  17  21
ENDBRANCH  12  13
ENDBRANCH   8  11
ENDBRANCH   1   7
BRANCH   5  24
HETATM   24  C   UNL     1      43.482 -15.233   5.572  1.00  0.00     0.005 A 
HETATM   25  C   UNL     1      43.338 -15.575   4.190  1.00  0.00    -0.012 A 
HETATM   26  C   UNL     1      43.499 -16.906   3.879  1.00  0.00    -0.012 A 
HETATM   27  C   UNL     1      43.050 -14.745   3.075  1.00  0.00     0.013 A 
HETATM   28  C   UNL     1      43.377 -17.437   2.607  1.00  0.00    -0.046 A 
HETATM   29  C   UNL     1      43.797 -17.893   4.799  1.00  0.00    -0.046 A 
HETATM   30  C   UNL     1      43.081 -16.637   1.514  1.00  0.00     0.008 A 
HETATM   31  C   UNL     1      43.595 -18.909   2.631  1.00  0.00     0.044 A 
HETATM   32  C   UNL     1      42.923 -15.270   1.771  1.00  0.00     0.001 A 
HETATM   33  C   UNL     1      43.894 -19.220   4.128  1.00  0.00     0.044 A 
HETATM   34  C   UNL     1      43.957 -17.604   6.142  1.00  0.00     0.009 A 
HETATM   35  C   UNL     1      43.789 -16.259   6.510  1.00  0.00     0.015 A 
ENDBRANCH   5  24
TORSDOF 7
ENDMDL
MODEL 2
REMARK VINA RESULT:      -9.8      1.096      1.509
REMARK  7 active torsions:
REMARK  status: ('A' for Active; 'I' for Inactive)
REMARK    1  A    between atoms: C_2  and  O_3 
REMARK    2  A    between atoms: O_3  and  C_4 
REMARK    3  A    between atoms: C_5  and  O_6 
REMARK    4  A    between atoms: C_9  and  C_10 
REMARK    5  A    between atoms: N_11  and  N_12 
REMARK       I    between atoms: N_12  and  C_13 
REMARK    6  A    between atoms: C_13  and  C_14 
REMARK    7  A    between atoms: C_18  and  C_19 
ROOT
HETATM    1  C   UNL     1      43.632 -12.006   7.166  1.00  0.00     0.121 A 
HETATM    2  N   UNL     1      42.342 -12.173   6.749  1.00  0.00    -0.272 N 
HETATM    3  H   UNL     1      41.563 -11.541   6.917  1.00  0.00     0.189 HD
HETATM    4  N   UNL     1      42.113 -13.328   6.113  1.00  0.00    -0.174 NA
HETATM    5  C   UNL     1      43.303 -13.948   6.078  1.00  0.00     0.090 A 
HETATM    6  C   UNL     1      44.294 -13.123   6.693  1.00  0.00     0.071 A 
ENDROOT
BRANCH   1   7
HETATM    7  C   UNL     1      44.021 -10.882   7.981  1.00  0.00     0.289 C 
HETATM    8  N   UNL     1      43.432 -10.856   9.239  1.00  0.00    -0.242 N 
HETATM    9  H   UNL     1      43.070 -11.722   9.621  1.00  0.00     0.192 HD
HETATM   10  O   UNL     1      44.788 -10.028   7.549  1.00  0.00    -0.264 OA
BRANCH   8  11
HETATM   11  N   UNL     1      43.502  -9.833  10.156  1.00  0.00    -0.184 NA
HETATM   12  C   UNL     1      42.383  -9.359  10.607  1.00  0.00     0.150 C 
BRANCH  12  13
HETATM   13  C   UNL     1      42.332  -8.277  11.612  1.00  0.00    -0.014 A 
HETATM   14  C   UNL     1      42.950  -8.500  12.850  1.00  0.00     0.016 A 
HETATM   15  C   UNL     1      42.970  -7.486  13.803  1.00  0.00     0.040 A 
HETATM   16  C   UNL     1      42.371  -6.268  13.509  1.00  0.00     0.099 A 
HETATM   17  C   UNL     1      41.733  -6.035  12.283  1.00  0.00     0.102 A 
HETATM   18  C   UNL     1      41.718  -7.050  11.326  1.00  0.00     0.052 A 
BRANCH  16  19
HETATM   19  O   UNL     1      42.416  -5.283  14.458  1.00  0.00    -0.358 OA
HETATM   20  H   UNL     1      41.878  -4.555  14.092  1.00  0.00     0.218 HD
ENDBRANCH  16  19
BRANCH  17  21
HETATM   21  O   UNL     1      41.190  -4.784  12.148  1.00  0.00    -0.349 OA
BRANCH  21  22
HETATM   22  C   UNL     1      41.578  -4.036  10.996  1.00  0.00     0.171 C 
HETATM   23  C   UNL     1      42.909  -3.373  11.302  1.00  0.00     0.034 C 
ENDBRANCH  21  22
ENDBRANCH  17  21
ENDBRANCH  12  13
ENDBRANCH   8  11
ENDBRANCH   1   7
BRANCH   5  24
HETATM   24  C   UNL     1      43.476 -15.313   5.550  1.00  0.00     0.005 A 
HETATM   25  C   UNL     1      43.340 -15.636   4.163  1.00  0.00    -0.012 A 
HETATM   26  C   UNL     1      43.479 -16.967   3.839  1.00  0.00    -0.012 A 
HETATM   27  C   UNL     1      43.081 -14.788   3.054  1.00  0.00     0.013 A 
HETATM   28  C   UNL     1      43.360 -17.481   2.560  1.00  0.00    -0.046 A 
HETATM   29  C   UNL     1      43.747 -17.970   4.751  1.00  0.00    -0.046 A 
HETATM   30  C   UNL     1      43.091 -16.664   1.472  1.00  0.00     0.008 A 
HETATM   31  C   UNL     1      43.548 -18.957   2.570  1.00  0.00     0.044 A 
HETATM   32  C   UNL     1      42.958 -15.297   1.743  1.00  0.00     0.001 A 
HETATM   33  C   UNL     1      43.825 -19.290   4.067  1.00  0.00     0.044 A 
HETATM   34  C   UNL     1      43.898 -17.698   6.098  1.00  0.00     0.009 A 
HETATM   35  C   UNL     1      43.753 -16.355   6.480  1.00  0.00     0.015 A 
ENDBRANCH   5  24
TORSDOF 7
ENDMDL
MODEL 3
REMARK VINA RESULT:      -9.7      0.783      2.099
REMARK  7 active torsions:
REMARK  status: ('A' for Active; 'I' for Inactive)
REMARK    1  A    between atoms: C_2  and  O_3 
REMARK    2  A    between atoms: O_3  and  C_4 
REMARK    3  A    between atoms: C_5  and  O_6 
REMARK    4  A    between atoms: C_9  and  C_10 
REMARK    5  A    between atoms: N_11  and  N_12 
REMARK       I    between atoms: N_12  and  C_13 
REMARK    6  A    between atoms: C_13  and  C_14 
REMARK    7  A    between atoms: C_18  and  C_19 
ROOT
HETATM    1  C   UNL     1      43.512 -11.645   7.320  1.00  0.00     0.121 A 
HETATM    2  N   UNL     1      42.304 -11.396   6.730  1.00  0.00    -0.272 N 
HETATM    3  H   UNL     1      41.623 -10.698   7.013  1.00  0.00     0.189 HD
HETATM    4  N   UNL     1      42.005 -12.222   5.721  1.00  0.00    -0.174 NA
HETATM    5  C   UNL     1      43.064 -13.039   5.611  1.00  0.00     0.090 A 
HETATM    6  C   UNL     1      44.054 -12.674   6.575  1.00  0.00     0.071 A 
ENDROOT
BRANCH   1   7
HETATM    7  C   UNL     1      43.931 -10.937   8.504  1.00  0.00     0.289 C 
HETATM    8  N   UNL     1      42.906 -10.273   9.167  1.00  0.00    -0.242 N 
HETATM    9  H   UNL     1      41.952 -10.575   9.007  1.00  0.00     0.192 HD
HETATM   10  O   UNL     1      45.109 -10.925   8.846  1.00  0.00    -0.264 OA
BRANCH   8  11
HETATM   11  N   UNL     1      43.042  -9.404  10.225  1.00  0.00    -0.184 NA
HETATM   12  C   UNL     1      41.976  -9.124  10.907  1.00  0.00     0.150 C 
BRANCH  12  13
HETATM   13  C   UNL     1      42.002  -8.224  12.078  1.00  0.00    -0.014 A 
HETATM   14  C   UNL     1      43.172  -8.181  12.848  1.00  0.00     0.016 A 
HETATM   15  C   UNL     1      43.255  -7.306  13.928  1.00  0.00     0.040 A 
HETATM   16  C   UNL     1      42.170  -6.491  14.225  1.00  0.00     0.099 A 
HETATM   17  C   UNL     1      40.987  -6.534  13.475  1.00  0.00     0.102 A 
HETATM   18  C   UNL     1      40.906  -7.407  12.390  1.00  0.00     0.052 A 
BRANCH  16  19
HETATM   19  O   UNL     1      42.283  -5.631  15.282  1.00  0.00    -0.358 OA
HETATM   20  H   UNL     1      41.364  -5.393  15.514  1.00  0.00     0.218 HD
ENDBRANCH  16  19
BRANCH  17  21
HETATM   21  O   UNL     1      40.010  -5.669  13.895  1.00  0.00    -0.349 OA
BRANCH  21  22
HETATM   22  C   UNL     1      38.815  -6.252  14.413  1.00  0.00     0.171 C 
HETATM   23  C   UNL     1      38.744  -5.923  15.893  1.00  0.00     0.034 C 
ENDBRANCH  21  22
ENDBRANCH  17  21
ENDBRANCH  12  13
ENDBRANCH   8  11
ENDBRANCH   1   7
BRANCH   5  24
HETATM   24  C   UNL     1      43.101 -14.177   4.677  1.00  0.00     0.005 A 
HETATM   25  C   UNL     1      43.287 -15.530   5.102  1.00  0.00    -0.012 A 
HETATM   26  C   UNL     1      43.353 -16.472   4.100  1.00  0.00    -0.012 A 
HETATM   27  C   UNL     1      43.416 -16.061   6.413  1.00  0.00     0.013 A 
HETATM   28  C   UNL     1      43.551 -17.826   4.306  1.00  0.00    -0.046 A 
HETATM   29  C   UNL     1      43.239 -16.190   2.752  1.00  0.00    -0.046 A 
HETATM   30  C   UNL     1      43.694 -18.352   5.580  1.00  0.00     0.008 A 
HETATM   31  C   UNL     1      43.590 -18.552   3.007  1.00  0.00     0.044 A 
HETATM   32  C   UNL     1      43.618 -17.439   6.639  1.00  0.00     0.001 A 
HETATM   33  C   UNL     1      43.364 -17.435   1.945  1.00  0.00     0.044 A 
HETATM   34  C   UNL     1      43.046 -14.897   2.300  1.00  0.00     0.009 A 
HETATM   35  C   UNL     1      42.984 -13.899   3.285  1.00  0.00     0.015 A 
ENDBRANCH   5  24
TORSDOF 7
ENDMDL
MODEL 4
REMARK VINA RESULT:      -9.3      7.947     10.477
REMARK  7 active torsions:
REMARK  status: ('A' for Active; 'I' for Inactive)
REMARK    1  A    between atoms: C_2  and  O_3 
REMARK    2  A    between atoms: O_3  and  C_4 
REMARK    3  A    between atoms: C_5  and  O_6 
REMARK    4  A    between atoms: C_9  and  C_10 
REMARK    5  A    between atoms: N_11  and  N_12 
REMARK       I    between atoms: N_12  and  C_13 
REMARK    6  A    between atoms: C_13  and  C_14 
REMARK    7  A    between atoms: C_18  and  C_19 
ROOT
HETATM    1  C   UNL     1      40.481 -13.844   0.193  1.00  0.00     0.121 A 
HETATM    2  N   UNL     1      39.513 -14.795   0.354  1.00  0.00    -0.272 N 
HETATM    3  H   UNL     1      38.580 -14.786  -0.047  1.00  0.00     0.189 HD
HETATM    4  N   UNL     1      39.852 -15.790   1.182  1.00  0.00    -0.174 NA
HETATM    5  C   UNL     1      41.106 -15.509   1.571  1.00  0.00     0.090 A 
HETATM    6  C   UNL     1      41.551 -14.312   0.930  1.00  0.00     0.071 A 
ENDROOT
BRANCH   1   7
HETATM    7  C   UNL     1      40.233 -12.639  -0.558  1.00  0.00     0.289 C 
HETATM    8  N   UNL     1      41.343 -12.143  -1.230  1.00  0.00    -0.242 N 
HETATM    9  H   UNL     1      42.109 -12.777  -1.430  1.00  0.00     0.192 HD
HETATM   10  O   UNL     1      39.125 -12.112  -0.554  1.00  0.00    -0.264 OA
BRANCH   8  11
HETATM   11  N   UNL     1      41.433 -10.941  -1.891  1.00  0.00    -0.184 NA
HETATM   12  C   UNL     1      42.071  -9.980  -1.299  1.00  0.00     0.150 C 
BRANCH  12  13
HETATM   13  C   UNL     1      42.253  -8.652  -1.920  1.00  0.00    -0.014 A 
HETATM   14  C   UNL     1      41.349  -8.263  -2.917  1.00  0.00     0.016 A 
HETATM   15  C   UNL     1      41.455  -6.999  -3.490  1.00  0.00     0.040 A 
HETATM   16  C   UNL     1      42.462  -6.144  -3.060  1.00  0.00     0.099 A 
HETATM   17  C   UNL     1      43.384  -6.524  -2.076  1.00  0.00     0.102 A 
HETATM   18  C   UNL     1      43.274  -7.789  -1.500  1.00  0.00     0.052 A 
BRANCH  16  19
HETATM   19  O   UNL     1      42.536  -4.902  -3.628  1.00  0.00    -0.358 OA
HETATM   20  H   UNL     1      43.459  -4.818  -3.936  1.00  0.00     0.218 HD
ENDBRANCH  16  19
BRANCH  17  21
HETATM   21  O   UNL     1      44.316  -5.568  -1.764  1.00  0.00    -0.349 OA
BRANCH  21  22
HETATM   22  C   UNL     1      44.190  -4.938  -0.490  1.00  0.00     0.171 C 
HETATM   23  C   UNL     1      45.020  -3.667  -0.519  1.00  0.00     0.034 C 
ENDBRANCH  21  22
ENDBRANCH  17  21
ENDBRANCH  12  13
ENDBRANCH   8  11
ENDBRANCH   1   7
BRANCH   5  24
HETATM   24  C   UNL     1      41.827 -16.307   2.578  1.00  0.00     0.005 A 
HETATM   25  C   UNL     1      41.642 -16.139   3.986  1.00  0.00    -0.012 A 
HETATM   26  C   UNL     1      42.432 -16.924   4.795  1.00  0.00    -0.012 A 
HETATM   27  C   UNL     1      40.759 -15.278   4.690  1.00  0.00     0.013 A 
HETATM   28  C   UNL     1      42.417 -16.892   6.178  1.00  0.00    -0.046 A 
HETATM   29  C   UNL     1      43.353 -17.845   4.333  1.00  0.00    -0.046 A 
HETATM   30  C   UNL     1      41.570 -16.044   6.875  1.00  0.00     0.008 A 
HETATM   31  C   UNL     1      43.408 -17.853   6.735  1.00  0.00     0.044 A 
HETATM   32  C   UNL     1      40.731 -15.234   6.100  1.00  0.00     0.001 A 
HETATM   33  C   UNL     1      44.040 -18.514   5.473  1.00  0.00     0.044 A 
HETATM   34  C   UNL     1      43.554 -18.047   2.980  1.00  0.00     0.009 A 
HETATM   35  C   UNL     1      42.779 -17.259   2.114  1.00  0.00     0.015 A 
ENDBRANCH   5  24
TORSDOF 7
ENDMDL
MODEL 5
REMARK VINA RESULT:      -9.2      7.990     10.986
REMARK  7 active torsions:
REMARK  status: ('A' for Active; 'I' for Inactive)
REMARK    1  A    between atoms: C_2  and  O_3 
REMARK    2  A    between atoms: O_3  and  C_4 
REMARK    3  A    between atoms: C_5  and  O_6 
REMARK    4  A    between atoms: C_9  and  C_10 
REMARK    5  A    between atoms: N_11  and  N_12 
REMARK       I    between atoms: N_12  and  C_13 
REMARK    6  A    between atoms: C_13  and  C_14 
REMARK    7  A    between atoms: C_18  and  C_19 
ROOT
HETATM    1  C   UNL     1      40.451 -13.873   0.183  1.00  0.00     0.121 A 
HETATM    2  N   UNL     1      39.549 -14.895   0.271  1.00  0.00    -0.272 N 
HETATM    3  H   UNL     1      38.638 -14.942  -0.177  1.00  0.00     0.189 HD
HETATM    4  N   UNL     1      39.919 -15.886   1.091  1.00  0.00    -0.174 NA
HETATM    5  C   UNL     1      41.128 -15.527   1.549  1.00  0.00     0.090 A 
HETATM    6  C   UNL     1      41.515 -14.283   0.962  1.00  0.00     0.071 A 
ENDROOT
BRANCH   1   7
HETATM    7  C   UNL     1      40.152 -12.668  -0.550  1.00  0.00     0.289 C 
HETATM    8  N   UNL     1      41.238 -12.121  -1.223  1.00  0.00    -0.242 N 
HETATM    9  H   UNL     1      42.026 -12.722  -1.436  1.00  0.00     0.192 HD
HETATM   10  O   UNL     1      39.024 -12.183  -0.532  1.00  0.00    -0.264 OA
BRANCH   8  11
HETATM   11  N   UNL     1      41.277 -10.907  -1.867  1.00  0.00    -0.184 NA
HETATM   12  C   UNL     1      41.931  -9.947  -1.292  1.00  0.00     0.150 C 
BRANCH  12  13
HETATM   13  C   UNL     1      42.063  -8.607  -1.901  1.00  0.00    -0.014 A 
HETATM   14  C   UNL     1      43.157  -7.818  -1.521  1.00  0.00     0.016 A 
HETATM   15  C   UNL     1      43.345  -6.571  -2.111  1.00  0.00     0.040 A 
HETATM   16  C   UNL     1      42.439  -6.130  -3.068  1.00  0.00     0.099 A 
HETATM   17  C   UNL     1      41.331  -6.900  -3.445  1.00  0.00     0.102 A 
HETATM   18  C   UNL     1      41.145  -8.151  -2.857  1.00  0.00     0.052 A 
BRANCH  16  19
HETATM   19  O   UNL     1      42.655  -4.908  -3.643  1.00  0.00    -0.358 OA
HETATM   20  H   UNL     1      42.023  -4.307  -3.203  1.00  0.00     0.218 HD
ENDBRANCH  16  19
BRANCH  17  21
HETATM   21  O   UNL     1      40.532  -6.325  -4.399  1.00  0.00    -0.349 OA
BRANCH  21  22
HETATM   22  C   UNL     1      40.311  -7.077  -5.592  1.00  0.00     0.171 C 
HETATM   23  C   UNL     1      41.444  -6.762  -6.553  1.00  0.00     0.034 C 
ENDBRANCH  21  22
ENDBRANCH  17  21
ENDBRANCH  12  13
ENDBRANCH   8  11
ENDBRANCH   1   7
BRANCH   5  24
HETATM   24  C   UNL     1      41.856 -16.298   2.572  1.00  0.00     0.005 A 
HETATM   25  C   UNL     1      41.644 -16.128   3.976  1.00  0.00    -0.012 A 
HETATM   26  C   UNL     1      42.444 -16.886   4.802  1.00  0.00    -0.012 A 
HETATM   27  C   UNL     1      40.726 -15.289   4.661  1.00  0.00     0.013 A 
HETATM   28  C   UNL     1      42.406 -16.847   6.184  1.00  0.00    -0.046 A 
HETATM   29  C   UNL     1      43.397 -17.783   4.359  1.00  0.00    -0.046 A 
HETATM   30  C   UNL     1      41.525 -16.020   6.863  1.00  0.00     0.008 A 
HETATM   31  C   UNL     1      43.415 -17.777   6.761  1.00  0.00     0.044 A 
HETATM   32  C   UNL     1      40.675 -15.238   6.070  1.00  0.00     0.001 A 
HETATM   33  C   UNL     1      44.085 -18.426   5.513  1.00  0.00     0.044 A 
HETATM   34  C   UNL     1      43.625 -17.986   3.010  1.00  0.00     0.009 A 
HETATM   35  C   UNL     1      42.842 -17.225   2.128  1.00  0.00     0.015 A 
ENDBRANCH   5  24
TORSDOF 7
ENDMDL
MODEL 6
REMARK VINA RESULT:      -9.1      1.588      2.710
REMARK  7 active torsions:
REMARK  status: ('A' for Active; 'I' for Inactive)
REMARK    1  A    between atoms: C_2  and  O_3 
REMARK    2  A    between atoms: O_3  and  C_4 
REMARK    3  A    between atoms: C_5  and  O_6 
REMARK    4  A    between atoms: C_9  and  C_10 
REMARK    5  A    between atoms: N_11  and  N_12 
REMARK       I    between atoms: N_12  and  C_13 
REMARK    6  A    between atoms: C_13  and  C_14 
REMARK    7  A    between atoms: C_18  and  C_19 
ROOT
HETATM    1  C   UNL     1      42.439 -11.685   6.297  1.00  0.00     0.121 A 
HETATM    2  N   UNL     1      41.167 -12.184   6.251  1.00  0.00    -0.272 N 
HETATM    3  H   UNL     1      40.347 -11.800   6.712  1.00  0.00     0.189 HD
HETATM    4  N   UNL     1      41.051 -13.330   5.571  1.00  0.00    -0.174 NA
HETATM    5  C   UNL     1      42.287 -13.596   5.120  1.00  0.00     0.090 A 
HETATM    6  C   UNL     1      43.179 -12.555   5.521  1.00  0.00     0.071 A 
ENDROOT
BRANCH   1   7
HETATM    7  C   UNL     1      42.765 -10.532   7.098  1.00  0.00     0.289 C 
HETATM    8  N   UNL     1      43.130 -10.826   8.406  1.00  0.00    -0.242 N 
HETATM    9  H   UNL     1      43.459 -11.761   8.616  1.00  0.00     0.192 HD
HETATM   10  O   UNL     1      42.687  -9.399   6.631  1.00  0.00    -0.264 OA
BRANCH   8  11
HETATM   11  N   UNL     1      43.342  -9.923   9.421  1.00  0.00    -0.184 NA
HETATM   12  C   UNL     1      42.298  -9.370   9.955  1.00  0.00     0.150 C 
BRANCH  12  13
HETATM   13  C   UNL     1      42.399  -8.404  11.068  1.00  0.00    -0.014 A 
HETATM   14  C   UNL     1      42.919  -8.857  12.287  1.00  0.00     0.016 A 
HETATM   15  C   UNL     1      43.080  -7.965  13.344  1.00  0.00     0.040 A 
HETATM   16  C   UNL     1      42.717  -6.636  13.169  1.00  0.00     0.099 A 
HETATM   17  C   UNL     1      42.179  -6.170  11.961  1.00  0.00     0.102 A 
HETATM   18  C   UNL     1      42.023  -7.063  10.902  1.00  0.00     0.052 A 
BRANCH  16  19
HETATM   19  O   UNL     1      42.898  -5.777  14.217  1.00  0.00    -0.358 OA
HETATM   20  H   UNL     1      43.650  -5.212  13.955  1.00  0.00     0.218 HD
ENDBRANCH  16  19
BRANCH  17  21
HETATM   21  O   UNL     1      41.871  -4.835  11.949  1.00  0.00    -0.349 OA
BRANCH  21  22
HETATM   22  C   UNL     1      42.670  -3.998  11.113  1.00  0.00     0.171 C 
HETATM   23  C   UNL     1      42.788  -2.644  11.792  1.00  0.00     0.034 C 
ENDBRANCH  21  22
ENDBRANCH  17  21
ENDBRANCH  12  13
ENDBRANCH   8  11
ENDBRANCH   1   7
BRANCH   5  24
HETATM   24  C   UNL     1      42.624 -14.837   4.400  1.00  0.00     0.005 A 
HETATM   25  C   UNL     1      42.943 -16.063   5.066  1.00  0.00    -0.012 A 
HETATM   26  C   UNL     1      43.290 -17.117   4.251  1.00  0.00    -0.012 A 
HETATM   27  C   UNL     1      42.957 -16.366   6.453  1.00  0.00     0.013 A 
HETATM   28  C   UNL     1      43.652 -18.374   4.703  1.00  0.00    -0.046 A 
HETATM   29  C   UNL     1      43.332 -17.058   2.872  1.00  0.00    -0.046 A 
HETATM   30  C   UNL     1      43.684 -18.676   6.056  1.00  0.00     0.008 A 
HETATM   31  C   UNL     1      43.984 -19.266   3.559  1.00  0.00     0.044 A 
HETATM   32  C   UNL     1      43.323 -17.643   6.930  1.00  0.00     0.001 A 
HETATM   33  C   UNL     1      43.753 -18.370   2.305  1.00  0.00     0.044 A 
HETATM   34  C   UNL     1      43.019 -15.896   2.189  1.00  0.00     0.009 A 
HETATM   35  C   UNL     1      42.670 -14.789   2.978  1.00  0.00     0.015 A 
ENDBRANCH   5  24
TORSDOF 7
ENDMDL
MODEL 7
REMARK VINA RESULT:      -9.1      1.791      3.094
REMARK  7 active torsions:
REMARK  status: ('A' for Active; 'I' for Inactive)
REMARK    1  A    between atoms: C_2  and  O_3 
REMARK    2  A    between atoms: O_3  and  C_4 
REMARK    3  A    between atoms: C_5  and  O_6 
REMARK    4  A    between atoms: C_9  and  C_10 
REMARK    5  A    between atoms: N_11  and  N_12 
REMARK       I    between atoms: N_12  and  C_13 
REMARK    6  A    between atoms: C_13  and  C_14 
REMARK    7  A    between atoms: C_18  and  C_19 
ROOT
HETATM    1  C   UNL     1      42.877 -12.827   6.036  1.00  0.00     0.121 A 
HETATM    2  N   UNL     1      43.720 -13.547   6.835  1.00  0.00    -0.272 N 
HETATM    3  H   UNL     1      44.198 -13.215   7.668  1.00  0.00     0.189 HD
HETATM    4  N   UNL     1      43.956 -14.792   6.405  1.00  0.00    -0.174 NA
HETATM    5  C   UNL     1      43.224 -14.921   5.288  1.00  0.00     0.090 A 
HETATM    6  C   UNL     1      42.494 -13.715   5.049  1.00  0.00     0.071 A 
ENDROOT
BRANCH   1   7
HETATM    7  C   UNL     1      42.620 -11.430   6.280  1.00  0.00     0.289 C 
HETATM    8  N   UNL     1      42.945 -11.003   7.561  1.00  0.00    -0.242 N 
HETATM    9  H   UNL     1      43.608 -11.549   8.099  1.00  0.00     0.192 HD
HETATM   10  O   UNL     1      42.129 -10.719   5.409  1.00  0.00    -0.264 OA
BRANCH   8  11
HETATM   11  N   UNL     1      42.667  -9.773   8.111  1.00  0.00    -0.184 NA
HETATM   12  C   UNL     1      43.115  -9.538   9.305  1.00  0.00     0.150 C 
BRANCH  12  13
HETATM   13  C   UNL     1      42.900  -8.245   9.988  1.00  0.00    -0.014 A 
HETATM   14  C   UNL     1      43.068  -7.071   9.243  1.00  0.00     0.016 A 
HETATM   15  C   UNL     1      42.823  -5.836   9.836  1.00  0.00     0.040 A 
HETATM   16  C   UNL     1      42.417  -5.791  11.164  1.00  0.00     0.099 A 
HETATM   17  C   UNL     1      42.261  -6.956  11.928  1.00  0.00     0.102 A 
HETATM   18  C   UNL     1      42.502  -8.193  11.331  1.00  0.00     0.052 A 
BRANCH  16  19
HETATM   19  O   UNL     1      42.169  -4.566  11.719  1.00  0.00    -0.358 OA
HETATM   20  H   UNL     1      42.664  -3.932  11.165  1.00  0.00     0.218 HD
ENDBRANCH  16  19
BRANCH  17  21
HETATM   21  O   UNL     1      41.857  -6.743  13.220  1.00  0.00    -0.349 OA
BRANCH  21  22
HETATM   22  C   UNL     1      42.214  -7.739  14.178  1.00  0.00     0.171 C 
HETATM   23  C   UNL     1      42.557  -7.029  15.476  1.00  0.00     0.034 C 
ENDBRANCH  21  22
ENDBRANCH  17  21
ENDBRANCH  12  13
ENDBRANCH   8  11
ENDBRANCH   1   7
BRANCH   5  24
HETATM   24  C   UNL     1      43.277 -16.119   4.432  1.00  0.00     0.005 A 
HETATM   25  C   UNL     1      43.418 -17.444   4.952  1.00  0.00    -0.012 A 
HETATM   26  C   UNL     1      43.507 -18.451   4.017  1.00  0.00    -0.012 A 
HETATM   27  C   UNL     1      43.483 -17.889   6.299  1.00  0.00     0.013 A 
HETATM   28  C   UNL     1      43.669 -19.791   4.319  1.00  0.00    -0.046 A 
HETATM   29  C   UNL     1      43.453 -18.256   2.651  1.00  0.00    -0.046 A 
HETATM   30  C   UNL     1      43.749 -20.235   5.631  1.00  0.00     0.008 A 
HETATM   31  C   UNL     1      43.746 -20.603   3.074  1.00  0.00     0.044 A 
HETATM   32  C   UNL     1      43.647 -19.252   6.623  1.00  0.00     0.001 A 
HETATM   33  C   UNL     1      43.587 -19.554   1.932  1.00  0.00     0.044 A 
HETATM   34  C   UNL     1      43.305 -16.993   2.107  1.00  0.00     0.009 A 
HETATM   35  C   UNL     1      43.223 -15.931   3.021  1.00  0.00     0.015 A 
ENDBRANCH   5  24
TORSDOF 7
ENDMDL
MODEL 8
REMARK VINA RESULT:      -9.0      8.347     11.155
REMARK  7 active torsions:
REMARK  status: ('A' for Active; 'I' for Inactive)
REMARK    1  A    between atoms: C_2  and  O_3 
REMARK    2  A    between atoms: O_3  and  C_4 
REMARK    3  A    between atoms: C_5  and  O_6 
REMARK    4  A    between atoms: C_9  and  C_10 
REMARK    5  A    between atoms: N_11  and  N_12 
REMARK       I    between atoms: N_12  and  C_13 
REMARK    6  A    between atoms: C_13  and  C_14 
REMARK    7  A    between atoms: C_18  and  C_19 
ROOT
HETATM    1  C   UNL     1      40.558 -13.888   0.013  1.00  0.00     0.121 A 
HETATM    2  N   UNL     1      39.694 -14.940   0.127  1.00  0.00    -0.272 N 
HETATM    3  H   UNL     1      38.919 -15.159  -0.493  1.00  0.00     0.189 HD
HETATM    4  N   UNL     1      39.887 -15.695   1.214  1.00  0.00    -0.174 NA
HETATM    5  C   UNL     1      40.939 -15.145   1.840  1.00  0.00     0.090 A 
HETATM    6  C   UNL     1      41.417 -14.029   1.086  1.00  0.00     0.071 A 
ENDROOT
BRANCH   1   7
HETATM    7  C   UNL     1      40.407 -12.899  -1.025  1.00  0.00     0.289 C 
HETATM    8  N   UNL     1      41.220 -11.782  -0.876  1.00  0.00    -0.242 N 
HETATM    9  H   UNL     1      42.050 -11.863  -0.301  1.00  0.00     0.192 HD
HETATM   10  O   UNL     1      39.595 -13.058  -1.932  1.00  0.00    -0.264 OA
BRANCH   8  11
HETATM   11  N   UNL     1      41.176 -10.630  -1.625  1.00  0.00    -0.184 NA
HETATM   12  C   UNL     1      42.045  -9.707  -1.353  1.00  0.00     0.150 C 
BRANCH  12  13
HETATM   13  C   UNL     1      42.110  -8.437  -2.105  1.00  0.00    -0.014 A 
HETATM   14  C   UNL     1      43.155  -7.551  -1.811  1.00  0.00     0.016 A 
HETATM   15  C   UNL     1      43.281  -6.369  -2.534  1.00  0.00     0.040 A 
HETATM   16  C   UNL     1      42.363  -6.087  -3.537  1.00  0.00     0.099 A 
HETATM   17  C   UNL     1      41.302  -6.954  -3.832  1.00  0.00     0.102 A 
HETATM   18  C   UNL     1      41.179  -8.141  -3.110  1.00  0.00     0.052 A 
BRANCH  16  19
HETATM   19  O   UNL     1      42.517  -4.926  -4.242  1.00  0.00    -0.358 OA
HETATM   20  H   UNL     1      41.736  -4.878  -4.827  1.00  0.00     0.218 HD
ENDBRANCH  16  19
BRANCH  17  21
HETATM   21  O   UNL     1      40.483  -6.533  -4.847  1.00  0.00    -0.349 OA
BRANCH  21  22
HETATM   22  C   UNL     1      40.371  -7.391  -5.981  1.00  0.00     0.171 C 
HETATM   23  C   UNL     1      41.381  -6.924  -7.015  1.00  0.00     0.034 C 
ENDBRANCH  21  22
ENDBRANCH  17  21
ENDBRANCH  12  13
ENDBRANCH   8  11
ENDBRANCH   1   7
BRANCH   5  24
HETATM   24  C   UNL     1      41.424 -15.614   3.149  1.00  0.00     0.005 A 
HETATM   25  C   UNL     1      42.357 -16.689   3.297  1.00  0.00    -0.012 A 
HETATM   26  C   UNL     1      42.667 -17.042   4.591  1.00  0.00    -0.012 A 
HETATM   27  C   UNL     1      43.021 -17.458   2.306  1.00  0.00     0.013 A 
HETATM   28  C   UNL     1      43.528 -18.067   4.941  1.00  0.00    -0.046 A 
HETATM   29  C   UNL     1      42.154 -16.424   5.715  1.00  0.00    -0.046 A 
HETATM   30  C   UNL     1      44.169 -18.835   3.981  1.00  0.00     0.008 A 
HETATM   31  C   UNL     1      43.622 -18.190   6.421  1.00  0.00     0.044 A 
HETATM   32  C   UNL     1      43.902 -18.506   2.646  1.00  0.00     0.001 A 
HETATM   33  C   UNL     1      42.691 -17.058   6.951  1.00  0.00     0.044 A 
HETATM   34  C   UNL     1      41.259 -15.374   5.616  1.00  0.00     0.009 A 
HETATM   35  C   UNL     1      40.902 -14.985   4.315  1.00  0.00     0.015 A 
ENDBRANCH   5  24
TORSDOF 7
ENDMDL
MODEL 9
REMARK VINA RESULT:      -8.8      7.822     10.542
REMARK  7 active torsions:
REMARK  status: ('A' for Active; 'I' for Inactive)
REMARK    1  A    between atoms: C_2  and  O_3 
REMARK    2  A    between atoms: O_3  and  C_4 
REMARK    3  A    between atoms: C_5  and  O_6 
REMARK    4  A    between atoms: C_9  and  C_10 
REMARK    5  A    between atoms: N_11  and  N_12 
REMARK       I    between atoms: N_12  and  C_13 
REMARK    6  A    between atoms: C_13  and  C_14 
REMARK    7  A    between atoms: C_18  and  C_19 
ROOT
HETATM    1  C   UNL     1      40.652 -13.349   0.305  1.00  0.00     0.121 A 
HETATM    2  N   UNL     1      39.471 -13.843   0.786  1.00  0.00    -0.272 N 
HETATM    3  H   UNL     1      38.545 -13.688   0.398  1.00  0.00     0.189 HD
HETATM    4  N   UNL     1      39.590 -14.544   1.920  1.00  0.00    -0.174 NA
HETATM    5  C   UNL     1      40.903 -14.544   2.195  1.00  0.00     0.090 A 
HETATM    6  C   UNL     1      41.609 -13.838   1.173  1.00  0.00     0.071 A 
ENDROOT
BRANCH   1   7
HETATM    7  C   UNL     1      40.689 -12.463  -0.831  1.00  0.00     0.289 C 
HETATM    8  N   UNL     1      41.232 -11.212  -0.564  1.00  0.00    -0.242 N 
HETATM    9  H   UNL     1      41.838 -11.110   0.241  1.00  0.00     0.192 HD
HETATM   10  O   UNL     1      40.241 -12.814  -1.918  1.00  0.00    -0.264 OA
BRANCH   8  11
HETATM   11  N   UNL     1      41.251 -10.129  -1.412  1.00  0.00    -0.184 NA
HETATM   12  C   UNL     1      42.190  -9.252  -1.237  1.00  0.00     0.150 C 
BRANCH  12  13
HETATM   13  C   UNL     1      42.327  -8.060  -2.101  1.00  0.00    -0.014 A 
HETATM   14  C   UNL     1      42.017  -8.194  -3.460  1.00  0.00     0.016 A 
HETATM   15  C   UNL     1      42.083  -7.083  -4.296  1.00  0.00     0.040 A 
HETATM   16  C   UNL     1      42.460  -5.857  -3.763  1.00  0.00     0.099 A 
HETATM   17  C   UNL     1      42.790  -5.710  -2.409  1.00  0.00     0.102 A 
HETATM   18  C   UNL     1      42.719  -6.823  -1.572  1.00  0.00     0.052 A 
BRANCH  16  19
HETATM   19  O   UNL     1      42.503  -4.777  -4.602  1.00  0.00    -0.358 OA
HETATM   20  H   UNL     1      41.961  -4.093  -4.162  1.00  0.00     0.218 HD
ENDBRANCH  16  19
BRANCH  17  21
HETATM   21  O   UNL     1      43.142  -4.438  -2.039  1.00  0.00    -0.349 OA
BRANCH  21  22
HETATM   22  C   UNL     1      43.633  -4.267  -0.710  1.00  0.00     0.171 C 
HETATM   23  C   UNL     1      45.069  -3.781  -0.807  1.00  0.00     0.034 C 
ENDBRANCH  21  22
ENDBRANCH  17  21
ENDBRANCH  12  13
ENDBRANCH   8  11
ENDBRANCH   1   7
BRANCH   5  24
HETATM   24  C   UNL     1      41.460 -15.126   3.429  1.00  0.00     0.005 A 
HETATM   25  C   UNL     1      42.289 -16.291   3.438  1.00  0.00    -0.012 A 
HETATM   26  C   UNL     1      42.683 -16.740   4.678  1.00  0.00    -0.012 A 
HETATM   27  C   UNL     1      42.775 -17.068   2.353  1.00  0.00     0.013 A 
HETATM   28  C   UNL     1      43.465 -17.861   4.896  1.00  0.00    -0.046 A 
HETATM   29  C   UNL     1      42.344 -16.136   5.873  1.00  0.00    -0.046 A 
HETATM   30  C   UNL     1      43.932 -18.635   3.845  1.00  0.00     0.008 A 
HETATM   31  C   UNL     1      43.686 -18.069   6.353  1.00  0.00     0.044 A 
HETATM   32  C   UNL     1      43.574 -18.213   2.558  1.00  0.00     0.001 A 
HETATM   33  C   UNL     1      42.928 -16.883   7.021  1.00  0.00     0.044 A 
HETATM   34  C   UNL     1      41.554 -15.000   5.908  1.00  0.00     0.009 A 
HETATM   35  C   UNL     1      41.117 -14.511   4.667  1.00  0.00     0.015 A 
ENDBRANCH   5  24
TORSDOF 7
ENDMDL
MODEL 10
REMARK VINA RESULT:      -8.4      2.723      4.018
REMARK  7 active torsions:
REMARK  status: ('A' for Active; 'I' for Inactive)
REMARK    1  A    between atoms: C_2  and  O_3 
REMARK    2  A    between atoms: O_3  and  C_4 
REMARK    3  A    between atoms: C_5  and  O_6 
REMARK    4  A    between atoms: C_9  and  C_10 
REMARK    5  A    between atoms: N_11  and  N_12 
REMARK       I    between atoms: N_12  and  C_13 
REMARK    6  A    between atoms: C_13  and  C_14 
REMARK    7  A    between atoms: C_18  and  C_19 
ROOT
HETATM    1  C   UNL     1      43.412 -13.262   6.604  1.00  0.00     0.121 A 
HETATM    2  N   UNL     1      43.012 -14.245   7.465  1.00  0.00    -0.272 N 
HETATM    3  H   UNL     1      42.861 -14.151   8.465  1.00  0.00     0.189 HD
HETATM    4  N   UNL     1      42.880 -15.450   6.900  1.00  0.00    -0.174 NA
HETATM    5  C   UNL     1      43.176 -15.263   5.604  1.00  0.00     0.090 A 
HETATM    6  C   UNL     1      43.473 -13.884   5.373  1.00  0.00     0.071 A 
ENDROOT
BRANCH   1   7
HETATM    7  C   UNL     1      43.731 -11.936   7.072  1.00  0.00     0.289 C 
HETATM    8  N   UNL     1      42.625 -11.170   7.420  1.00  0.00    -0.242 N 
HETATM    9  H   UNL     1      41.758 -11.645   7.642  1.00  0.00     0.192 HD
HETATM   10  O   UNL     1      44.894 -11.547   7.118  1.00  0.00    -0.264 OA
BRANCH   8  11
HETATM   11  N   UNL     1      42.623  -9.834   7.749  1.00  0.00    -0.184 NA
HETATM   12  C   UNL     1      41.900  -9.041   7.022  1.00  0.00     0.150 C 
BRANCH  12  13
HETATM   13  C   UNL     1      41.800  -7.592   7.293  1.00  0.00    -0.014 A 
HETATM   14  C   UNL     1      41.726  -6.722   6.198  1.00  0.00     0.016 A 
HETATM   15  C   UNL     1      41.577  -5.354   6.412  1.00  0.00     0.040 A 
HETATM   16  C   UNL     1      41.508  -4.877   7.715  1.00  0.00     0.099 A 
HETATM   17  C   UNL     1      41.597  -5.733   8.821  1.00  0.00     0.102 A 
HETATM   18  C   UNL     1      41.741  -7.103   8.605  1.00  0.00     0.052 A 
BRANCH  16  19
HETATM   19  O   UNL     1      41.347  -3.531   7.898  1.00  0.00    -0.358 OA
HETATM   20  H   UNL     1      40.723  -3.450   8.645  1.00  0.00     0.218 HD
ENDBRANCH  16  19
BRANCH  17  21
HETATM   21  O   UNL     1      41.513  -5.107  10.038  1.00  0.00    -0.349 OA
BRANCH  21  22
HETATM   22  C   UNL     1      41.313  -5.942  11.178  1.00  0.00     0.171 C 
HETATM   23  C   UNL     1      42.180  -5.405  12.303  1.00  0.00     0.034 C 
ENDBRANCH  21  22
ENDBRANCH  17  21
ENDBRANCH  12  13
ENDBRANCH   8  11
ENDBRANCH   1   7
BRANCH   5  24
HETATM   24  C   UNL     1      43.253 -16.370   4.635  1.00  0.00     0.005 A 
HETATM   25  C   UNL     1      43.423 -17.737   5.022  1.00  0.00    -0.012 A 
HETATM   26  C   UNL     1      43.531 -18.645   3.993  1.00  0.00    -0.012 A 
HETATM   27  C   UNL     1      43.497 -18.311   6.319  1.00  0.00     0.013 A 
HETATM   28  C   UNL     1      43.722 -20.005   4.163  1.00  0.00    -0.046 A 
HETATM   29  C   UNL     1      43.473 -18.318   2.652  1.00  0.00    -0.046 A 
HETATM   30  C   UNL     1      43.812 -20.573   5.424  1.00  0.00     0.008 A 
HETATM   31  C   UNL     1      43.815 -20.688   2.844  1.00  0.00     0.044 A 
HETATM   32  C   UNL     1      43.691 -19.695   6.508  1.00  0.00     0.001 A 
HETATM   33  C   UNL     1      43.633 -19.536   1.810  1.00  0.00     0.044 A 
HETATM   34  C   UNL     1      43.298 -17.011   2.235  1.00  0.00     0.009 A 
HETATM   35  C   UNL     1      43.194 -16.046   3.250  1.00  0.00     0.015 A 
ENDBRANCH   5  24
TORSDOF 7
ENDMDL
