MODEL 1
REMARK VINA RESULT:      -7.6      0.000      0.000
REMARK  10 active torsions:
REMARK  status: ('A' for Active; 'I' for Inactive)
REMARK    1  A    between atoms: C_2  and  N_3 
REMARK    2  A    between atoms: N_7  and  C_8 
REMARK    3  A    between atoms: C_8  and  C_9 
REMARK    4  A    between atoms: C_9  and  N_10 
REMARK    5  A    between atoms: N_10  and  C_11 
REMARK    6  A    between atoms: C_13  and  C_14 
REMARK    7  A    between atoms: C_14  and  N_15 
REMARK    8  A    between atoms: C_23  and  C_24 
REMARK    9  A    between atoms: C_24  and  O_25 
REMARK   10  A    between atoms: O_25  and  C_26 
ROOT
HETATM    1  C   UNL     1      42.634 -14.180   4.191  1.00  0.00     0.139 A 
HETATM    2  N   UNL     1      42.743 -13.038   4.919  1.00  0.00    -0.214 NA
HETATM    3  C   UNL     1      43.299 -13.077   6.139  1.00  0.00     0.155 A 
HETATM    4  N   UNL     1      43.775 -14.163   6.759  1.00  0.00    -0.224 NA
HETATM    5  C   UNL     1      43.633 -15.283   6.034  1.00  0.00     0.115 A 
HETATM    6  C   UNL     1      43.084 -15.393   4.768  1.00  0.00     0.053 A 
HETATM    7  S   UNL     1      44.159 -16.758   6.670  1.00  0.00    -0.063 SA
HETATM    8  C   UNL     1      43.619 -17.638   5.303  1.00  0.00     0.089 A 
HETATM    9  C   UNL     1      43.052 -16.791   4.345  1.00  0.00    -0.022 A 
HETATM   10  C   UNL     1      42.451 -17.257   3.051  1.00  0.00     0.051 C 
ENDROOT
BRANCH   1  11
HETATM   11  N   UNL     1      42.063 -14.120   2.928  1.00  0.00    -0.372 N 
HETATM   12  H   UNL     1      42.703 -13.851   2.186  1.00  0.00     0.161 HD
BRANCH  11  13
HETATM   13  C   UNL     1      40.698 -13.636   2.801  1.00  0.00     0.156 C 
BRANCH  13  14
HETATM   14  C   UNL     1      40.044 -14.090   1.451  1.00  0.00     0.236 C 
HETATM   15  C   UNL     1      39.914 -15.627   1.465  1.00  0.00     0.044 C 
BRANCH  14  16
HETATM   16  N   UNL     1      40.758 -13.573   0.240  1.00  0.00     0.097 N 
HETATM   17  C   UNL     1      40.812 -12.093   0.187  1.00  0.00     0.300 C 
HETATM   18  C   UNL     1      39.464 -11.392  -0.107  1.00  0.00     0.265 C 
HETATM   19  N   UNL     1      38.821 -11.941  -1.373  1.00  0.00    -0.068 N 
HETATM   20  H   UNL     1      39.418 -11.653  -2.162  1.00  0.00     0.280 HD
HETATM   21  C   UNL     1      38.803 -13.470  -1.389  1.00  0.00     0.265 C 
HETATM   22  C   UNL     1      40.195 -14.040  -1.050  1.00  0.00     0.300 C 
BRANCH  19  23
HETATM   23  C   UNL     1      37.431 -11.395  -1.633  1.00  0.00     0.230 C 
HETATM   24  C   UNL     1      37.368 -10.626  -2.938  1.00  0.00     0.034 C 
ENDBRANCH  19  23
ENDBRANCH  14  16
ENDBRANCH  13  14
ENDBRANCH  11  13
ENDBRANCH   1  11
BRANCH   3  25
HETATM   25  C   UNL     1      43.403 -11.777   6.922  1.00  0.00     0.314 C 
BRANCH  25  26
HETATM   26  N   UNL     1      44.800 -11.500   7.484  1.00  0.00    -0.072 N 
HETATM   27  H   UNL     1      45.064 -12.387   7.946  1.00  0.00     0.279 HD
HETATM   28  C   UNL     1      45.823 -11.274   6.410  1.00  0.00     0.269 C 
HETATM   29  C   UNL     1      44.803 -10.418   8.515  1.00  0.00     0.269 C 
ENDBRANCH  25  26
ENDBRANCH   3  25
BRANCH   8  30
HETATM   30  C   UNL     1      43.784 -19.090   5.249  1.00  0.00     0.300 C 
HETATM   31  O   UNL     1      43.458 -19.864   6.141  1.00  0.00    -0.259 OA
BRANCH  30  32
HETATM   32  O   UNL     1      44.381 -19.476   4.084  1.00  0.00    -0.317 OA
BRANCH  32  33
HETATM   33  C   UNL     1      43.882 -20.674   3.470  1.00  0.00     0.174 C 
HETATM   34  C   UNL     1      43.655 -20.433   1.989  1.00  0.00     0.034 C 
ENDBRANCH  32  33
ENDBRANCH  30  32
ENDBRANCH   8  30
TORSDOF 10
ENDMDL
MODEL 2
REMARK VINA RESULT:      -7.5      1.043      1.763
REMARK  10 active torsions:
REMARK  status: ('A' for Active; 'I' for Inactive)
REMARK    1  A    between atoms: C_2  and  N_3 
REMARK    2  A    between atoms: N_7  and  C_8 
REMARK    3  A    between atoms: C_8  and  C_9 
REMARK    4  A    between atoms: C_9  and  N_10 
REMARK    5  A    between atoms: N_10  and  C_11 
REMARK    6  A    between atoms: C_13  and  C_14 
REMARK    7  A    between atoms: C_14  and  N_15 
REMARK    8  A    between atoms: C_23  and  C_24 
REMARK    9  A    between atoms: C_24  and  O_25 
REMARK   10  A    between atoms: O_25  and  C_26 
ROOT
HETATM    1  C   UNL     1      42.561 -13.941   4.583  1.00  0.00     0.139 A 
HETATM    2  N   UNL     1      42.778 -12.845   5.354  1.00  0.00    -0.214 NA
HETATM    3  C   UNL     1      43.489 -12.957   6.487  1.00  0.00     0.155 A 
HETATM    4  N   UNL     1      44.031 -14.079   6.974  1.00  0.00    -0.224 NA
HETATM    5  C   UNL     1      43.783 -15.154   6.210  1.00  0.00     0.115 A 
HETATM    6  C   UNL     1      43.070 -15.188   5.024  1.00  0.00     0.053 A 
HETATM    7  S   UNL     1      44.373 -16.665   6.685  1.00  0.00    -0.063 SA
HETATM    8  C   UNL     1      43.648 -17.462   5.352  1.00  0.00     0.089 A 
HETATM    9  C   UNL     1      42.969 -16.558   4.528  1.00  0.00    -0.022 A 
HETATM   10  C   UNL     1      42.197 -16.946   3.300  1.00  0.00     0.051 C 
ENDROOT
BRANCH   1  11
HETATM   11  N   UNL     1      41.829 -13.806   3.412  1.00  0.00    -0.372 N 
HETATM   12  H   UNL     1      41.195 -14.576   3.217  1.00  0.00     0.161 HD
BRANCH  11  13
HETATM   13  C   UNL     1      42.467 -13.194   2.257  1.00  0.00     0.156 C 
BRANCH  13  14
HETATM   14  C   UNL     1      41.419 -12.526   1.302  1.00  0.00     0.236 C 
HETATM   15  C   UNL     1      41.505 -10.996   1.477  1.00  0.00     0.044 C 
BRANCH  14  16
HETATM   16  N   UNL     1      40.029 -13.058   1.477  1.00  0.00     0.097 N 
HETATM   17  C   UNL     1      39.871 -14.442   0.969  1.00  0.00     0.300 C 
HETATM   18  C   UNL     1      39.909 -14.588  -0.572  1.00  0.00     0.265 C 
HETATM   19  N   UNL     1      38.901 -13.663  -1.239  1.00  0.00    -0.068 N 
HETATM   20  H   UNL     1      37.964 -14.009  -0.989  1.00  0.00     0.280 HD
HETATM   21  C   UNL     1      38.988 -12.236  -0.698  1.00  0.00     0.265 C 
HETATM   22  C   UNL     1      38.972 -12.232   0.845  1.00  0.00     0.300 C 
BRANCH  19  23
HETATM   23  C   UNL     1      38.994 -13.658  -2.753  1.00  0.00     0.230 C 
HETATM   24  C   UNL     1      38.357 -14.895  -3.355  1.00  0.00     0.034 C 
ENDBRANCH  19  23
ENDBRANCH  14  16
ENDBRANCH  13  14
ENDBRANCH  11  13
ENDBRANCH   1  11
BRANCH   3  25
HETATM   25  C   UNL     1      43.710 -11.706   7.323  1.00  0.00     0.314 C 
BRANCH  25  26
HETATM   26  N   UNL     1      45.181 -11.414   7.630  1.00  0.00    -0.072 N 
HETATM   27  H   UNL     1      45.538 -12.306   8.013  1.00  0.00     0.279 HD
HETATM   28  C   UNL     1      45.989 -11.144   6.394  1.00  0.00     0.269 C 
HETATM   29  C   UNL     1      45.355 -10.356   8.671  1.00  0.00     0.269 C 
ENDBRANCH  25  26
ENDBRANCH   3  25
BRANCH   8  30
HETATM   30  C   UNL     1      43.789 -18.909   5.193  1.00  0.00     0.300 C 
HETATM   31  O   UNL     1      43.538 -19.735   6.062  1.00  0.00    -0.259 OA
BRANCH  30  32
HETATM   32  O   UNL     1      44.269 -19.224   3.955  1.00  0.00    -0.317 OA
BRANCH  32  33
HETATM   33  C   UNL     1      43.833 -20.472   3.393  1.00  0.00     0.174 C 
HETATM   34  C   UNL     1      43.306 -20.244   1.989  1.00  0.00     0.034 C 
ENDBRANCH  32  33
ENDBRANCH  30  32
ENDBRANCH   8  30
TORSDOF 10
ENDMDL
MODEL 3
REMARK VINA RESULT:      -7.4      2.205      6.615
REMARK  10 active torsions:
REMARK  status: ('A' for Active; 'I' for Inactive)
REMARK    1  A    between atoms: C_2  and  N_3 
REMARK    2  A    between atoms: N_7  and  C_8 
REMARK    3  A    between atoms: C_8  and  C_9 
REMARK    4  A    between atoms: C_9  and  N_10 
REMARK    5  A    between atoms: N_10  and  C_11 
REMARK    6  A    between atoms: C_13  and  C_14 
REMARK    7  A    between atoms: C_14  and  N_15 
REMARK    8  A    between atoms: C_23  and  C_24 
REMARK    9  A    between atoms: C_24  and  O_25 
REMARK   10  A    between atoms: O_25  and  C_26 
ROOT
HETATM    1  C   UNL     1      40.198 -14.026   3.024  1.00  0.00     0.139 A 
HETATM    2  N   UNL     1      39.940 -13.597   1.761  1.00  0.00    -0.214 NA
HETATM    3  C   UNL     1      40.649 -14.089   0.733  1.00  0.00     0.155 A 
HETATM    4  N   UNL     1      41.635 -14.990   0.810  1.00  0.00    -0.224 NA
HETATM    5  C   UNL     1      41.891 -15.380   2.069  1.00  0.00     0.115 A 
HETATM    6  C   UNL     1      41.243 -14.962   3.219  1.00  0.00     0.053 A 
HETATM    7  S   UNL     1      43.122 -16.501   2.358  1.00  0.00    -0.063 SA
HETATM    8  C   UNL     1      42.896 -16.439   4.055  1.00  0.00     0.089 A 
HETATM    9  C   UNL     1      41.855 -15.570   4.398  1.00  0.00    -0.022 A 
HETATM   10  C   UNL     1      41.433 -15.266   5.806  1.00  0.00     0.051 C 
ENDROOT
BRANCH   1  11
HETATM   11  N   UNL     1      39.450 -13.512   4.074  1.00  0.00    -0.372 N 
HETATM   12  H   UNL     1      38.643 -14.073   4.333  1.00  0.00     0.161 HD
BRANCH  11  13
HETATM   13  C   UNL     1      39.287 -12.071   4.175  1.00  0.00     0.156 C 
BRANCH  13  14
HETATM   14  C   UNL     1      40.159 -11.468   5.330  1.00  0.00     0.236 C 
HETATM   15  C   UNL     1      39.219 -11.020   6.467  1.00  0.00     0.044 C 
BRANCH  14  16
HETATM   16  N   UNL     1      41.083 -10.382   4.872  1.00  0.00     0.097 N 
HETATM   17  C   UNL     1      42.125 -10.865   3.935  1.00  0.00     0.300 C 
HETATM   18  C   UNL     1      43.221 -11.756   4.568  1.00  0.00     0.265 C 
HETATM   19  N   UNL     1      43.866 -11.071   5.765  1.00  0.00    -0.068 N 
HETATM   20  H   UNL     1      44.393 -10.265   5.402  1.00  0.00     0.280 HD
HETATM   21  C   UNL     1      42.824 -10.501   6.728  1.00  0.00     0.265 C 
HETATM   22  C   UNL     1      41.775  -9.662   5.969  1.00  0.00     0.300 C 
BRANCH  19  23
HETATM   23  C   UNL     1      44.845 -11.955   6.513  1.00  0.00     0.230 C 
HETATM   24  C   UNL     1      44.268 -13.334   6.771  1.00  0.00     0.034 C 
ENDBRANCH  19  23
ENDBRANCH  14  16
ENDBRANCH  13  14
ENDBRANCH  11  13
ENDBRANCH   1  11
BRANCH   3  25
HETATM   25  C   UNL     1      40.330 -13.584  -0.665  1.00  0.00     0.314 C 
BRANCH  25  26
HETATM   26  N   UNL     1      38.916 -13.924  -1.143  1.00  0.00    -0.072 N 
HETATM   27  H   UNL     1      38.465 -14.342  -0.311  1.00  0.00     0.279 HD
HETATM   28  C   UNL     1      38.108 -12.705  -1.479  1.00  0.00     0.269 C 
HETATM   29  C   UNL     1      38.905 -14.940  -2.239  1.00  0.00     0.269 C 
ENDBRANCH  25  26
ENDBRANCH   3  25
BRANCH   8  30
HETATM   30  C   UNL     1      43.741 -17.239   4.941  1.00  0.00     0.300 C 
HETATM   31  O   UNL     1      44.699 -16.808   5.571  1.00  0.00    -0.259 OA
BRANCH  30  32
HETATM   32  O   UNL     1      43.344 -18.546   4.953  1.00  0.00    -0.317 OA
BRANCH  32  33
HETATM   33  C   UNL     1      44.324 -19.520   4.564  1.00  0.00     0.174 C 
HETATM   34  C   UNL     1      44.047 -20.834   5.271  1.00  0.00     0.034 C 
ENDBRANCH  32  33
ENDBRANCH  30  32
ENDBRANCH   8  30
TORSDOF 10
ENDMDL
MODEL 4
REMARK VINA RESULT:      -7.3      4.256      9.048
REMARK  10 active torsions:
REMARK  status: ('A' for Active; 'I' for Inactive)
REMARK    1  A    between atoms: C_2  and  N_3 
REMARK    2  A    between atoms: N_7  and  C_8 
REMARK    3  A    between atoms: C_8  and  C_9 
REMARK    4  A    between atoms: C_9  and  N_10 
REMARK    5  A    between atoms: N_10  and  C_11 
REMARK    6  A    between atoms: C_13  and  C_14 
REMARK    7  A    between atoms: C_14  and  N_15 
REMARK    8  A    between atoms: C_23  and  C_24 
REMARK    9  A    between atoms: C_24  and  O_25 
REMARK   10  A    between atoms: O_25  and  C_26 
ROOT
HETATM    1  C   UNL     1      39.797 -13.689   2.596  1.00  0.00     0.139 A 
HETATM    2  N   UNL     1      39.857 -13.995   1.274  1.00  0.00    -0.214 NA
HETATM    3  C   UNL     1      39.673 -13.031   0.359  1.00  0.00     0.155 A 
HETATM    4  N   UNL     1      39.415 -11.742   0.607  1.00  0.00    -0.224 NA
HETATM    5  C   UNL     1      39.334 -11.467   1.918  1.00  0.00     0.115 A 
HETATM    6  C   UNL     1      39.503 -12.354   2.968  1.00  0.00     0.053 A 
HETATM    7  S   UNL     1      38.993  -9.889   2.418  1.00  0.00    -0.063 SA
HETATM    8  C   UNL     1      38.989 -10.324   4.075  1.00  0.00     0.089 A 
HETATM    9  C   UNL     1      39.274 -11.683   4.245  1.00  0.00    -0.022 A 
HETATM   10  C   UNL     1      39.308 -12.383   5.572  1.00  0.00     0.051 C 
ENDROOT
BRANCH   1  11
HETATM   11  N   UNL     1      39.998 -14.697   3.529  1.00  0.00    -0.372 N 
HETATM   12  H   UNL     1      40.254 -14.371   4.457  1.00  0.00     0.161 HD
BRANCH  11  13
HETATM   13  C   UNL     1      40.618 -15.938   3.094  1.00  0.00     0.156 C 
BRANCH  13  14
HETATM   14  C   UNL     1      41.616 -16.496   4.166  1.00  0.00     0.236 C 
HETATM   15  C   UNL     1      41.350 -15.773   5.502  1.00  0.00     0.044 C 
BRANCH  14  16
HETATM   16  N   UNL     1      43.049 -16.427   3.738  1.00  0.00     0.097 N 
HETATM   17  C   UNL     1      43.296 -17.084   2.432  1.00  0.00     0.300 C 
HETATM   18  C   UNL     1      43.202 -18.629   2.441  1.00  0.00     0.265 C 
HETATM   19  N   UNL     1      44.102 -19.230   3.511  1.00  0.00    -0.068 N 
HETATM   20  H   UNL     1      45.074 -19.051   3.222  1.00  0.00     0.280 HD
HETATM   21  C   UNL     1      43.926 -18.538   4.863  1.00  0.00     0.265 C 
HETATM   22  C   UNL     1      44.008 -17.005   4.711  1.00  0.00     0.300 C 
BRANCH  19  23
HETATM   23  C   UNL     1      43.943 -20.730   3.664  1.00  0.00     0.230 C 
HETATM   24  C   UNL     1      43.783 -21.129   5.118  1.00  0.00     0.034 C 
ENDBRANCH  19  23
ENDBRANCH  14  16
ENDBRANCH  13  14
ENDBRANCH  11  13
ENDBRANCH   1  11
BRANCH   3  25
HETATM   25  C   UNL     1      39.748 -13.413  -1.111  1.00  0.00     0.314 C 
BRANCH  25  26
HETATM   26  N   UNL     1      38.457 -14.020  -1.663  1.00  0.00    -0.072 N 
HETATM   27  H   UNL     1      38.007 -14.447  -0.835  1.00  0.00     0.279 HD
HETATM   28  C   UNL     1      37.495 -12.982  -2.164  1.00  0.00     0.269 C 
HETATM   29  C   UNL     1      38.708 -15.099  -2.666  1.00  0.00     0.269 C 
ENDBRANCH  25  26
ENDBRANCH   3  25
BRANCH   8  30
HETATM   30  C   UNL     1      38.714  -9.318   5.100  1.00  0.00     0.300 C 
HETATM   31  O   UNL     1      37.627  -9.149   5.640  1.00  0.00    -0.259 OA
BRANCH  30  32
HETATM   32  O   UNL     1      39.821  -8.562   5.360  1.00  0.00    -0.317 OA
BRANCH  32  33
HETATM   33  C   UNL     1      40.337  -8.612   6.698  1.00  0.00     0.174 C 
HETATM   34  C   UNL     1      41.499  -9.586   6.763  1.00  0.00     0.034 C 
ENDBRANCH  32  33
ENDBRANCH  30  32
ENDBRANCH   8  30
TORSDOF 10
ENDMDL
MODEL 5
REMARK VINA RESULT:      -7.3      2.167      6.583
REMARK  10 active torsions:
REMARK  status: ('A' for Active; 'I' for Inactive)
REMARK    1  A    between atoms: C_2  and  N_3 
REMARK    2  A    between atoms: N_7  and  C_8 
REMARK    3  A    between atoms: C_8  and  C_9 
REMARK    4  A    between atoms: C_9  and  N_10 
REMARK    5  A    between atoms: N_10  and  C_11 
REMARK    6  A    between atoms: C_13  and  C_14 
REMARK    7  A    between atoms: C_14  and  N_15 
REMARK    8  A    between atoms: C_23  and  C_24 
REMARK    9  A    between atoms: C_24  and  O_25 
REMARK   10  A    between atoms: O_25  and  C_26 
ROOT
HETATM    1  C   UNL     1      40.146 -14.157   3.351  1.00  0.00     0.139 A 
HETATM    2  N   UNL     1      39.747 -13.873   2.084  1.00  0.00    -0.214 NA
HETATM    3  C   UNL     1      40.337 -14.486   1.046  1.00  0.00     0.155 A 
HETATM    4  N   UNL     1      41.329 -15.382   1.115  1.00  0.00    -0.224 NA
HETATM    5  C   UNL     1      41.726 -15.628   2.373  1.00  0.00     0.115 A 
HETATM    6  C   UNL     1      41.210 -15.075   3.533  1.00  0.00     0.053 A 
HETATM    7  S   UNL     1      42.985 -16.720   2.649  1.00  0.00    -0.063 SA
HETATM    8  C   UNL     1      42.951 -16.463   4.343  1.00  0.00     0.089 A 
HETATM    9  C   UNL     1      41.953 -15.550   4.698  1.00  0.00    -0.022 A 
HETATM   10  C   UNL     1      41.691 -15.084   6.101  1.00  0.00     0.051 C 
ENDROOT
BRANCH   1  11
HETATM   11  N   UNL     1      39.520 -13.520   4.412  1.00  0.00    -0.372 N 
HETATM   12  H   UNL     1      38.706 -14.007   4.778  1.00  0.00     0.161 HD
BRANCH  11  13
HETATM   13  C   UNL     1      39.449 -12.068   4.412  1.00  0.00     0.156 C 
BRANCH  13  14
HETATM   14  C   UNL     1      40.317 -11.444   5.559  1.00  0.00     0.236 C 
HETATM   15  C   UNL     1      39.373 -10.978   6.685  1.00  0.00     0.044 C 
BRANCH  14  16
HETATM   16  N   UNL     1      41.242 -10.366   5.086  1.00  0.00     0.097 N 
HETATM   17  C   UNL     1      42.411 -10.891   4.339  1.00  0.00     0.300 C 
HETATM   18  C   UNL     1      43.459 -11.641   5.196  1.00  0.00     0.265 C 
HETATM   19  N   UNL     1      43.923 -10.791   6.370  1.00  0.00    -0.068 N 
HETATM   20  H   UNL     1      44.456 -10.002   5.977  1.00  0.00     0.280 HD
HETATM   21  C   UNL     1      42.749 -10.177   7.131  1.00  0.00     0.265 C 
HETATM   22  C   UNL     1      41.765  -9.490   6.162  1.00  0.00     0.300 C 
BRANCH  19  23
HETATM   23  C   UNL     1      44.842 -11.528   7.326  1.00  0.00     0.230 C 
HETATM   24  C   UNL     1      46.142 -10.778   7.539  1.00  0.00     0.034 C 
ENDBRANCH  19  23
ENDBRANCH  14  16
ENDBRANCH  13  14
ENDBRANCH  11  13
ENDBRANCH   1  11
BRANCH   3  25
HETATM   25  C   UNL     1      39.862 -14.141  -0.356  1.00  0.00     0.314 C 
BRANCH  25  26
HETATM   26  N   UNL     1      40.840 -13.271  -1.149  1.00  0.00    -0.072 N 
HETATM   27  H   UNL     1      41.751 -13.745  -1.028  1.00  0.00     0.279 HD
HETATM   28  C   UNL     1      40.563 -13.282  -2.624  1.00  0.00     0.269 C 
HETATM   29  C   UNL     1      40.958 -11.886  -0.599  1.00  0.00     0.269 C 
ENDBRANCH  25  26
ENDBRANCH   3  25
BRANCH   8  30
HETATM   30  C   UNL     1      43.893 -17.165   5.214  1.00  0.00     0.300 C 
HETATM   31  O   UNL     1      44.892 -16.661   5.713  1.00  0.00    -0.259 OA
BRANCH  30  32
HETATM   32  O   UNL     1      43.534 -18.472   5.376  1.00  0.00    -0.317 OA
BRANCH  32  33
HETATM   33  C   UNL     1      44.395 -19.455   4.783  1.00  0.00     0.174 C 
HETATM   34  C   UNL     1      43.897 -20.846   5.127  1.00  0.00     0.034 C 
ENDBRANCH  32  33
ENDBRANCH  30  32
ENDBRANCH   8  30
TORSDOF 10
ENDMDL
MODEL 6
REMARK VINA RESULT:      -7.2      1.481      1.759
REMARK  10 active torsions:
REMARK  status: ('A' for Active; 'I' for Inactive)
REMARK    1  A    between atoms: C_2  and  N_3 
REMARK    2  A    between atoms: N_7  and  C_8 
REMARK    3  A    between atoms: C_8  and  C_9 
REMARK    4  A    between atoms: C_9  and  N_10 
REMARK    5  A    between atoms: N_10  and  C_11 
REMARK    6  A    between atoms: C_13  and  C_14 
REMARK    7  A    between atoms: C_14  and  N_15 
REMARK    8  A    between atoms: C_23  and  C_24 
REMARK    9  A    between atoms: C_24  and  O_25 
REMARK   10  A    between atoms: O_25  and  C_26 
ROOT
HETATM    1  C   UNL     1      42.469 -13.875   2.896  1.00  0.00     0.139 A 
HETATM    2  N   UNL     1      42.368 -12.621   3.408  1.00  0.00    -0.214 NA
HETATM    3  C   UNL     1      42.687 -12.397   4.692  1.00  0.00     0.155 A 
HETATM    4  N   UNL     1      43.107 -13.311   5.574  1.00  0.00    -0.224 NA
HETATM    5  C   UNL     1      43.175 -14.547   5.055  1.00  0.00     0.115 A 
HETATM    6  C   UNL     1      42.881 -14.924   3.756  1.00  0.00     0.053 A 
HETATM    7  S   UNL     1      43.667 -15.834   6.034  1.00  0.00    -0.063 SA
HETATM    8  C   UNL     1      43.449 -16.982   4.781  1.00  0.00     0.089 A 
HETATM    9  C   UNL     1      43.018 -16.369   3.600  1.00  0.00    -0.022 A 
HETATM   10  C   UNL     1      42.700 -17.104   2.330  1.00  0.00     0.051 C 
ENDROOT
BRANCH   1  11
HETATM   11  N   UNL     1      42.142 -14.086   1.565  1.00  0.00    -0.372 N 
HETATM   12  H   UNL     1      42.893 -14.475   1.000  1.00  0.00     0.161 HD
BRANCH  11  13
HETATM   13  C   UNL     1      41.271 -13.131   0.900  1.00  0.00     0.156 C 
BRANCH  13  14
HETATM   14  C   UNL     1      40.156 -13.846   0.061  1.00  0.00     0.236 C 
HETATM   15  C   UNL     1      39.967 -15.272   0.619  1.00  0.00     0.044 C 
BRANCH  14  16
HETATM   16  N   UNL     1      40.414 -13.824  -1.414  1.00  0.00     0.097 N 
HETATM   17  C   UNL     1      40.650 -12.458  -1.940  1.00  0.00     0.300 C 
HETATM   18  C   UNL     1      39.404 -11.540  -1.977  1.00  0.00     0.265 C 
HETATM   19  N   UNL     1      38.254 -12.200  -2.724  1.00  0.00    -0.068 N 
HETATM   20  H   UNL     1      38.535 -12.263  -3.713  1.00  0.00     0.280 HD
HETATM   21  C   UNL     1      38.017 -13.636  -2.256  1.00  0.00     0.265 C 
HETATM   22  C   UNL     1      39.338 -14.432  -2.234  1.00  0.00     0.300 C 
BRANCH  19  23
HETATM   23  C   UNL     1      36.962 -11.409  -2.669  1.00  0.00     0.230 C 
HETATM   24  C   UNL     1      36.958 -10.428  -1.511  1.00  0.00     0.034 C 
ENDBRANCH  19  23
ENDBRANCH  14  16
ENDBRANCH  13  14
ENDBRANCH  11  13
ENDBRANCH   1  11
BRANCH   3  25
HETATM   25  C   UNL     1      42.560 -10.980   5.227  1.00  0.00     0.314 C 
BRANCH  25  26
HETATM   26  N   UNL     1      41.932 -10.894   6.620  1.00  0.00    -0.072 N 
HETATM   27  H   UNL     1      41.989 -11.862   6.980  1.00  0.00     0.279 HD
HETATM   28  C   UNL     1      42.736 -10.054   7.569  1.00  0.00     0.269 C 
HETATM   29  C   UNL     1      40.492 -10.495   6.581  1.00  0.00     0.269 C 
ENDBRANCH  25  26
ENDBRANCH   3  25
BRANCH   8  30
HETATM   30  C   UNL     1      43.714 -18.399   5.026  1.00  0.00     0.300 C 
HETATM   31  O   UNL     1      43.441 -18.992   6.062  1.00  0.00    -0.259 OA
BRANCH  30  32
HETATM   32  O   UNL     1      44.337 -18.977   3.957  1.00  0.00    -0.317 OA
BRANCH  32  33
HETATM   33  C   UNL     1      43.912 -20.301   3.601  1.00  0.00     0.174 C 
HETATM   34  C   UNL     1      43.773 -20.406   2.094  1.00  0.00     0.034 C 
ENDBRANCH  32  33
ENDBRANCH  30  32
ENDBRANCH   8  30
TORSDOF 10
ENDMDL
MODEL 7
REMARK VINA RESULT:      -7.1      2.393      7.275
REMARK  10 active torsions:
REMARK  status: ('A' for Active; 'I' for Inactive)
REMARK    1  A    between atoms: C_2  and  N_3 
REMARK    2  A    between atoms: N_7  and  C_8 
REMARK    3  A    between atoms: C_8  and  C_9 
REMARK    4  A    between atoms: C_9  and  N_10 
REMARK    5  A    between atoms: N_10  and  C_11 
REMARK    6  A    between atoms: C_13  and  C_14 
REMARK    7  A    between atoms: C_14  and  N_15 
REMARK    8  A    between atoms: C_23  and  C_24 
REMARK    9  A    between atoms: C_24  and  O_25 
REMARK   10  A    between atoms: O_25  and  C_26 
ROOT
HETATM    1  C   UNL     1      43.177 -13.616   5.415  1.00  0.00     0.139 A 
HETATM    2  N   UNL     1      42.462 -12.696   4.718  1.00  0.00    -0.214 NA
HETATM    3  C   UNL     1      41.692 -13.089   3.692  1.00  0.00     0.155 A 
HETATM    4  N   UNL     1      41.545 -14.342   3.245  1.00  0.00    -0.224 NA
HETATM    5  C   UNL     1      42.282 -15.231   3.931  1.00  0.00     0.115 A 
HETATM    6  C   UNL     1      43.114 -14.972   5.007  1.00  0.00     0.053 A 
HETATM    7  S   UNL     1      42.238 -16.862   3.491  1.00  0.00    -0.063 SA
HETATM    8  C   UNL     1      43.387 -17.302   4.684  1.00  0.00     0.089 A 
HETATM    9  C   UNL     1      43.788 -16.194   5.437  1.00  0.00    -0.022 A 
HETATM   10  C   UNL     1      44.812 -16.240   6.533  1.00  0.00     0.051 C 
ENDROOT
BRANCH   1  11
HETATM   11  N   UNL     1      43.962 -13.193   6.478  1.00  0.00    -0.372 N 
HETATM   12  H   UNL     1      44.417 -13.942   6.993  1.00  0.00     0.161 HD
BRANCH  11  13
HETATM   13  C   UNL     1      43.515 -12.055   7.266  1.00  0.00     0.156 C 
BRANCH  13  14
HETATM   14  C   UNL     1      44.617 -10.943   7.355  1.00  0.00     0.236 C 
HETATM   15  C   UNL     1      45.811 -11.369   6.478  1.00  0.00     0.044 C 
BRANCH  14  16
HETATM   16  N   UNL     1      45.012 -10.609   8.761  1.00  0.00     0.097 N 
HETATM   17  C   UNL     1      43.856 -10.539   9.686  1.00  0.00     0.300 C 
HETATM   18  C   UNL     1      42.920  -9.322   9.485  1.00  0.00     0.265 C 
HETATM   19  N   UNL     1      43.700  -8.015   9.517  1.00  0.00    -0.068 N 
HETATM   20  H   UNL     1      44.046  -7.895  10.480  1.00  0.00     0.280 HD
HETATM   21  C   UNL     1      44.940  -8.066   8.623  1.00  0.00     0.265 C 
HETATM   22  C   UNL     1      45.766  -9.339   8.900  1.00  0.00     0.300 C 
BRANCH  19  23
HETATM   23  C   UNL     1      42.859  -6.799   9.182  1.00  0.00     0.230 C 
HETATM   24  C   UNL     1      42.575  -5.960  10.413  1.00  0.00     0.034 C 
ENDBRANCH  19  23
ENDBRANCH  14  16
ENDBRANCH  13  14
ENDBRANCH  11  13
ENDBRANCH   1  11
BRANCH   3  25
HETATM   25  C   UNL     1      40.906 -12.029   2.937  1.00  0.00     0.314 C 
BRANCH  25  26
HETATM   26  N   UNL     1      39.441 -11.917   3.366  1.00  0.00    -0.072 N 
HETATM   27  H   UNL     1      39.240 -12.829   3.810  1.00  0.00     0.279 HD
HETATM   28  C   UNL     1      39.227 -10.883   4.433  1.00  0.00     0.269 C 
HETATM   29  C   UNL     1      38.511 -11.746   2.209  1.00  0.00     0.269 C 
ENDBRANCH  25  26
ENDBRANCH   3  25
BRANCH   8  30
HETATM   30  C   UNL     1      43.820 -18.694   4.812  1.00  0.00     0.300 C 
HETATM   31  O   UNL     1      43.695 -19.374   5.823  1.00  0.00    -0.259 OA
BRANCH  30  32
HETATM   32  O   UNL     1      44.413 -19.133   3.664  1.00  0.00    -0.317 OA
BRANCH  32  33
HETATM   33  C   UNL     1      43.987 -20.411   3.166  1.00  0.00     0.174 C 
HETATM   34  C   UNL     1      43.147 -20.219   1.918  1.00  0.00     0.034 C 
ENDBRANCH  32  33
ENDBRANCH  30  32
ENDBRANCH   8  30
TORSDOF 10
ENDMDL
MODEL 8
REMARK VINA RESULT:      -7.1      2.446      3.723
REMARK  10 active torsions:
REMARK  status: ('A' for Active; 'I' for Inactive)
REMARK    1  A    between atoms: C_2  and  N_3 
REMARK    2  A    between atoms: N_7  and  C_8 
REMARK    3  A    between atoms: C_8  and  C_9 
REMARK    4  A    between atoms: C_9  and  N_10 
REMARK    5  A    between atoms: N_10  and  C_11 
REMARK    6  A    between atoms: C_13  and  C_14 
REMARK    7  A    between atoms: C_14  and  N_15 
REMARK    8  A    between atoms: C_23  and  C_24 
REMARK    9  A    between atoms: C_24  and  O_25 
REMARK   10  A    between atoms: O_25  and  C_26 
ROOT
HETATM    1  C   UNL     1      39.414 -12.858   3.221  1.00  0.00     0.139 A 
HETATM    2  N   UNL     1      39.189 -12.095   4.322  1.00  0.00    -0.214 NA
HETATM    3  C   UNL     1      39.979 -12.229   5.398  1.00  0.00     0.155 A 
HETATM    4  N   UNL     1      41.008 -13.075   5.526  1.00  0.00    -0.224 NA
HETATM    5  C   UNL     1      41.195 -13.838   4.437  1.00  0.00     0.115 A 
HETATM    6  C   UNL     1      40.466 -13.808   3.261  1.00  0.00     0.053 A 
HETATM    7  S   UNL     1      42.440 -14.982   4.428  1.00  0.00    -0.063 SA
HETATM    8  C   UNL     1      42.026 -15.545   2.864  1.00  0.00     0.089 A 
HETATM    9  C   UNL     1      40.941 -14.836   2.339  1.00  0.00    -0.022 A 
HETATM   10  C   UNL     1      40.312 -15.113   1.004  1.00  0.00     0.051 C 
ENDROOT
BRANCH   1  11
HETATM   11  N   UNL     1      38.593 -12.701   2.114  1.00  0.00    -0.372 N 
HETATM   12  H   UNL     1      38.435 -13.551   1.580  1.00  0.00     0.161 HD
BRANCH  11  13
HETATM   13  C   UNL     1      38.685 -11.470   1.346  1.00  0.00     0.156 C 
BRANCH  13  14
HETATM   14  C   UNL     1      39.588 -11.644   0.077  1.00  0.00     0.236 C 
HETATM   15  C   UNL     1      41.017 -11.183   0.428  1.00  0.00     0.044 C 
BRANCH  14  16
HETATM   16  N   UNL     1      39.038 -10.969  -1.142  1.00  0.00     0.097 N 
HETATM   17  C   UNL     1      37.635 -11.350  -1.432  1.00  0.00     0.300 C 
HETATM   18  C   UNL     1      37.434 -12.797  -1.941  1.00  0.00     0.265 C 
HETATM   19  N   UNL     1      38.317 -13.085  -3.147  1.00  0.00    -0.068 N 
HETATM   20  H   UNL     1      37.963 -12.507  -3.923  1.00  0.00     0.280 HD
HETATM   21  C   UNL     1      39.763 -12.649  -2.915  1.00  0.00     0.265 C 
HETATM   22  C   UNL     1      39.823 -11.204  -2.379  1.00  0.00     0.300 C 
BRANCH  19  23
HETATM   23  C   UNL     1      38.270 -14.531  -3.601  1.00  0.00     0.230 C 
HETATM   24  C   UNL     1      38.768 -15.471  -2.520  1.00  0.00     0.034 C 
ENDBRANCH  19  23
ENDBRANCH  14  16
ENDBRANCH  13  14
ENDBRANCH  11  13
ENDBRANCH   1  11
BRANCH   3  25
HETATM   25  C   UNL     1      39.695 -11.357   6.610  1.00  0.00     0.314 C 
BRANCH  25  26
HETATM   26  N   UNL     1      40.286  -9.948   6.516  1.00  0.00    -0.072 N 
HETATM   27  H   UNL     1      40.200  -9.708   5.513  1.00  0.00     0.279 HD
HETATM   28  C   UNL     1      39.472  -8.926   7.254  1.00  0.00     0.269 C 
HETATM   29  C   UNL     1      41.733  -9.903   6.884  1.00  0.00     0.269 C 
ENDBRANCH  25  26
ENDBRANCH   3  25
BRANCH   8  30
HETATM   30  C   UNL     1      42.783 -16.635   2.249  1.00  0.00     0.300 C 
HETATM   31  O   UNL     1      43.477 -16.524   1.246  1.00  0.00    -0.259 OA
BRANCH  30  32
HETATM   32  O   UNL     1      42.592 -17.808   2.920  1.00  0.00    -0.317 OA
BRANCH  32  33
HETATM   33  C   UNL     1      43.692 -18.730   2.933  1.00  0.00     0.174 C 
HETATM   34  C   UNL     1      43.348 -19.950   2.099  1.00  0.00     0.034 C 
ENDBRANCH  32  33
ENDBRANCH  30  32
ENDBRANCH   8  30
TORSDOF 10
ENDMDL
MODEL 9
REMARK VINA RESULT:      -6.6     15.638     17.090
REMARK  10 active torsions:
REMARK  status: ('A' for Active; 'I' for Inactive)
REMARK    1  A    between atoms: C_2  and  N_3 
REMARK    2  A    between atoms: N_7  and  C_8 
REMARK    3  A    between atoms: C_8  and  C_9 
REMARK    4  A    between atoms: C_9  and  N_10 
REMARK    5  A    between atoms: N_10  and  C_11 
REMARK    6  A    between atoms: C_13  and  C_14 
REMARK    7  A    between atoms: C_14  and  N_15 
REMARK    8  A    between atoms: C_23  and  C_24 
REMARK    9  A    between atoms: C_24  and  O_25 
REMARK   10  A    between atoms: O_25  and  C_26 
ROOT
HETATM    1  C   UNL     1      45.662 -29.308   2.191  1.00  0.00     0.139 A 
HETATM    2  N   UNL     1      46.712 -29.327   3.052  1.00  0.00    -0.214 NA
HETATM    3  C   UNL     1      47.941 -29.017   2.612  1.00  0.00     0.155 A 
HETATM    4  N   UNL     1      48.273 -28.683   1.359  1.00  0.00    -0.224 NA
HETATM    5  C   UNL     1      47.226 -28.697   0.519  1.00  0.00     0.115 A 
HETATM    6  C   UNL     1      45.910 -28.993   0.831  1.00  0.00     0.053 A 
HETATM    7  S   UNL     1      47.463 -28.322  -1.111  1.00  0.00    -0.063 SA
HETATM    8  C   UNL     1      45.818 -28.599  -1.502  1.00  0.00     0.089 A 
HETATM    9  C   UNL     1      45.081 -28.960  -0.370  1.00  0.00    -0.022 A 
HETATM   10  C   UNL     1      43.620 -29.307  -0.385  1.00  0.00     0.051 C 
ENDROOT
BRANCH   1  11
HETATM   11  N   UNL     1      44.397 -29.624   2.665  1.00  0.00    -0.372 N 
HETATM   12  H   UNL     1      43.867 -28.833   3.018  1.00  0.00     0.161 HD
BRANCH  11  13
HETATM   13  C   UNL     1      44.209 -30.884   3.367  1.00  0.00     0.156 C 
BRANCH  13  14
HETATM   14  C   UNL     1      42.945 -31.653   2.850  1.00  0.00     0.236 C 
HETATM   15  C   UNL     1      43.313 -32.365   1.532  1.00  0.00     0.044 C 
BRANCH  14  16
HETATM   16  N   UNL     1      41.729 -30.787   2.728  1.00  0.00     0.097 N 
HETATM   17  C   UNL     1      41.245 -30.282   4.036  1.00  0.00     0.300 C 
HETATM   18  C   UNL     1      40.597 -31.345   4.955  1.00  0.00     0.265 C 
HETATM   19  N   UNL     1      39.484 -32.094   4.235  1.00  0.00    -0.068 N 
HETATM   20  H   UNL     1      38.723 -31.420   4.075  1.00  0.00     0.280 HD
HETATM   21  C   UNL     1      39.922 -32.579   2.853  1.00  0.00     0.265 C 
HETATM   22  C   UNL     1      40.579 -31.436   2.052  1.00  0.00     0.300 C 
BRANCH  19  23
HETATM   23  C   UNL     1      38.911 -33.246   5.038  1.00  0.00     0.230 C 
HETATM   24  C   UNL     1      37.398 -33.292   4.943  1.00  0.00     0.034 C 
ENDBRANCH  19  23
ENDBRANCH  14  16
ENDBRANCH  13  14
ENDBRANCH  11  13
ENDBRANCH   1  11
BRANCH   3  25
HETATM   25  C   UNL     1      49.089 -29.049   3.607  1.00  0.00     0.314 C 
BRANCH  25  26
HETATM   26  N   UNL     1      49.954 -30.309   3.520  1.00  0.00    -0.072 N 
HETATM   27  H   UNL     1      49.294 -31.044   3.213  1.00  0.00     0.279 HD
HETATM   28  C   UNL     1      51.000 -30.221   2.446  1.00  0.00     0.269 C 
HETATM   29  C   UNL     1      50.523 -30.713   4.841  1.00  0.00     0.269 C 
ENDBRANCH  25  26
ENDBRANCH   3  25
BRANCH   8  30
HETATM   30  C   UNL     1      45.353 -28.445  -2.880  1.00  0.00     0.300 C 
HETATM   31  O   UNL     1      45.178 -27.371  -3.443  1.00  0.00    -0.259 OA
BRANCH  30  32
HETATM   32  O   UNL     1      45.104 -29.658  -3.456  1.00  0.00    -0.317 OA
BRANCH  32  33
HETATM   33  C   UNL     1      43.841 -29.809  -4.120  1.00  0.00     0.174 C 
HETATM   34  C   UNL     1      44.057 -30.384  -5.507  1.00  0.00     0.034 C 
ENDBRANCH  32  33
ENDBRANCH  30  32
ENDBRANCH   8  30
TORSDOF 10
ENDMDL
MODEL 10
REMARK VINA RESULT:      -6.5      2.057      3.518
REMARK  10 active torsions:
REMARK  status: ('A' for Active; 'I' for Inactive)
REMARK    1  A    between atoms: C_2  and  N_3 
REMARK    2  A    between atoms: N_7  and  C_8 
REMARK    3  A    between atoms: C_8  and  C_9 
REMARK    4  A    between atoms: C_9  and  N_10 
REMARK    5  A    between atoms: N_10  and  C_11 
REMARK    6  A    between atoms: C_13  and  C_14 
REMARK    7  A    between atoms: C_14  and  N_15 
REMARK    8  A    between atoms: C_23  and  C_24 
REMARK    9  A    between atoms: C_24  and  O_25 
REMARK   10  A    between atoms: O_25  and  C_26 
ROOT
HETATM    1  C   UNL     1      42.820 -11.830   3.927  1.00  0.00     0.139 A 
HETATM    2  N   UNL     1      42.616 -10.965   4.954  1.00  0.00    -0.214 NA
HETATM    3  C   UNL     1      42.600 -11.420   6.216  1.00  0.00     0.155 A 
HETATM    4  N   UNL     1      42.761 -12.691   6.602  1.00  0.00    -0.224 NA
HETATM    5  C   UNL     1      42.935 -13.533   5.571  1.00  0.00     0.115 A 
HETATM    6  C   UNL     1      42.976 -13.207   4.226  1.00  0.00     0.053 A 
HETATM    7  S   UNL     1      43.133 -15.184   5.870  1.00  0.00    -0.063 SA
HETATM    8  C   UNL     1      43.220 -15.563   4.201  1.00  0.00     0.089 A 
HETATM    9  C   UNL     1      43.119 -14.412   3.413  1.00  0.00    -0.022 A 
HETATM   10  C   UNL     1      43.123 -14.409   1.912  1.00  0.00     0.051 C 
ENDROOT
BRANCH   1  11
HETATM   11  N   UNL     1      42.841 -11.341   2.629  1.00  0.00    -0.372 N 
HETATM   12  H   UNL     1      43.758 -11.051   2.300  1.00  0.00     0.161 HD
BRANCH  11  13
HETATM   13  C   UNL     1      41.714 -10.549   2.164  1.00  0.00     0.156 C 
BRANCH  13  14
HETATM   14  C   UNL     1      41.277 -10.956   0.714  1.00  0.00     0.236 C 
HETATM   15  C   UNL     1      41.761  -9.867  -0.264  1.00  0.00     0.044 C 
BRANCH  14  16
HETATM   16  N   UNL     1      39.813 -11.244   0.592  1.00  0.00     0.097 N 
HETATM   17  C   UNL     1      39.228 -11.806   1.833  1.00  0.00     0.300 C 
HETATM   18  C   UNL     1      39.653 -13.257   2.165  1.00  0.00     0.265 C 
HETATM   19  N   UNL     1      39.394 -14.191   0.991  1.00  0.00    -0.068 N 
HETATM   20  H   UNL     1      38.372 -14.259   0.882  1.00  0.00     0.280 HD
HETATM   21  C   UNL     1      39.926 -13.619  -0.323  1.00  0.00     0.265 C 
HETATM   22  C   UNL     1      39.458 -12.161  -0.518  1.00  0.00     0.300 C 
BRANCH  19  23
HETATM   23  C   UNL     1      39.923 -15.595   1.206  1.00  0.00     0.230 C 
HETATM   24  C   UNL     1      39.805 -16.020   2.657  1.00  0.00     0.034 C 
ENDBRANCH  19  23
ENDBRANCH  14  16
ENDBRANCH  13  14
ENDBRANCH  11  13
ENDBRANCH   1  11
BRANCH   3  25
HETATM   25  C   UNL     1      42.369 -10.419   7.337  1.00  0.00     0.314 C 
BRANCH  25  26
HETATM   26  N   UNL     1      40.954  -9.836   7.369  1.00  0.00    -0.072 N 
HETATM   27  H   UNL     1      40.997  -9.041   6.710  1.00  0.00     0.279 HD
HETATM   28  C   UNL     1      39.926 -10.777   6.813  1.00  0.00     0.269 C 
HETATM   29  C   UNL     1      40.578  -9.307   8.715  1.00  0.00     0.269 C 
ENDBRANCH  25  26
ENDBRANCH   3  25
BRANCH   8  30
HETATM   30  C   UNL     1      43.385 -16.950   3.768  1.00  0.00     0.300 C 
HETATM   31  O   UNL     1      42.677 -17.512   2.941  1.00  0.00    -0.259 OA
BRANCH  30  32
HETATM   32  O   UNL     1      44.414 -17.555   4.430  1.00  0.00    -0.317 OA
BRANCH  32  33
HETATM   33  C   UNL     1      44.263 -18.953   4.717  1.00  0.00     0.174 C 
HETATM   34  C   UNL     1      43.523 -19.129   6.030  1.00  0.00     0.034 C 
ENDBRANCH  32  33
ENDBRANCH  30  32
ENDBRANCH   8  30
TORSDOF 10
ENDMDL
