MODEL 1
REMARK VINA RESULT:      -9.5      0.000      0.000
REMARK  9 active torsions:
REMARK  status: ('A' for Active; 'I' for Inactive)
REMARK    1  A    between atoms: N_6  and  C_7 
REMARK    2  A    between atoms: C_7  and  C_8 
REMARK    3  A    between atoms: C_8  and  N_9 
REMARK       I    between atoms: N_9  and  C_10 
REMARK    4  A    between atoms: C_10  and  C_12 
REMARK    5  A    between atoms: C_16  and  C_17 
REMARK    6  A    between atoms: C_17  and  N_18 
REMARK    7  A    between atoms: N_18  and  C_19 
REMARK       I    between atoms: N_18  and  C_22 
REMARK    8  A    between atoms: C_22  and  C_24 
REMARK    9  A    between atoms: C_29  and  C_33 
ROOT
HETATM    1  C   UNL     1      43.481  -9.954   7.551  1.00  0.00     0.165 C 
ENDROOT
BRANCH   1   2
HETATM    2  C   UNL     1      43.188 -10.016   9.033  1.00  0.00    -0.039 A 
HETATM    3  C   UNL     1      44.067 -10.666   9.909  1.00  0.00     0.009 A 
HETATM    4  C   UNL     1      43.808 -10.702  11.280  1.00  0.00     0.002 A 
HETATM    5  C   UNL     1      42.675 -10.074  11.798  1.00  0.00     0.017 A 
HETATM    6  C   UNL     1      41.796  -9.397  10.943  1.00  0.00     0.032 A 
HETATM    7  C   UNL     1      42.049  -9.386   9.562  1.00  0.00     0.026 A 
BRANCH   6   8
HETATM    8  C   UNL     1      40.584  -8.684  11.439  1.00  0.00     0.251 C 
HETATM    9  N   UNL     1      40.565  -8.332  12.779  1.00  0.00    -0.355 N 
HETATM   10  H   UNL     1      41.434  -8.354  13.297  1.00  0.00     0.162 HD
HETATM   11  O   UNL     1      39.663  -8.405  10.674  1.00  0.00    -0.268 OA
BRANCH   9  12
HETATM   12  C   UNL     1      39.504  -7.486  13.301  1.00  0.00     0.153 C 
BRANCH  12  13
HETATM   13  C   UNL     1      39.934  -6.725  14.577  1.00  0.00     0.292 C 
BRANCH  13  14
HETATM   14  N   UNL     1      41.241  -6.030  14.511  1.00  0.00     0.093 N 
HETATM   15  C   UNL     1      42.243  -6.747  15.337  1.00  0.00     0.300 C 
HETATM   16  C   UNL     1      42.059  -6.609  16.868  1.00  0.00     0.264 C 
HETATM   17  N   UNL     1      41.968  -5.143  17.263  1.00  0.00    -0.072 N 
HETATM   18  C   UNL     1      41.754  -4.969  18.735  1.00  0.00     0.269 C 
HETATM   19  H   UNL     1      42.871  -4.714  17.025  1.00  0.00     0.279 HD
HETATM   20  C   UNL     1      40.908  -4.411  16.453  1.00  0.00     0.264 C 
HETATM   21  C   UNL     1      41.173  -4.618  14.947  1.00  0.00     0.300 C 
ENDBRANCH  13  14
ENDBRANCH  12  13
ENDBRANCH   9  12
ENDBRANCH   6   8
ENDBRANCH   1   2
BRANCH   1  22
HETATM   22  N   UNL     1      43.669 -11.271   6.940  1.00  0.00    -0.337 N 
HETATM   23  C   UNL     1      42.536 -11.895   6.362  1.00  0.00     0.280 C 
HETATM   24  O   UNL     1      41.438 -11.329   6.434  1.00  0.00    -0.265 OA
BRANCH  22  25
HETATM   25  C   UNL     1      45.013 -11.792   6.855  1.00  0.00     0.088 A 
HETATM   26  C   UNL     1      45.980 -11.447   5.746  1.00  0.00     0.027 A 
HETATM   27  C   UNL     1      46.206 -10.904   7.119  1.00  0.00     0.027 A 
ENDBRANCH  22  25
BRANCH  23  28
HETATM   28  C   UNL     1      42.678 -13.204   5.706  1.00  0.00     0.166 A 
HETATM   29  N   UNL     1      42.699 -13.429   4.406  1.00  0.00    -0.235 NA
HETATM   30  C   UNL     1      42.913 -14.775   4.157  1.00  0.00     0.075 A 
HETATM   31  C   UNL     1      43.047 -15.371   2.889  1.00  0.00     0.034 A 
HETATM   32  C   UNL     1      43.012 -15.585   5.287  1.00  0.00     0.036 A 
HETATM   33  C   UNL     1      43.289 -16.748   2.787  1.00  0.00     0.014 A 
HETATM   34  C   UNL     1      43.391 -17.551   3.929  1.00  0.00    -0.022 A 
HETATM   35  C   UNL     1      43.243 -16.969   5.198  1.00  0.00     0.033 A 
HETATM   36  S   UNL     1      42.821 -14.612   6.690  1.00  0.00    -0.063 SA
BRANCH  34  37
HETATM   37  C   UNL     1      43.671 -18.971   3.796  1.00  0.00     0.010 A 
HETATM   38  C   UNL     1      43.563 -19.835   2.680  1.00  0.00     0.152 A 
HETATM   39  N   UNL     1      43.916 -21.091   2.961  1.00  0.00    -0.187 NA
HETATM   40  N   UNL     1      44.252 -21.041   4.259  1.00  0.00    -0.289 N 
HETATM   41  H   UNL     1      44.562 -21.896   4.710  1.00  0.00     0.188 HD
HETATM   42  C   UNL     1      44.122 -19.796   4.806  1.00  0.00     0.123 A 
ENDBRANCH  34  37
ENDBRANCH  23  28
ENDBRANCH   1  22
TORSDOF 9
ENDMDL
MODEL 2
REMARK VINA RESULT:      -9.3      6.285     10.234
REMARK  9 active torsions:
REMARK  status: ('A' for Active; 'I' for Inactive)
REMARK    1  A    between atoms: N_6  and  C_7 
REMARK    2  A    between atoms: C_7  and  C_8 
REMARK    3  A    between atoms: C_8  and  N_9 
REMARK       I    between atoms: N_9  and  C_10 
REMARK    4  A    between atoms: C_10  and  C_12 
REMARK    5  A    between atoms: C_16  and  C_17 
REMARK    6  A    between atoms: C_17  and  N_18 
REMARK    7  A    between atoms: N_18  and  C_19 
REMARK       I    between atoms: N_18  and  C_22 
REMARK    8  A    between atoms: C_22  and  C_24 
REMARK    9  A    between atoms: C_29  and  C_33 
ROOT
HETATM    1  C   UNL     1      41.518  -9.757   5.617  1.00  0.00     0.165 C 
ENDROOT
BRANCH   1   2
HETATM    2  C   UNL     1      41.159  -8.744   4.553  1.00  0.00    -0.039 A 
HETATM    3  C   UNL     1      41.101  -7.378   4.856  1.00  0.00     0.009 A 
HETATM    4  C   UNL     1      40.792  -6.442   3.868  1.00  0.00     0.002 A 
HETATM    5  C   UNL     1      40.553  -6.857   2.557  1.00  0.00     0.017 A 
HETATM    6  C   UNL     1      40.630  -8.215   2.228  1.00  0.00     0.032 A 
HETATM    7  C   UNL     1      40.916  -9.154   3.232  1.00  0.00     0.026 A 
BRANCH   6   8
HETATM    8  C   UNL     1      40.412  -8.717   0.840  1.00  0.00     0.251 C 
HETATM    9  N   UNL     1      41.436  -9.455   0.268  1.00  0.00    -0.355 N 
HETATM   10  H   UNL     1      42.166  -9.815   0.869  1.00  0.00     0.162 HD
HETATM   11  O   UNL     1      39.353  -8.501   0.254  1.00  0.00    -0.268 OA
BRANCH   9  12
HETATM   12  C   UNL     1      41.236 -10.125  -1.006  1.00  0.00     0.153 C 
BRANCH  12  13
HETATM   13  C   UNL     1      41.026 -11.647  -0.842  1.00  0.00     0.292 C 
BRANCH  13  14
HETATM   14  N   UNL     1      39.779 -12.063  -0.158  1.00  0.00     0.093 N 
HETATM   15  C   UNL     1      39.841 -13.503   0.190  1.00  0.00     0.300 C 
HETATM   16  C   UNL     1      39.706 -14.478  -1.005  1.00  0.00     0.264 C 
HETATM   17  N   UNL     1      38.458 -14.162  -1.813  1.00  0.00    -0.072 N 
HETATM   18  C   UNL     1      38.311 -15.063  -3.001  1.00  0.00     0.269 C 
HETATM   19  H   UNL     1      37.654 -14.325  -1.194  1.00  0.00     0.279 HD
HETATM   20  C   UNL     1      38.409 -12.694  -2.215  1.00  0.00     0.264 C 
HETATM   21  C   UNL     1      38.561 -11.809  -0.960  1.00  0.00     0.300 C 
ENDBRANCH  13  14
ENDBRANCH  12  13
ENDBRANCH   9  12
ENDBRANCH   6   8
ENDBRANCH   1   2
BRANCH   1  22
HETATM   22  N   UNL     1      41.547 -11.134   5.124  1.00  0.00    -0.337 N 
HETATM   23  C   UNL     1      42.815 -11.712   4.866  1.00  0.00     0.280 C 
HETATM   24  O   UNL     1      43.832 -11.025   5.024  1.00  0.00    -0.265 OA
BRANCH  22  25
HETATM   25  C   UNL     1      40.298 -11.854   5.051  1.00  0.00     0.088 A 
HETATM   26  C   UNL     1      39.793 -12.773   6.139  1.00  0.00     0.027 A 
HETATM   27  C   UNL     1      39.123 -11.457   5.913  1.00  0.00     0.027 A 
ENDBRANCH  22  25
BRANCH  23  28
HETATM   28  C   UNL     1      42.902 -13.105   4.400  1.00  0.00     0.166 A 
HETATM   29  N   UNL     1      42.830 -13.516   3.148  1.00  0.00    -0.235 NA
HETATM   30  C   UNL     1      43.017 -14.887   3.083  1.00  0.00     0.075 A 
HETATM   31  C   UNL     1      43.057 -15.664   1.910  1.00  0.00     0.034 A 
HETATM   32  C   UNL     1      43.189 -15.527   4.310  1.00  0.00     0.036 A 
HETATM   33  C   UNL     1      43.282 -17.045   1.994  1.00  0.00     0.014 A 
HETATM   34  C   UNL     1      43.458 -17.675   3.231  1.00  0.00    -0.022 A 
HETATM   35  C   UNL     1      43.403 -16.913   4.408  1.00  0.00     0.033 A 
HETATM   36  S   UNL     1      43.103 -14.357   5.566  1.00  0.00    -0.063 SA
BRANCH  34  37
HETATM   37  C   UNL     1      43.718 -19.104   3.288  1.00  0.00     0.010 A 
HETATM   38  C   UNL     1      43.691 -20.091   2.273  1.00  0.00     0.152 A 
HETATM   39  N   UNL     1      43.990 -21.309   2.728  1.00  0.00    -0.187 NA
HETATM   40  N   UNL     1      44.210 -21.113   4.036  1.00  0.00    -0.289 N 
HETATM   41  H   UNL     1      44.460 -21.913   4.609  1.00  0.00     0.188 HD
HETATM   42  C   UNL     1      44.059 -19.811   4.422  1.00  0.00     0.123 A 
ENDBRANCH  34  37
ENDBRANCH  23  28
ENDBRANCH   1  22
TORSDOF 9
ENDMDL
MODEL 3
REMARK VINA RESULT:      -9.2      6.713     10.470
REMARK  9 active torsions:
REMARK  status: ('A' for Active; 'I' for Inactive)
REMARK    1  A    between atoms: N_6  and  C_7 
REMARK    2  A    between atoms: C_7  and  C_8 
REMARK    3  A    between atoms: C_8  and  N_9 
REMARK       I    between atoms: N_9  and  C_10 
REMARK    4  A    between atoms: C_10  and  C_12 
REMARK    5  A    between atoms: C_16  and  C_17 
REMARK    6  A    between atoms: C_17  and  N_18 
REMARK    7  A    between atoms: N_18  and  C_19 
REMARK       I    between atoms: N_18  and  C_22 
REMARK    8  A    between atoms: C_22  and  C_24 
REMARK    9  A    between atoms: C_29  and  C_33 
ROOT
HETATM    1  C   UNL     1      41.418  -9.626   4.911  1.00  0.00     0.165 C 
ENDROOT
BRANCH   1   2
HETATM    2  C   UNL     1      40.757  -8.770   3.854  1.00  0.00    -0.039 A 
HETATM    3  C   UNL     1      40.062  -7.607   4.209  1.00  0.00     0.009 A 
HETATM    4  C   UNL     1      39.472  -6.804   3.231  1.00  0.00     0.002 A 
HETATM    5  C   UNL     1      39.583  -7.144   1.882  1.00  0.00     0.017 A 
HETATM    6  C   UNL     1      40.294  -8.289   1.504  1.00  0.00     0.032 A 
HETATM    7  C   UNL     1      40.863  -9.105   2.495  1.00  0.00     0.026 A 
BRANCH   6   8
HETATM    8  C   UNL     1      40.470  -8.690   0.078  1.00  0.00     0.251 C 
HETATM    9  N   UNL     1      39.358  -9.193  -0.577  1.00  0.00    -0.355 N 
HETATM   10  H   UNL     1      38.447  -9.055  -0.158  1.00  0.00     0.162 HD
HETATM   11  O   UNL     1      41.554  -8.547  -0.484  1.00  0.00    -0.268 OA
BRANCH   9  12
HETATM   12  C   UNL     1      39.398  -9.442  -2.008  1.00  0.00     0.153 C 
BRANCH  12  13
HETATM   13  C   UNL     1      38.978 -10.886  -2.366  1.00  0.00     0.292 C 
BRANCH  13  14
HETATM   14  N   UNL     1      40.060 -11.782  -2.836  1.00  0.00     0.093 N 
HETATM   15  C   UNL     1      39.529 -13.146  -3.074  1.00  0.00     0.300 C 
HETATM   16  C   UNL     1      39.189 -13.954  -1.799  1.00  0.00     0.264 C 
HETATM   17  N   UNL     1      40.381 -13.985  -0.854  1.00  0.00    -0.072 N 
HETATM   18  C   UNL     1      40.079 -14.730   0.410  1.00  0.00     0.269 C 
HETATM   19  H   UNL     1      41.134 -14.487  -1.341  1.00  0.00     0.279 HD
HETATM   20  C   UNL     1      40.903 -12.585  -0.568  1.00  0.00     0.264 C 
HETATM   21  C   UNL     1      41.201 -11.862  -1.897  1.00  0.00     0.300 C 
ENDBRANCH  13  14
ENDBRANCH  12  13
ENDBRANCH   9  12
ENDBRANCH   6   8
ENDBRANCH   1   2
BRANCH   1  22
HETATM   22  N   UNL     1      41.476 -11.045   4.557  1.00  0.00    -0.337 N 
HETATM   23  C   UNL     1      42.750 -11.602   4.283  1.00  0.00     0.280 C 
HETATM   24  O   UNL     1      43.745 -10.867   4.312  1.00  0.00    -0.265 OA
BRANCH  22  25
HETATM   25  C   UNL     1      40.254 -11.812   4.630  1.00  0.00     0.088 A 
HETATM   26  C   UNL     1      39.764 -12.493   5.886  1.00  0.00     0.027 A 
HETATM   27  C   UNL     1      39.052 -11.284   5.375  1.00  0.00     0.027 A 
ENDBRANCH  22  25
BRANCH  23  28
HETATM   28  C   UNL     1      42.867 -13.032   3.955  1.00  0.00     0.166 A 
HETATM   29  N   UNL     1      42.904 -13.555   2.744  1.00  0.00    -0.235 NA
HETATM   30  C   UNL     1      43.086 -14.926   2.820  1.00  0.00     0.075 A 
HETATM   31  C   UNL     1      43.225 -15.806   1.730  1.00  0.00     0.034 A 
HETATM   32  C   UNL     1      43.143 -15.451   4.111  1.00  0.00     0.036 A 
HETATM   33  C   UNL     1      43.431 -17.173   1.959  1.00  0.00     0.014 A 
HETATM   34  C   UNL     1      43.491 -17.688   3.258  1.00  0.00    -0.022 A 
HETATM   35  C   UNL     1      43.338 -16.823   4.353  1.00  0.00     0.033 A 
HETATM   36  S   UNL     1      42.955 -14.173   5.242  1.00  0.00    -0.063 SA
BRANCH  34  37
HETATM   37  C   UNL     1      43.734 -19.106   3.467  1.00  0.00     0.010 A 
HETATM   38  C   UNL     1      43.613 -20.206   2.584  1.00  0.00     0.152 A 
HETATM   39  N   UNL     1      43.930 -21.368   3.158  1.00  0.00    -0.187 NA
HETATM   40  N   UNL     1      44.256 -21.022   4.413  1.00  0.00    -0.289 N 
HETATM   41  H   UNL     1      44.538 -21.754   5.057  1.00  0.00     0.188 HD
HETATM   42  C   UNL     1      44.154 -19.681   4.649  1.00  0.00     0.123 A 
ENDBRANCH  34  37
ENDBRANCH  23  28
ENDBRANCH   1  22
TORSDOF 9
ENDMDL
MODEL 4
REMARK VINA RESULT:      -9.1      1.503      2.206
REMARK  9 active torsions:
REMARK  status: ('A' for Active; 'I' for Inactive)
REMARK    1  A    between atoms: N_6  and  C_7 
REMARK    2  A    between atoms: C_7  and  C_8 
REMARK    3  A    between atoms: C_8  and  N_9 
REMARK       I    between atoms: N_9  and  C_10 
REMARK    4  A    between atoms: C_10  and  C_12 
REMARK    5  A    between atoms: C_16  and  C_17 
REMARK    6  A    between atoms: C_17  and  N_18 
REMARK    7  A    between atoms: N_18  and  C_19 
REMARK       I    between atoms: N_18  and  C_22 
REMARK    8  A    between atoms: C_22  and  C_24 
REMARK    9  A    between atoms: C_29  and  C_33 
ROOT
HETATM    1  C   UNL     1      42.735  -9.796   7.001  1.00  0.00     0.165 C 
ENDROOT
BRANCH   1   2
HETATM    2  C   UNL     1      41.866  -9.523   8.208  1.00  0.00    -0.039 A 
HETATM    3  C   UNL     1      40.469  -9.568   8.109  1.00  0.00     0.009 A 
HETATM    4  C   UNL     1      39.669  -9.339   9.229  1.00  0.00     0.002 A 
HETATM    5  C   UNL     1      40.253  -9.078  10.469  1.00  0.00     0.017 A 
HETATM    6  C   UNL     1      41.647  -9.053  10.595  1.00  0.00     0.032 A 
HETATM    7  C   UNL     1      42.446  -9.259   9.459  1.00  0.00     0.026 A 
BRANCH   6   8
HETATM    8  C   UNL     1      42.330  -8.806  11.898  1.00  0.00     0.251 C 
HETATM    9  N   UNL     1      41.541  -8.825  13.036  1.00  0.00    -0.355 N 
HETATM   10  H   UNL     1      40.613  -9.223  12.975  1.00  0.00     0.162 HD
HETATM   11  O   UNL     1      43.545  -8.624  11.945  1.00  0.00    -0.268 OA
BRANCH   9  12
HETATM   12  C   UNL     1      42.151  -8.768  14.354  1.00  0.00     0.153 C 
BRANCH  12  13
HETATM   13  C   UNL     1      42.024  -7.369  15.001  1.00  0.00     0.292 C 
BRANCH  13  14
HETATM   14  N   UNL     1      40.764  -7.103  15.733  1.00  0.00     0.093 N 
HETATM   15  C   UNL     1      40.644  -5.656  16.035  1.00  0.00     0.300 C 
HETATM   16  C   UNL     1      41.591  -5.131  17.142  1.00  0.00     0.264 C 
HETATM   17  N   UNL     1      41.453  -5.969  18.403  1.00  0.00    -0.072 N 
HETATM   18  C   UNL     1      42.382  -5.514  19.487  1.00  0.00     0.269 C 
HETATM   19  H   UNL     1      40.491  -5.843  18.741  1.00  0.00     0.279 HD
HETATM   20  C   UNL     1      41.622  -7.453  18.109  1.00  0.00     0.264 C 
HETATM   21  C   UNL     1      40.646  -7.873  16.991  1.00  0.00     0.300 C 
ENDBRANCH  13  14
ENDBRANCH  12  13
ENDBRANCH   9  12
ENDBRANCH   6   8
ENDBRANCH   1   2
BRANCH   1  22
HETATM   22  N   UNL     1      43.126 -11.200   6.872  1.00  0.00    -0.337 N 
HETATM   23  C   UNL     1      42.281 -12.051   6.117  1.00  0.00     0.280 C 
HETATM   24  O   UNL     1      41.237 -11.590   5.639  1.00  0.00    -0.265 OA
BRANCH  22  25
HETATM   25  C   UNL     1      44.405 -11.599   7.412  1.00  0.00     0.088 A 
HETATM   26  C   UNL     1      45.711 -11.469   6.665  1.00  0.00     0.027 A 
HETATM   27  C   UNL     1      45.428 -10.568   7.822  1.00  0.00     0.027 A 
ENDBRANCH  22  25
BRANCH  23  28
HETATM   28  C   UNL     1      42.647 -13.464   5.929  1.00  0.00     0.166 A 
HETATM   29  N   UNL     1      42.875 -14.347   6.883  1.00  0.00    -0.235 NA
HETATM   30  C   UNL     1      43.128 -15.592   6.333  1.00  0.00     0.075 A 
HETATM   31  C   UNL     1      43.362 -16.782   7.048  1.00  0.00     0.034 A 
HETATM   32  C   UNL     1      43.134 -15.641   4.940  1.00  0.00     0.036 A 
HETATM   33  C   UNL     1      43.578 -17.982   6.356  1.00  0.00     0.014 A 
HETATM   34  C   UNL     1      43.578 -18.019   4.957  1.00  0.00    -0.022 A 
HETATM   35  C   UNL     1      43.361 -16.836   4.234  1.00  0.00     0.033 A 
HETATM   36  S   UNL     1      42.818 -14.069   4.325  1.00  0.00    -0.063 SA
BRANCH  34  37
HETATM   37  C   UNL     1      43.776 -19.282   4.265  1.00  0.00     0.010 A 
HETATM   38  C   UNL     1      43.665 -19.613   2.893  1.00  0.00     0.152 A 
HETATM   39  N   UNL     1      43.928 -20.898   2.647  1.00  0.00    -0.187 NA
HETATM   40  N   UNL     1      44.210 -21.399   3.858  1.00  0.00    -0.289 N 
HETATM   41  H   UNL     1      44.447 -22.384   3.929  1.00  0.00     0.188 HD
HETATM   42  C   UNL     1      44.132 -20.474   4.860  1.00  0.00     0.123 A 
ENDBRANCH  34  37
ENDBRANCH  23  28
ENDBRANCH   1  22
TORSDOF 9
ENDMDL
MODEL 5
REMARK VINA RESULT:      -8.9      1.983      2.508
REMARK  9 active torsions:
REMARK  status: ('A' for Active; 'I' for Inactive)
REMARK    1  A    between atoms: N_6  and  C_7 
REMARK    2  A    between atoms: C_7  and  C_8 
REMARK    3  A    between atoms: C_8  and  N_9 
REMARK       I    between atoms: N_9  and  C_10 
REMARK    4  A    between atoms: C_10  and  C_12 
REMARK    5  A    between atoms: C_16  and  C_17 
REMARK    6  A    between atoms: C_17  and  N_18 
REMARK    7  A    between atoms: N_18  and  C_19 
REMARK       I    between atoms: N_18  and  C_22 
REMARK    8  A    between atoms: C_22  and  C_24 
REMARK    9  A    between atoms: C_29  and  C_33 
ROOT
HETATM    1  C   UNL     1      43.494  -9.872   7.577  1.00  0.00     0.165 C 
ENDROOT
BRANCH   1   2
HETATM    2  C   UNL     1      43.240  -9.939   9.066  1.00  0.00    -0.039 A 
HETATM    3  C   UNL     1      44.266 -10.294   9.951  1.00  0.00     0.009 A 
HETATM    4  C   UNL     1      44.036 -10.334  11.327  1.00  0.00     0.002 A 
HETATM    5  C   UNL     1      42.781 -10.003  11.840  1.00  0.00     0.017 A 
HETATM    6  C   UNL     1      41.749  -9.622  10.975  1.00  0.00     0.032 A 
HETATM    7  C   UNL     1      41.979  -9.609   9.590  1.00  0.00     0.026 A 
BRANCH   6   8
HETATM    8  C   UNL     1      40.395  -9.232  11.464  1.00  0.00     0.251 C 
HETATM    9  N   UNL     1      40.201  -7.899  11.787  1.00  0.00    -0.355 N 
HETATM   10  H   UNL     1      40.882  -7.221  11.468  1.00  0.00     0.162 HD
HETATM   11  O   UNL     1      39.493 -10.064  11.545  1.00  0.00    -0.268 OA
BRANCH   9  12
HETATM   12  C   UNL     1      38.872  -7.404  12.103  1.00  0.00     0.153 C 
BRANCH  12  13
HETATM   13  C   UNL     1      38.904  -6.238  13.116  1.00  0.00     0.292 C 
BRANCH  13  14
HETATM   14  N   UNL     1      37.592  -5.647  13.471  1.00  0.00     0.093 N 
HETATM   15  C   UNL     1      36.994  -4.982  12.288  1.00  0.00     0.300 C 
HETATM   16  C   UNL     1      37.665  -3.652  11.868  1.00  0.00     0.264 C 
HETATM   17  N   UNL     1      37.748  -2.700  13.050  1.00  0.00    -0.072 N 
HETATM   18  C   UNL     1      38.426  -1.412  12.691  1.00  0.00     0.269 C 
HETATM   19  H   UNL     1      36.783  -2.480  13.324  1.00  0.00     0.279 HD
HETATM   20  C   UNL     1      38.405  -3.360  14.254  1.00  0.00     0.264 C 
HETATM   21  C   UNL     1      37.672  -4.676  14.585  1.00  0.00     0.300 C 
ENDBRANCH  13  14
ENDBRANCH  12  13
ENDBRANCH   9  12
ENDBRANCH   6   8
ENDBRANCH   1   2
BRANCH   1  22
HETATM   22  N   UNL     1      43.679 -11.185   6.958  1.00  0.00    -0.337 N 
HETATM   23  C   UNL     1      42.552 -11.785   6.344  1.00  0.00     0.280 C 
HETATM   24  O   UNL     1      41.461 -11.204   6.391  1.00  0.00    -0.265 OA
BRANCH  22  25
HETATM   25  C   UNL     1      45.017 -11.725   6.903  1.00  0.00     0.088 A 
HETATM   26  C   UNL     1      45.990 -11.450   5.780  1.00  0.00     0.027 A 
HETATM   27  C   UNL     1      46.220 -10.840   7.125  1.00  0.00     0.027 A 
ENDBRANCH  22  25
BRANCH  23  28
HETATM   28  C   UNL     1      42.692 -13.091   5.678  1.00  0.00     0.166 A 
HETATM   29  N   UNL     1      42.739 -13.303   4.377  1.00  0.00    -0.235 NA
HETATM   30  C   UNL     1      42.942 -14.649   4.119  1.00  0.00     0.075 A 
HETATM   31  C   UNL     1      43.096 -15.235   2.848  1.00  0.00     0.034 A 
HETATM   32  C   UNL     1      43.006 -15.471   5.243  1.00  0.00     0.036 A 
HETATM   33  C   UNL     1      43.323 -16.614   2.739  1.00  0.00     0.014 A 
HETATM   34  C   UNL     1      43.390 -17.429   3.875  1.00  0.00    -0.022 A 
HETATM   35  C   UNL     1      43.222 -16.857   5.146  1.00  0.00     0.033 A 
HETATM   36  S   UNL     1      42.796 -14.509   6.651  1.00  0.00    -0.063 SA
BRANCH  34  37
HETATM   37  C   UNL     1      43.655 -18.851   3.734  1.00  0.00     0.010 A 
HETATM   38  C   UNL     1      43.593 -19.696   2.600  1.00  0.00     0.152 A 
HETATM   39  N   UNL     1      43.912 -20.962   2.880  1.00  0.00    -0.187 NA
HETATM   40  N   UNL     1      44.179 -20.937   4.194  1.00  0.00    -0.289 N 
HETATM   41  H   UNL     1      44.451 -21.803   4.647  1.00  0.00     0.188 HD
HETATM   42  C   UNL     1      44.039 -19.698   4.753  1.00  0.00     0.123 A 
ENDBRANCH  34  37
ENDBRANCH  23  28
ENDBRANCH   1  22
TORSDOF 9
ENDMDL
MODEL 6
REMARK VINA RESULT:      -8.8      1.696      2.580
REMARK  9 active torsions:
REMARK  status: ('A' for Active; 'I' for Inactive)
REMARK    1  A    between atoms: N_6  and  C_7 
REMARK    2  A    between atoms: C_7  and  C_8 
REMARK    3  A    between atoms: C_8  and  N_9 
REMARK       I    between atoms: N_9  and  C_10 
REMARK    4  A    between atoms: C_10  and  C_12 
REMARK    5  A    between atoms: C_16  and  C_17 
REMARK    6  A    between atoms: C_17  and  N_18 
REMARK    7  A    between atoms: N_18  and  C_19 
REMARK       I    between atoms: N_18  and  C_22 
REMARK    8  A    between atoms: C_22  and  C_24 
REMARK    9  A    between atoms: C_29  and  C_33 
ROOT
HETATM    1  C   UNL     1      41.451  -9.661   5.374  1.00  0.00     0.165 C 
ENDROOT
BRANCH   1   2
HETATM    2  C   UNL     1      41.952  -9.459   6.786  1.00  0.00    -0.039 A 
HETATM    3  C   UNL     1      43.296  -9.146   7.029  1.00  0.00     0.009 A 
HETATM    4  C   UNL     1      43.754  -8.937   8.331  1.00  0.00     0.002 A 
HETATM    5  C   UNL     1      42.870  -9.021   9.408  1.00  0.00     0.017 A 
HETATM    6  C   UNL     1      41.518  -9.308   9.185  1.00  0.00     0.032 A 
HETATM    7  C   UNL     1      41.070  -9.542   7.875  1.00  0.00     0.026 A 
BRANCH   6   8
HETATM    8  C   UNL     1      40.521  -9.384  10.292  1.00  0.00     0.251 C 
HETATM    9  N   UNL     1      40.930  -9.989  11.468  1.00  0.00    -0.355 N 
HETATM   10  H   UNL     1      41.921 -10.139  11.616  1.00  0.00     0.162 HD
HETATM   11  O   UNL     1      39.398  -8.901  10.159  1.00  0.00    -0.268 OA
BRANCH   9  12
HETATM   12  C   UNL     1      40.084  -9.950  12.649  1.00  0.00     0.153 C 
BRANCH  12  13
HETATM   13  C   UNL     1      40.592  -8.940  13.703  1.00  0.00     0.292 C 
BRANCH  13  14
HETATM   14  N   UNL     1      41.530  -7.903  13.212  1.00  0.00     0.093 N 
HETATM   15  C   UNL     1      42.690  -7.786  14.129  1.00  0.00     0.300 C 
HETATM   16  C   UNL     1      42.392  -7.108  15.488  1.00  0.00     0.264 C 
HETATM   17  N   UNL     1      41.722  -5.760  15.276  1.00  0.00    -0.072 N 
HETATM   18  C   UNL     1      41.384  -5.088  16.571  1.00  0.00     0.269 C 
HETATM   19  H   UNL     1      42.398  -5.166  14.781  1.00  0.00     0.279 HD
HETATM   20  C   UNL     1      40.502  -5.879  14.373  1.00  0.00     0.264 C 
HETATM   21  C   UNL     1      40.900  -6.573  13.055  1.00  0.00     0.300 C 
ENDBRANCH  13  14
ENDBRANCH  12  13
ENDBRANCH   9  12
ENDBRANCH   6   8
ENDBRANCH   1   2
BRANCH   1  22
HETATM   22  N   UNL     1      41.491 -11.056   4.936  1.00  0.00    -0.337 N 
HETATM   23  C   UNL     1      42.750 -11.595   4.573  1.00  0.00     0.280 C 
HETATM   24  O   UNL     1      43.746 -10.862   4.598  1.00  0.00    -0.265 OA
BRANCH  22  25
HETATM   25  C   UNL     1      40.273 -11.828   5.021  1.00  0.00     0.088 A 
HETATM   26  C   UNL     1      39.785 -12.492   6.288  1.00  0.00     0.027 A 
HETATM   27  C   UNL     1      39.067 -11.293   5.757  1.00  0.00     0.027 A 
ENDBRANCH  22  25
BRANCH  23  28
HETATM   28  C   UNL     1      42.850 -13.003   4.158  1.00  0.00     0.166 A 
HETATM   29  N   UNL     1      42.829 -13.456   2.918  1.00  0.00    -0.235 NA
HETATM   30  C   UNL     1      43.013 -14.829   2.907  1.00  0.00     0.075 A 
HETATM   31  C   UNL     1      43.099 -15.644   1.763  1.00  0.00     0.034 A 
HETATM   32  C   UNL     1      43.130 -15.428   4.161  1.00  0.00     0.036 A 
HETATM   33  C   UNL     1      43.314 -17.023   1.902  1.00  0.00     0.014 A 
HETATM   34  C   UNL     1      43.435 -17.611   3.166  1.00  0.00    -0.022 A 
HETATM   35  C   UNL     1      43.334 -16.810   4.314  1.00  0.00     0.033 A 
HETATM   36  S   UNL     1      42.996 -14.217   5.372  1.00  0.00    -0.063 SA
BRANCH  34  37
HETATM   37  C   UNL     1      43.686 -19.039   3.281  1.00  0.00     0.010 A 
HETATM   38  C   UNL     1      43.620 -20.071   2.315  1.00  0.00     0.152 A 
HETATM   39  N   UNL     1      43.924 -21.270   2.817  1.00  0.00    -0.187 NA
HETATM   40  N   UNL     1      44.187 -21.014   4.107  1.00  0.00    -0.289 N 
HETATM   41  H   UNL     1      44.449 -21.789   4.708  1.00  0.00     0.188 HD
HETATM   42  C   UNL     1      44.058 -19.695   4.436  1.00  0.00     0.123 A 
ENDBRANCH  34  37
ENDBRANCH  23  28
ENDBRANCH   1  22
TORSDOF 9
ENDMDL
MODEL 7
REMARK VINA RESULT:      -8.7      3.729      5.266
REMARK  9 active torsions:
REMARK  status: ('A' for Active; 'I' for Inactive)
REMARK    1  A    between atoms: N_6  and  C_7 
REMARK    2  A    between atoms: C_7  and  C_8 
REMARK    3  A    between atoms: C_8  and  N_9 
REMARK       I    between atoms: N_9  and  C_10 
REMARK    4  A    between atoms: C_10  and  C_12 
REMARK    5  A    between atoms: C_16  and  C_17 
REMARK    6  A    between atoms: C_17  and  N_18 
REMARK    7  A    between atoms: N_18  and  C_19 
REMARK       I    between atoms: N_18  and  C_22 
REMARK    8  A    between atoms: C_22  and  C_24 
REMARK    9  A    between atoms: C_29  and  C_33 
ROOT
HETATM    1  C   UNL     1      44.718 -12.517   6.652  1.00  0.00     0.165 C 
ENDROOT
BRANCH   1   2
HETATM    2  C   UNL     1      44.688 -11.175   7.348  1.00  0.00    -0.039 A 
HETATM    3  C   UNL     1      45.858 -10.417   7.489  1.00  0.00     0.009 A 
HETATM    4  C   UNL     1      45.826  -9.168   8.111  1.00  0.00     0.002 A 
HETATM    5  C   UNL     1      44.620  -8.651   8.587  1.00  0.00     0.017 A 
HETATM    6  C   UNL     1      43.435  -9.382   8.434  1.00  0.00     0.032 A 
HETATM    7  C   UNL     1      43.479 -10.648   7.830  1.00  0.00     0.026 A 
BRANCH   6   8
HETATM    8  C   UNL     1      42.113  -8.871   8.897  1.00  0.00     0.251 C 
HETATM    9  N   UNL     1      41.364  -9.707   9.709  1.00  0.00    -0.355 N 
HETATM   10  H   UNL     1      41.821 -10.502  10.137  1.00  0.00     0.162 HD
HETATM   11  O   UNL     1      41.732  -7.744   8.586  1.00  0.00    -0.268 OA
BRANCH   9  12
HETATM   12  C   UNL     1      40.149  -9.221  10.343  1.00  0.00     0.153 C 
BRANCH  12  13
HETATM   13  C   UNL     1      40.352  -8.913  11.844  1.00  0.00     0.292 C 
BRANCH  13  14
HETATM   14  N   UNL     1      41.387  -7.904  12.168  1.00  0.00     0.093 N 
HETATM   15  C   UNL     1      42.441  -8.506  13.020  1.00  0.00     0.300 C 
HETATM   16  C   UNL     1      42.025  -8.790  14.484  1.00  0.00     0.264 C 
HETATM   17  N   UNL     1      41.446  -7.538  15.126  1.00  0.00    -0.072 N 
HETATM   18  C   UNL     1      40.998  -7.783  16.534  1.00  0.00     0.269 C 
HETATM   19  H   UNL     1      42.202  -6.842  15.154  1.00  0.00     0.279 HD
HETATM   20  C   UNL     1      40.331  -6.940  14.280  1.00  0.00     0.264 C 
HETATM   21  C   UNL     1      40.842  -6.705  12.843  1.00  0.00     0.300 C 
ENDBRANCH  13  14
ENDBRANCH  12  13
ENDBRANCH   9  12
ENDBRANCH   6   8
ENDBRANCH   1   2
BRANCH   1  22
HETATM   22  N   UNL     1      43.641 -12.691   5.677  1.00  0.00    -0.337 N 
HETATM   23  C   UNL     1      43.775 -12.037   4.427  1.00  0.00     0.280 C 
HETATM   24  O   UNL     1      44.763 -11.320   4.227  1.00  0.00    -0.265 OA
BRANCH  22  25
HETATM   25  C   UNL     1      42.576 -13.612   6.001  1.00  0.00     0.088 A 
HETATM   26  C   UNL     1      42.608 -15.085   5.665  1.00  0.00     0.027 A 
HETATM   27  C   UNL     1      42.751 -14.647   7.087  1.00  0.00     0.027 A 
ENDBRANCH  22  25
BRANCH  23  28
HETATM   28  C   UNL     1      42.735 -12.206   3.399  1.00  0.00     0.166 A 
HETATM   29  N   UNL     1      41.615 -11.515   3.300  1.00  0.00    -0.235 NA
HETATM   30  C   UNL     1      40.911 -11.904   2.172  1.00  0.00     0.075 A 
HETATM   31  C   UNL     1      39.699 -11.349   1.719  1.00  0.00     0.034 A 
HETATM   32  C   UNL     1      41.489 -12.935   1.432  1.00  0.00     0.036 A 
HETATM   33  C   UNL     1      39.111 -11.827   0.539  1.00  0.00     0.014 A 
HETATM   34  C   UNL     1      39.702 -12.859  -0.197  1.00  0.00    -0.022 A 
HETATM   35  C   UNL     1      40.902 -13.431   0.254  1.00  0.00     0.033 A 
HETATM   36  S   UNL     1      42.950 -13.419   2.195  1.00  0.00    -0.063 SA
BRANCH  34  37
HETATM   37  C   UNL     1      39.086 -13.316  -1.432  1.00  0.00     0.010 A 
HETATM   38  C   UNL     1      39.549 -14.219  -2.419  1.00  0.00     0.152 A 
HETATM   39  N   UNL     1      38.682 -14.380  -3.421  1.00  0.00    -0.187 NA
HETATM   40  N   UNL     1      37.658 -13.583  -3.083  1.00  0.00    -0.289 N 
HETATM   41  H   UNL     1      36.858 -13.536  -3.707  1.00  0.00     0.188 HD
HETATM   42  C   UNL     1      37.850 -12.922  -1.903  1.00  0.00     0.123 A 
ENDBRANCH  34  37
ENDBRANCH  23  28
ENDBRANCH   1  22
TORSDOF 9
ENDMDL
MODEL 8
REMARK VINA RESULT:      -8.7      5.466      9.384
REMARK  9 active torsions:
REMARK  status: ('A' for Active; 'I' for Inactive)
REMARK    1  A    between atoms: N_6  and  C_7 
REMARK    2  A    between atoms: C_7  and  C_8 
REMARK    3  A    between atoms: C_8  and  N_9 
REMARK       I    between atoms: N_9  and  C_10 
REMARK    4  A    between atoms: C_10  and  C_12 
REMARK    5  A    between atoms: C_16  and  C_17 
REMARK    6  A    between atoms: C_17  and  N_18 
REMARK    7  A    between atoms: N_18  and  C_19 
REMARK       I    between atoms: N_18  and  C_22 
REMARK    8  A    between atoms: C_22  and  C_24 
REMARK    9  A    between atoms: C_29  and  C_33 
ROOT
HETATM    1  C   UNL     1      41.202 -10.150   6.830  1.00  0.00     0.165 C 
ENDROOT
BRANCH   1   2
HETATM    2  C   UNL     1      41.227  -8.940   5.923  1.00  0.00    -0.039 A 
HETATM    3  C   UNL     1      41.655  -7.696   6.404  1.00  0.00     0.009 A 
HETATM    4  C   UNL     1      41.701  -6.585   5.561  1.00  0.00     0.002 A 
HETATM    5  C   UNL     1      41.333  -6.705   4.219  1.00  0.00     0.017 A 
HETATM    6  C   UNL     1      40.925  -7.944   3.713  1.00  0.00     0.032 A 
HETATM    7  C   UNL     1      40.858  -9.052   4.573  1.00  0.00     0.026 A 
BRANCH   6   8
HETATM    8  C   UNL     1      40.547  -8.142   2.284  1.00  0.00     0.251 C 
HETATM    9  N   UNL     1      41.329  -9.010   1.539  1.00  0.00    -0.355 N 
HETATM   10  H   UNL     1      41.956  -9.636   2.028  1.00  0.00     0.162 HD
HETATM   11  O   UNL     1      39.565  -7.573   1.811  1.00  0.00    -0.268 OA
BRANCH   9  12
HETATM   12  C   UNL     1      40.928  -9.391   0.195  1.00  0.00     0.153 C 
BRANCH  12  13
HETATM   13  C   UNL     1      40.957 -10.922  -0.015  1.00  0.00     0.292 C 
BRANCH  13  14
HETATM   14  N   UNL     1      39.974 -11.706   0.769  1.00  0.00     0.093 N 
HETATM   15  C   UNL     1      40.105 -13.150   0.457  1.00  0.00     0.300 C 
HETATM   16  C   UNL     1      39.580 -13.574  -0.936  1.00  0.00     0.264 C 
HETATM   17  N   UNL     1      38.151 -13.096  -1.136  1.00  0.00    -0.072 N 
HETATM   18  C   UNL     1      37.618 -13.457  -2.489  1.00  0.00     0.269 C 
HETATM   19  H   UNL     1      37.575 -13.577  -0.434  1.00  0.00     0.279 HD
HETATM   20  C   UNL     1      38.017 -11.604  -0.862  1.00  0.00     0.264 C 
HETATM   21  C   UNL     1      38.575 -11.284   0.540  1.00  0.00     0.300 C 
ENDBRANCH  13  14
ENDBRANCH  12  13
ENDBRANCH   9  12
ENDBRANCH   6   8
ENDBRANCH   1   2
BRANCH   1  22
HETATM   22  N   UNL     1      41.733 -11.359   6.200  1.00  0.00    -0.337 N 
HETATM   23  C   UNL     1      40.805 -12.264   5.628  1.00  0.00     0.280 C 
HETATM   24  O   UNL     1      39.596 -12.021   5.719  1.00  0.00    -0.265 OA
BRANCH  22  25
HETATM   25  C   UNL     1      43.168 -11.492   6.092  1.00  0.00     0.088 A 
HETATM   26  C   UNL     1      44.147 -10.824   7.030  1.00  0.00     0.027 A 
HETATM   27  C   UNL     1      43.948 -12.304   7.098  1.00  0.00     0.027 A 
ENDBRANCH  22  25
BRANCH  23  28
HETATM   28  C   UNL     1      41.290 -13.479   4.954  1.00  0.00     0.166 A 
HETATM   29  N   UNL     1      41.772 -13.553   3.728  1.00  0.00    -0.235 NA
HETATM   30  C   UNL     1      42.191 -14.845   3.455  1.00  0.00     0.075 A 
HETATM   31  C   UNL     1      42.804 -15.284   2.267  1.00  0.00     0.034 A 
HETATM   32  C   UNL     1      41.981 -15.771   4.477  1.00  0.00     0.036 A 
HETATM   33  C   UNL     1      43.202 -16.622   2.140  1.00  0.00     0.014 A 
HETATM   34  C   UNL     1      42.990 -17.541   3.174  1.00  0.00    -0.022 A 
HETATM   35  C   UNL     1      42.364 -17.118   4.357  1.00  0.00     0.033 A 
HETATM   36  S   UNL     1      41.230 -14.977   5.803  1.00  0.00    -0.063 SA
BRANCH  34  37
HETATM   37  C   UNL     1      43.438 -18.916   3.026  1.00  0.00     0.010 A 
HETATM   38  C   UNL     1      43.467 -19.764   1.893  1.00  0.00     0.152 A 
HETATM   39  N   UNL     1      43.955 -20.976   2.165  1.00  0.00    -0.187 NA
HETATM   40  N   UNL     1      44.241 -20.914   3.474  1.00  0.00    -0.289 N 
HETATM   41  H   UNL     1      44.633 -21.737   3.922  1.00  0.00     0.188 HD
HETATM   42  C   UNL     1      43.949 -19.704   4.037  1.00  0.00     0.123 A 
ENDBRANCH  34  37
ENDBRANCH  23  28
ENDBRANCH   1  22
TORSDOF 9
ENDMDL
MODEL 9
REMARK VINA RESULT:      -8.7      3.353     12.941
REMARK  9 active torsions:
REMARK  status: ('A' for Active; 'I' for Inactive)
REMARK    1  A    between atoms: N_6  and  C_7 
REMARK    2  A    between atoms: C_7  and  C_8 
REMARK    3  A    between atoms: C_8  and  N_9 
REMARK       I    between atoms: N_9  and  C_10 
REMARK    4  A    between atoms: C_10  and  C_12 
REMARK    5  A    between atoms: C_16  and  C_17 
REMARK    6  A    between atoms: C_17  and  N_18 
REMARK    7  A    between atoms: N_18  and  C_19 
REMARK       I    between atoms: N_18  and  C_22 
REMARK    8  A    between atoms: C_22  and  C_24 
REMARK    9  A    between atoms: C_29  and  C_33 
ROOT
HETATM    1  C   UNL     1      42.098  -8.086   9.430  1.00  0.00     0.165 C 
ENDROOT
BRANCH   1   2
HETATM    2  C   UNL     1      43.340  -8.915   9.193  1.00  0.00    -0.039 A 
HETATM    3  C   UNL     1      44.501  -8.695   9.947  1.00  0.00     0.009 A 
HETATM    4  C   UNL     1      45.639  -9.476   9.744  1.00  0.00     0.002 A 
HETATM    5  C   UNL     1      45.629 -10.500   8.795  1.00  0.00     0.017 A 
HETATM    6  C   UNL     1      44.472 -10.752   8.049  1.00  0.00     0.032 A 
HETATM    7  C   UNL     1      43.339  -9.947   8.240  1.00  0.00     0.026 A 
BRANCH   6   8
HETATM    8  C   UNL     1      44.391 -11.848   7.040  1.00  0.00     0.251 C 
HETATM    9  N   UNL     1      43.441 -12.833   7.255  1.00  0.00    -0.355 N 
HETATM   10  H   UNL     1      42.706 -12.657   7.928  1.00  0.00     0.162 HD
HETATM   11  O   UNL     1      45.124 -11.848   6.054  1.00  0.00    -0.268 OA
BRANCH   9  12
HETATM   12  C   UNL     1      43.179 -13.836   6.236  1.00  0.00     0.153 C 
BRANCH  12  13
HETATM   13  C   UNL     1      42.171 -13.345   5.173  1.00  0.00     0.292 C 
BRANCH  13  14
HETATM   14  N   UNL     1      40.755 -13.724   5.393  1.00  0.00     0.093 N 
HETATM   15  C   UNL     1      40.610 -15.199   5.363  1.00  0.00     0.300 C 
HETATM   16  C   UNL     1      40.738 -15.848   3.964  1.00  0.00     0.264 C 
HETATM   17  N   UNL     1      39.790 -15.182   2.979  1.00  0.00    -0.072 N 
HETATM   18  C   UNL     1      39.910 -15.760   1.601  1.00  0.00     0.269 C 
HETATM   19  H   UNL     1      38.836 -15.367   3.313  1.00  0.00     0.279 HD
HETATM   20  C   UNL     1      39.966 -13.670   2.969  1.00  0.00     0.264 C 
HETATM   21  C   UNL     1      39.831 -13.125   4.405  1.00  0.00     0.300 C 
ENDBRANCH  13  14
ENDBRANCH  12  13
ENDBRANCH   9  12
ENDBRANCH   6   8
ENDBRANCH   1   2
BRANCH   1  22
HETATM   22  N   UNL     1      41.645  -8.102  10.821  1.00  0.00    -0.337 N 
HETATM   23  C   UNL     1      41.969  -6.984  11.630  1.00  0.00     0.280 C 
HETATM   24  O   UNL     1      42.650  -6.071  11.147  1.00  0.00    -0.265 OA
BRANCH  22  25
HETATM   25  C   UNL     1      40.794  -9.190  11.244  1.00  0.00     0.088 A 
HETATM   26  C   UNL     1      39.318  -9.042  11.528  1.00  0.00     0.027 A 
HETATM   27  C   UNL     1      39.766  -9.779  10.308  1.00  0.00     0.027 A 
ENDBRANCH  22  25
BRANCH  23  28
HETATM   28  C   UNL     1      41.508  -6.935  13.027  1.00  0.00     0.166 A 
HETATM   29  N   UNL     1      40.532  -6.186  13.503  1.00  0.00    -0.235 NA
HETATM   30  C   UNL     1      40.336  -6.452  14.848  1.00  0.00     0.075 A 
HETATM   31  C   UNL     1      39.348  -5.879  15.670  1.00  0.00     0.034 A 
HETATM   32  C   UNL     1      41.208  -7.385  15.407  1.00  0.00     0.036 A 
HETATM   33  C   UNL     1      39.249  -6.265  17.015  1.00  0.00     0.014 A 
HETATM   34  C   UNL     1      40.127  -7.206  17.563  1.00  0.00    -0.022 A 
HETATM   35  C   UNL     1      41.127  -7.771  16.756  1.00  0.00     0.033 A 
HETATM   36  S   UNL     1      42.299  -7.925  14.195  1.00  0.00    -0.063 SA
BRANCH  34  37
HETATM   37  C   UNL     1      39.985  -7.608  18.953  1.00  0.00     0.010 A 
HETATM   38  C   UNL     1      39.209  -8.633  19.545  1.00  0.00     0.152 A 
HETATM   39  N   UNL     1      39.347  -8.687  20.871  1.00  0.00    -0.187 NA
HETATM   40  N   UNL     1      40.212  -7.698  21.139  1.00  0.00    -0.289 N 
HETATM   41  H   UNL     1      40.478  -7.539  22.105  1.00  0.00     0.188 HD
HETATM   42  C   UNL     1      40.623  -7.021  20.026  1.00  0.00     0.123 A 
ENDBRANCH  34  37
ENDBRANCH  23  28
ENDBRANCH   1  22
TORSDOF 9
ENDMDL
MODEL 10
REMARK VINA RESULT:      -8.7      3.472     12.401
REMARK  9 active torsions:
REMARK  status: ('A' for Active; 'I' for Inactive)
REMARK    1  A    between atoms: N_6  and  C_7 
REMARK    2  A    between atoms: C_7  and  C_8 
REMARK    3  A    between atoms: C_8  and  N_9 
REMARK       I    between atoms: N_9  and  C_10 
REMARK    4  A    between atoms: C_10  and  C_12 
REMARK    5  A    between atoms: C_16  and  C_17 
REMARK    6  A    between atoms: C_17  and  N_18 
REMARK    7  A    between atoms: N_18  and  C_19 
REMARK       I    between atoms: N_18  and  C_22 
REMARK    8  A    between atoms: C_22  and  C_24 
REMARK    9  A    between atoms: C_29  and  C_33 
ROOT
HETATM    1  C   UNL     1      43.658 -11.516   5.369  1.00  0.00     0.165 C 
ENDROOT
BRANCH   1   2
HETATM    2  C   UNL     1      43.428 -13.011   5.362  1.00  0.00    -0.039 A 
HETATM    3  C   UNL     1      43.879 -13.808   6.422  1.00  0.00     0.009 A 
HETATM    4  C   UNL     1      43.645 -15.184   6.426  1.00  0.00     0.002 A 
HETATM    5  C   UNL     1      42.943 -15.781   5.378  1.00  0.00     0.017 A 
HETATM    6  C   UNL     1      42.462 -14.999   4.321  1.00  0.00     0.032 A 
HETATM    7  C   UNL     1      42.722 -13.619   4.311  1.00  0.00     0.026 A 
BRANCH   6   8
HETATM    8  C   UNL     1      41.683 -15.574   3.188  1.00  0.00     0.251 C 
HETATM    9  N   UNL     1      40.725 -14.761   2.604  1.00  0.00    -0.355 N 
HETATM   10  H   UNL     1      40.750 -13.768   2.800  1.00  0.00     0.162 HD
HETATM   11  O   UNL     1      41.911 -16.712   2.783  1.00  0.00    -0.268 OA
BRANCH   9  12
HETATM   12  C   UNL     1      40.046 -15.179   1.389  1.00  0.00     0.153 C 
BRANCH  12  13
HETATM   13  C   UNL     1      40.483 -14.353   0.158  1.00  0.00     0.292 C 
BRANCH  13  14
HETATM   14  N   UNL     1      39.440 -13.495  -0.454  1.00  0.00     0.093 N 
HETATM   15  C   UNL     1      39.833 -13.117  -1.833  1.00  0.00     0.300 C 
HETATM   16  C   UNL     1      40.978 -12.081  -1.933  1.00  0.00     0.264 C 
HETATM   17  N   UNL     1      40.660 -10.852  -1.096  1.00  0.00    -0.072 N 
HETATM   18  C   UNL     1      41.763  -9.839  -1.139  1.00  0.00     0.269 C 
HETATM   19  H   UNL     1      39.823 -10.421  -1.507  1.00  0.00     0.279 HD
HETATM   20  C   UNL     1      40.301 -11.228   0.334  1.00  0.00     0.264 C 
HETATM   21  C   UNL     1      39.163 -12.269   0.326  1.00  0.00     0.300 C 
ENDBRANCH  13  14
ENDBRANCH  12  13
ENDBRANCH   9  12
ENDBRANCH   6   8
ENDBRANCH   1   2
BRANCH   1  22
HETATM   22  N   UNL     1      43.247 -10.870   6.616  1.00  0.00    -0.337 N 
HETATM   23  C   UNL     1      44.268 -10.437   7.498  1.00  0.00     0.280 C 
HETATM   24  O   UNL     1      45.449 -10.657   7.204  1.00  0.00    -0.265 OA
BRANCH  22  25
HETATM   25  C   UNL     1      41.841 -10.604   6.810  1.00  0.00     0.088 A 
HETATM   26  C   UNL     1      41.156  -9.334   6.363  1.00  0.00     0.027 A 
HETATM   27  C   UNL     1      40.883 -10.614   5.643  1.00  0.00     0.027 A 
ENDBRANCH  22  25
BRANCH  23  28
HETATM   28  C   UNL     1      43.909  -9.752   8.750  1.00  0.00     0.166 A 
HETATM   29  N   UNL     1      43.594  -8.477   8.881  1.00  0.00    -0.235 NA
HETATM   30  C   UNL     1      43.251  -8.201  10.194  1.00  0.00     0.075 A 
HETATM   31  C   UNL     1      42.810  -6.961  10.693  1.00  0.00     0.034 A 
HETATM   32  C   UNL     1      43.351  -9.276  11.078  1.00  0.00     0.036 A 
HETATM   33  C   UNL     1      42.470  -6.834  12.047  1.00  0.00     0.014 A 
HETATM   34  C   UNL     1      42.570  -7.921  12.923  1.00  0.00    -0.022 A 
HETATM   35  C   UNL     1      43.023  -9.158  12.440  1.00  0.00     0.033 A 
HETATM   36  S   UNL     1      43.899 -10.657  10.216  1.00  0.00    -0.063 SA
BRANCH  34  37
HETATM   37  C   UNL     1      42.183  -7.769  14.316  1.00  0.00     0.010 A 
HETATM   38  C   UNL     1      42.568  -6.810  15.284  1.00  0.00     0.152 A 
HETATM   39  N   UNL     1      41.989  -7.010  16.469  1.00  0.00    -0.187 NA
HETATM   40  N   UNL     1      41.230  -8.098  16.270  1.00  0.00    -0.289 N 
HETATM   41  H   UNL     1      40.682  -8.452  17.048  1.00  0.00     0.188 HD
HETATM   42  C   UNL     1      41.312  -8.592  14.999  1.00  0.00     0.123 A 
ENDBRANCH  34  37
ENDBRANCH  23  28
ENDBRANCH   1  22
TORSDOF 9
ENDMDL
