MODEL 1
REMARK VINA RESULT:      -7.8      0.000      0.000
REMARK  7 active torsions:
REMARK  status: ('A' for Active; 'I' for Inactive)
REMARK    1  A    between atoms: C_2  and  C_3 
REMARK    2  A    between atoms: C_4  and  N_5 
REMARK       I    between atoms: N_5  and  C_6 
REMARK    3  A    between atoms: C_6  and  C_7 
REMARK    4  A    between atoms: C_7  and  N_8 
REMARK    5  A    between atoms: N_12  and  C_13 
REMARK    6  A    between atoms: C_14  and  O_15 
REMARK    7  A    between atoms: C_24  and  C_25 
ROOT
HETATM    1  N   UNL     1      41.944  -9.932   8.316  1.00  0.00    -0.325 N 
HETATM    2  C   UNL     1      41.980  -9.235   7.122  1.00  0.00     0.248 C 
HETATM    3  O   UNL     1      42.130  -8.022   6.984  1.00  0.00    -0.271 OA
HETATM    4  H   UNL     1      41.362 -10.761   8.336  1.00  0.00     0.169 HD
ENDROOT
BRANCH   2   5
HETATM    5  C   UNL     1      41.793 -10.123   5.889  1.00  0.00     0.337 C 
BRANCH   5   6
HETATM    6  N   UNL     1      41.961 -11.601   6.215  1.00  0.00    -0.060 N 
HETATM    7  H   UNL     1      41.821 -11.683   7.234  1.00  0.00     0.280 HD
HETATM    8  C   UNL     1      40.872 -12.481   5.589  1.00  0.00     0.255 C 
HETATM    9  C   UNL     1      41.059 -13.947   6.030  1.00  0.00     0.150 C 
HETATM   10  N   UNL     1      42.418 -14.421   5.728  1.00  0.00    -0.375 N 
HETATM   11  C   UNL     1      43.510 -13.597   6.280  1.00  0.00     0.150 C 
HETATM   12  C   UNL     1      43.347 -12.121   5.866  1.00  0.00     0.255 C 
BRANCH  10  13
HETATM   13  C   UNL     1      42.689 -15.187   4.587  1.00  0.00     0.064 A 
HETATM   14  C   UNL     1      42.706 -16.611   4.624  1.00  0.00     0.094 A 
HETATM   15  C   UNL     1      43.009 -17.353   3.472  1.00  0.00     0.039 A 
HETATM   16  C   UNL     1      43.256 -16.713   2.261  1.00  0.00     0.003 A 
HETATM   17  C   UNL     1      43.202 -15.329   2.191  1.00  0.00     0.002 A 
HETATM   18  C   UNL     1      42.919 -14.581   3.337  1.00  0.00     0.032 A 
BRANCH  14  19
HETATM   19  O   UNL     1      42.395 -17.202   5.829  1.00  0.00    -0.354 OA
HETATM   20  C   UNL     1      43.412 -17.979   6.454  1.00  0.00     0.210 C 
ENDBRANCH  14  19
ENDBRANCH  10  13
ENDBRANCH   5   6
ENDBRANCH   2   5
BRANCH   1  21
HETATM   21  C   UNL     1      42.106  -9.286   9.566  1.00  0.00     0.048 A 
HETATM   22  C   UNL     1      40.945  -8.901  10.291  1.00  0.00    -0.027 A 
HETATM   23  C   UNL     1      41.115  -8.300  11.552  1.00  0.00     0.010 A 
HETATM   24  C   UNL     1      42.378  -8.110  12.097  1.00  0.00     0.001 A 
HETATM   25  C   UNL     1      43.506  -8.510  11.390  1.00  0.00     0.010 A 
HETATM   26  C   UNL     1      43.401  -9.104  10.117  1.00  0.00    -0.027 A 
BRANCH  22  27
HETATM   27  C   UNL     1      39.534  -8.980   9.707  1.00  0.00     0.013 C 
HETATM   28  C   UNL     1      38.700  -7.788  10.193  1.00  0.00     0.015 C 
HETATM   29  C   UNL     1      38.810 -10.300  10.000  1.00  0.00     0.015 C 
ENDBRANCH  22  27
BRANCH  26  30
HETATM   30  C   UNL     1      44.681  -9.611   9.457  1.00  0.00     0.013 C 
HETATM   31  C   UNL     1      45.326  -8.557   8.550  1.00  0.00     0.015 C 
HETATM   32  C   UNL     1      45.683 -10.111  10.506  1.00  0.00     0.015 C 
ENDBRANCH  26  30
ENDBRANCH   1  21
TORSDOF 7
ENDMDL
MODEL 2
REMARK VINA RESULT:      -7.7      0.086      3.066
REMARK  7 active torsions:
REMARK  status: ('A' for Active; 'I' for Inactive)
REMARK    1  A    between atoms: C_2  and  C_3 
REMARK    2  A    between atoms: C_4  and  N_5 
REMARK       I    between atoms: N_5  and  C_6 
REMARK    3  A    between atoms: C_6  and  C_7 
REMARK    4  A    between atoms: C_7  and  N_8 
REMARK    5  A    between atoms: N_12  and  C_13 
REMARK    6  A    between atoms: C_14  and  O_15 
REMARK    7  A    between atoms: C_24  and  C_25 
ROOT
HETATM    1  N   UNL     1      42.012  -9.941   8.342  1.00  0.00    -0.325 N 
HETATM    2  C   UNL     1      42.055  -9.219   7.163  1.00  0.00     0.248 C 
HETATM    3  O   UNL     1      42.159  -7.999   7.052  1.00  0.00    -0.271 OA
HETATM    4  H   UNL     1      41.465 -10.793   8.329  1.00  0.00     0.169 HD
ENDROOT
BRANCH   2   5
HETATM    5  C   UNL     1      41.940 -10.090   5.909  1.00  0.00     0.337 C 
BRANCH   5   6
HETATM    6  N   UNL     1      42.046 -11.575   6.228  1.00  0.00    -0.060 N 
HETATM    7  H   UNL     1      41.879 -11.658   7.244  1.00  0.00     0.280 HD
HETATM    8  C   UNL     1      40.941 -12.411   5.571  1.00  0.00     0.255 C 
HETATM    9  C   UNL     1      41.064 -13.885   6.006  1.00  0.00     0.150 C 
HETATM   10  N   UNL     1      42.411 -14.407   5.733  1.00  0.00    -0.375 N 
HETATM   11  C   UNL     1      43.519 -13.627   6.317  1.00  0.00     0.150 C 
HETATM   12  C   UNL     1      43.420 -12.143   5.909  1.00  0.00     0.255 C 
BRANCH  10  13
HETATM   13  C   UNL     1      42.682 -15.176   4.594  1.00  0.00     0.064 A 
HETATM   14  C   UNL     1      42.691 -16.599   4.633  1.00  0.00     0.094 A 
HETATM   15  C   UNL     1      42.992 -17.344   3.482  1.00  0.00     0.039 A 
HETATM   16  C   UNL     1      43.247 -16.707   2.271  1.00  0.00     0.003 A 
HETATM   17  C   UNL     1      43.201 -15.323   2.200  1.00  0.00     0.002 A 
HETATM   18  C   UNL     1      42.919 -14.572   3.344  1.00  0.00     0.032 A 
BRANCH  14  19
HETATM   19  O   UNL     1      42.372 -17.187   5.837  1.00  0.00    -0.354 OA
HETATM   20  C   UNL     1      43.424 -17.841   6.539  1.00  0.00     0.210 C 
ENDBRANCH  14  19
ENDBRANCH  10  13
ENDBRANCH   5   6
ENDBRANCH   2   5
BRANCH   1  21
HETATM   21  C   UNL     1      42.112  -9.314   9.609  1.00  0.00     0.048 A 
HETATM   22  C   UNL     1      43.404  -9.072  10.150  1.00  0.00    -0.027 A 
HETATM   23  C   UNL     1      43.495  -8.410  11.388  1.00  0.00     0.010 A 
HETATM   24  C   UNL     1      42.359  -7.973  12.058  1.00  0.00     0.001 A 
HETATM   25  C   UNL     1      41.102  -8.194  11.510  1.00  0.00     0.010 A 
HETATM   26  C   UNL     1      40.946  -8.864  10.281  1.00  0.00    -0.027 A 
BRANCH  22  27
HETATM   27  C   UNL     1      44.687  -9.621   9.523  1.00  0.00     0.013 C 
HETATM   28  C   UNL     1      45.619 -10.150  10.619  1.00  0.00     0.015 C 
HETATM   29  C   UNL     1      45.422  -8.616   8.628  1.00  0.00     0.015 C 
ENDBRANCH  22  27
BRANCH  26  30
HETATM   30  C   UNL     1      39.538  -8.970   9.698  1.00  0.00     0.013 C 
HETATM   31  C   UNL     1      38.837 -10.272  10.103  1.00  0.00     0.015 C 
HETATM   32  C   UNL     1      38.688  -7.753  10.082  1.00  0.00     0.015 C 
ENDBRANCH  26  30
ENDBRANCH   1  21
TORSDOF 7
ENDMDL
MODEL 3
REMARK VINA RESULT:      -7.7      2.039      9.258
REMARK  7 active torsions:
REMARK  status: ('A' for Active; 'I' for Inactive)
REMARK    1  A    between atoms: C_2  and  C_3 
REMARK    2  A    between atoms: C_4  and  N_5 
REMARK       I    between atoms: N_5  and  C_6 
REMARK    3  A    between atoms: C_6  and  C_7 
REMARK    4  A    between atoms: C_7  and  N_8 
REMARK    5  A    between atoms: N_12  and  C_13 
REMARK    6  A    between atoms: C_14  and  O_15 
REMARK    7  A    between atoms: C_24  and  C_25 
ROOT
HETATM    1  N   UNL     1      41.705 -15.001   4.985  1.00  0.00    -0.325 N 
HETATM    2  C   UNL     1      42.248 -13.730   5.031  1.00  0.00     0.248 C 
HETATM    3  O   UNL     1      43.235 -13.330   4.415  1.00  0.00    -0.271 OA
HETATM    4  H   UNL     1      41.257 -15.330   5.831  1.00  0.00     0.169 HD
ENDROOT
BRANCH   2   5
HETATM    5  C   UNL     1      41.506 -12.782   5.977  1.00  0.00     0.337 C 
BRANCH   5   6
HETATM    6  N   UNL     1      42.376 -11.615   6.422  1.00  0.00    -0.060 N 
HETATM    7  H   UNL     1      42.851 -11.277   5.570  1.00  0.00     0.280 HD
HETATM    8  C   UNL     1      41.562 -10.418   6.929  1.00  0.00     0.255 C 
HETATM    9  C   UNL     1      42.504  -9.249   7.280  1.00  0.00     0.150 C 
HETATM   10  N   UNL     1      43.544  -9.674   8.230  1.00  0.00    -0.375 N 
HETATM   11  C   UNL     1      44.342 -10.841   7.809  1.00  0.00     0.150 C 
HETATM   12  C   UNL     1      43.428 -12.027   7.439  1.00  0.00     0.255 C 
BRANCH  10  13
HETATM   13  C   UNL     1      43.429  -9.421   9.603  1.00  0.00     0.064 A 
HETATM   14  C   UNL     1      43.345  -8.096  10.118  1.00  0.00     0.094 A 
HETATM   15  C   UNL     1      43.259  -7.870  11.501  1.00  0.00     0.039 A 
HETATM   16  C   UNL     1      43.210  -8.938  12.392  1.00  0.00     0.003 A 
HETATM   17  C   UNL     1      43.246 -10.238  11.910  1.00  0.00     0.002 A 
HETATM   18  C   UNL     1      43.350 -10.472  10.536  1.00  0.00     0.032 A 
BRANCH  14  19
HETATM   19  O   UNL     1      43.335  -7.073   9.195  1.00  0.00    -0.354 OA
HETATM   20  C   UNL     1      42.488  -5.961   9.467  1.00  0.00     0.210 C 
ENDBRANCH  14  19
ENDBRANCH  10  13
ENDBRANCH   5   6
ENDBRANCH   2   5
BRANCH   1  21
HETATM   21  C   UNL     1      42.248 -16.018   4.161  1.00  0.00     0.048 A 
HETATM   22  C   UNL     1      43.035 -17.037   4.765  1.00  0.00    -0.027 A 
HETATM   23  C   UNL     1      43.534 -18.067   3.947  1.00  0.00     0.010 A 
HETATM   24  C   UNL     1      43.245 -18.114   2.589  1.00  0.00     0.001 A 
HETATM   25  C   UNL     1      42.456 -17.126   2.013  1.00  0.00     0.010 A 
HETATM   26  C   UNL     1      41.940 -16.062   2.777  1.00  0.00    -0.027 A 
BRANCH  22  27
HETATM   27  C   UNL     1      43.483 -16.988   6.227  1.00  0.00     0.013 C 
HETATM   28  C   UNL     1      44.870 -16.343   6.327  1.00  0.00     0.015 C 
HETATM   29  C   UNL     1      43.469 -18.352   6.928  1.00  0.00     0.015 C 
ENDBRANCH  22  27
BRANCH  26  30
HETATM   30  C   UNL     1      40.994 -15.080   2.088  1.00  0.00     0.013 C 
HETATM   31  C   UNL     1      41.743 -14.057   1.227  1.00  0.00     0.015 C 
HETATM   32  C   UNL     1      39.939 -15.820   1.258  1.00  0.00     0.015 C 
ENDBRANCH  26  30
ENDBRANCH   1  21
TORSDOF 7
ENDMDL
MODEL 4
REMARK VINA RESULT:      -7.5      2.068      8.686
REMARK  7 active torsions:
REMARK  status: ('A' for Active; 'I' for Inactive)
REMARK    1  A    between atoms: C_2  and  C_3 
REMARK    2  A    between atoms: C_4  and  N_5 
REMARK       I    between atoms: N_5  and  C_6 
REMARK    3  A    between atoms: C_6  and  C_7 
REMARK    4  A    between atoms: C_7  and  N_8 
REMARK    5  A    between atoms: N_12  and  C_13 
REMARK    6  A    between atoms: C_14  and  O_15 
REMARK    7  A    between atoms: C_24  and  C_25 
ROOT
HETATM    1  N   UNL     1      42.108 -15.179   4.455  1.00  0.00    -0.325 N 
HETATM    2  C   UNL     1      40.980 -15.152   5.256  1.00  0.00     0.248 C 
HETATM    3  O   UNL     1      40.279 -16.113   5.569  1.00  0.00    -0.271 OA
HETATM    4  H   UNL     1      42.287 -14.350   3.902  1.00  0.00     0.169 HD
ENDROOT
BRANCH   2   5
HETATM    5  C   UNL     1      40.617 -13.750   5.754  1.00  0.00     0.337 C 
BRANCH   5   6
HETATM    6  N   UNL     1      41.837 -12.846   5.864  1.00  0.00    -0.060 N 
HETATM    7  H   UNL     1      42.292 -12.871   4.938  1.00  0.00     0.280 HD
HETATM    8  C   UNL     1      41.474 -11.374   6.092  1.00  0.00     0.255 C 
HETATM    9  C   UNL     1      42.752 -10.511   6.109  1.00  0.00     0.150 C 
HETATM   10  N   UNL     1      43.720 -11.017   7.093  1.00  0.00    -0.375 N 
HETATM   11  C   UNL     1      44.087 -12.438   6.941  1.00  0.00     0.150 C 
HETATM   12  C   UNL     1      42.829 -13.329   6.911  1.00  0.00     0.255 C 
BRANCH  10  13
HETATM   13  C   UNL     1      43.840 -10.442   8.365  1.00  0.00     0.064 A 
HETATM   14  C   UNL     1      45.108 -10.227   8.975  1.00  0.00     0.094 A 
HETATM   15  C   UNL     1      45.198  -9.675  10.263  1.00  0.00     0.039 A 
HETATM   16  C   UNL     1      44.051  -9.289  10.950  1.00  0.00     0.003 A 
HETATM   17  C   UNL     1      42.808  -9.448  10.357  1.00  0.00     0.002 A 
HETATM   18  C   UNL     1      42.707 -10.014   9.083  1.00  0.00     0.032 A 
BRANCH  14  19
HETATM   19  O   UNL     1      46.218 -10.568   8.233  1.00  0.00    -0.354 OA
HETATM   20  C   UNL     1      46.957  -9.503   7.643  1.00  0.00     0.210 C 
ENDBRANCH  14  19
ENDBRANCH  10  13
ENDBRANCH   5   6
ENDBRANCH   2   5
BRANCH   1  21
HETATM   21  C   UNL     1      42.607 -16.385   3.904  1.00  0.00     0.048 A 
HETATM   22  C   UNL     1      42.492 -16.593   2.502  1.00  0.00    -0.027 A 
HETATM   23  C   UNL     1      43.030 -17.773   1.957  1.00  0.00     0.010 A 
HETATM   24  C   UNL     1      43.684 -18.704   2.755  1.00  0.00     0.001 A 
HETATM   25  C   UNL     1      43.810 -18.480   4.120  1.00  0.00     0.010 A 
HETATM   26  C   UNL     1      43.281 -17.325   4.726  1.00  0.00    -0.027 A 
BRANCH  22  27
HETATM   27  C   UNL     1      41.692 -15.667   1.585  1.00  0.00     0.013 C 
HETATM   28  C   UNL     1      42.206 -14.229   1.717  1.00  0.00     0.015 C 
HETATM   29  C   UNL     1      40.176 -15.722   1.814  1.00  0.00     0.015 C 
ENDBRANCH  22  27
BRANCH  26  30
HETATM   30  C   UNL     1      43.557 -17.106   6.212  1.00  0.00     0.013 C 
HETATM   31  C   UNL     1      43.491 -18.410   7.015  1.00  0.00     0.015 C 
HETATM   32  C   UNL     1      44.904 -16.404   6.425  1.00  0.00     0.015 C 
ENDBRANCH  26  30
ENDBRANCH   1  21
TORSDOF 7
ENDMDL
MODEL 5
REMARK VINA RESULT:      -7.5      2.013      9.037
REMARK  7 active torsions:
REMARK  status: ('A' for Active; 'I' for Inactive)
REMARK    1  A    between atoms: C_2  and  C_3 
REMARK    2  A    between atoms: C_4  and  N_5 
REMARK       I    between atoms: N_5  and  C_6 
REMARK    3  A    between atoms: C_6  and  C_7 
REMARK    4  A    between atoms: C_7  and  N_8 
REMARK    5  A    between atoms: N_12  and  C_13 
REMARK    6  A    between atoms: C_14  and  O_15 
REMARK    7  A    between atoms: C_24  and  C_25 
ROOT
HETATM    1  N   UNL     1      41.596 -14.848   4.917  1.00  0.00    -0.325 N 
HETATM    2  C   UNL     1      42.169 -13.591   4.990  1.00  0.00     0.248 C 
HETATM    3  O   UNL     1      43.200 -13.221   4.432  1.00  0.00    -0.271 OA
HETATM    4  H   UNL     1      41.090 -15.161   5.736  1.00  0.00     0.169 HD
ENDROOT
BRANCH   2   5
HETATM    5  C   UNL     1      41.398 -12.619   5.887  1.00  0.00     0.337 C 
BRANCH   5   6
HETATM    6  N   UNL     1      42.267 -11.463   6.364  1.00  0.00    -0.060 N 
HETATM    7  H   UNL     1      42.728 -11.091   5.519  1.00  0.00     0.280 HD
HETATM    8  C   UNL     1      41.452 -10.292   6.926  1.00  0.00     0.255 C 
HETATM    9  C   UNL     1      42.391  -9.131   7.308  1.00  0.00     0.150 C 
HETATM   10  N   UNL     1      43.446  -9.583   8.227  1.00  0.00    -0.375 N 
HETATM   11  C   UNL     1      44.246 -10.728   7.752  1.00  0.00     0.150 C 
HETATM   12  C   UNL     1      43.335 -11.906   7.351  1.00  0.00     0.255 C 
BRANCH  10  13
HETATM   13  C   UNL     1      43.348  -9.381   9.609  1.00  0.00     0.064 A 
HETATM   14  C   UNL     1      43.134  -8.089  10.167  1.00  0.00     0.094 A 
HETATM   15  C   UNL     1      43.068  -7.912  11.558  1.00  0.00     0.039 A 
HETATM   16  C   UNL     1      43.169  -9.002  12.417  1.00  0.00     0.003 A 
HETATM   17  C   UNL     1      43.334 -10.276  11.895  1.00  0.00     0.002 A 
HETATM   18  C   UNL     1      43.419 -10.460  10.512  1.00  0.00     0.032 A 
BRANCH  14  19
HETATM   19  O   UNL     1      42.978  -7.049   9.277  1.00  0.00    -0.354 OA
HETATM   20  C   UNL     1      42.997  -5.729   9.810  1.00  0.00     0.210 C 
ENDBRANCH  14  19
ENDBRANCH  10  13
ENDBRANCH   5   6
ENDBRANCH   2   5
BRANCH   1  21
HETATM   21  C   UNL     1      42.158 -15.884   4.130  1.00  0.00     0.048 A 
HETATM   22  C   UNL     1      41.922 -15.880   2.728  1.00  0.00    -0.027 A 
HETATM   23  C   UNL     1      42.520 -16.887   1.949  1.00  0.00     0.010 A 
HETATM   24  C   UNL     1      43.345 -17.848   2.520  1.00  0.00     0.001 A 
HETATM   25  C   UNL     1      43.587 -17.829   3.888  1.00  0.00     0.010 A 
HETATM   26  C   UNL     1      43.006 -16.855   4.722  1.00  0.00    -0.027 A 
BRANCH  22  27
HETATM   27  C   UNL     1      40.940 -14.922   2.051  1.00  0.00     0.013 C 
HETATM   28  C   UNL     1      39.967 -15.712   1.167  1.00  0.00     0.015 C 
HETATM   29  C   UNL     1      41.614 -13.804   1.247  1.00  0.00     0.015 C 
ENDBRANCH  22  27
BRANCH  26  30
HETATM   30  C   UNL     1      43.409 -16.842   6.195  1.00  0.00     0.013 C 
HETATM   31  C   UNL     1      43.329 -18.234   6.833  1.00  0.00     0.015 C 
HETATM   32  C   UNL     1      44.808 -16.240   6.380  1.00  0.00     0.015 C 
ENDBRANCH  26  30
ENDBRANCH   1  21
TORSDOF 7
ENDMDL
MODEL 6
REMARK VINA RESULT:      -7.5      2.016      8.843
REMARK  7 active torsions:
REMARK  status: ('A' for Active; 'I' for Inactive)
REMARK    1  A    between atoms: C_2  and  C_3 
REMARK    2  A    between atoms: C_4  and  N_5 
REMARK       I    between atoms: N_5  and  C_6 
REMARK    3  A    between atoms: C_6  and  C_7 
REMARK    4  A    between atoms: C_7  and  N_8 
REMARK    5  A    between atoms: N_12  and  C_13 
REMARK    6  A    between atoms: C_14  and  O_15 
REMARK    7  A    between atoms: C_24  and  C_25 
ROOT
HETATM    1  N   UNL     1      42.129 -15.093   4.442  1.00  0.00    -0.325 N 
HETATM    2  C   UNL     1      40.984 -15.114   5.218  1.00  0.00     0.248 C 
HETATM    3  O   UNL     1      40.299 -16.099   5.489  1.00  0.00    -0.271 OA
HETATM    4  H   UNL     1      42.300 -14.244   3.916  1.00  0.00     0.169 HD
ENDROOT
BRANCH   2   5
HETATM    5  C   UNL     1      40.579 -13.736   5.748  1.00  0.00     0.337 C 
BRANCH   5   6
HETATM    6  N   UNL     1      41.762 -12.782   5.835  1.00  0.00    -0.060 N 
HETATM    7  H   UNL     1      42.188 -12.775   4.894  1.00  0.00     0.280 HD
HETATM    8  C   UNL     1      41.345 -11.330   6.096  1.00  0.00     0.255 C 
HETATM    9  C   UNL     1      42.585 -10.414   6.087  1.00  0.00     0.150 C 
HETATM   10  N   UNL     1      43.604 -10.892   7.034  1.00  0.00    -0.375 N 
HETATM   11  C   UNL     1      44.025 -12.294   6.849  1.00  0.00     0.150 C 
HETATM   12  C   UNL     1      42.805 -13.238   6.843  1.00  0.00     0.255 C 
BRANCH  10  13
HETATM   13  C   UNL     1      43.738 -10.331   8.310  1.00  0.00     0.064 A 
HETATM   14  C   UNL     1      45.007 -10.198   8.942  1.00  0.00     0.094 A 
HETATM   15  C   UNL     1      45.110  -9.657  10.233  1.00  0.00     0.039 A 
HETATM   16  C   UNL     1      43.979  -9.202  10.903  1.00  0.00     0.003 A 
HETATM   17  C   UNL     1      42.738  -9.280  10.290  1.00  0.00     0.002 A 
HETATM   18  C   UNL     1      42.623  -9.834   9.011  1.00  0.00     0.032 A 
BRANCH  14  19
HETATM   19  O   UNL     1      46.106 -10.606   8.217  1.00  0.00    -0.354 OA
HETATM   20  C   UNL     1      46.955  -9.589   7.696  1.00  0.00     0.210 C 
ENDBRANCH  14  19
ENDBRANCH  10  13
ENDBRANCH   5   6
ENDBRANCH   2   5
BRANCH   1  21
HETATM   21  C   UNL     1      42.668 -16.270   3.868  1.00  0.00     0.048 A 
HETATM   22  C   UNL     1      43.320 -17.206   4.718  1.00  0.00    -0.027 A 
HETATM   23  C   UNL     1      43.814 -18.393   4.147  1.00  0.00     0.010 A 
HETATM   24  C   UNL     1      43.648 -18.668   2.795  1.00  0.00     0.001 A 
HETATM   25  C   UNL     1      42.990 -17.757   1.978  1.00  0.00     0.010 A 
HETATM   26  C   UNL     1      42.486 -16.545   2.488  1.00  0.00    -0.027 A 
BRANCH  22  27
HETATM   27  C   UNL     1      43.633 -16.920   6.187  1.00  0.00     0.013 C 
HETATM   28  C   UNL     1      45.025 -16.290   6.311  1.00  0.00     0.015 C 
HETATM   29  C   UNL     1      43.513 -18.146   7.100  1.00  0.00     0.015 C 
ENDBRANCH  22  27
BRANCH  26  30
HETATM   30  C   UNL     1      41.683 -15.652   1.546  1.00  0.00     0.013 C 
HETATM   31  C   UNL     1      40.171 -15.788   1.760  1.00  0.00     0.015 C 
HETATM   32  C   UNL     1      42.118 -14.186   1.669  1.00  0.00     0.015 C 
ENDBRANCH  26  30
ENDBRANCH   1  21
TORSDOF 7
ENDMDL
MODEL 7
REMARK VINA RESULT:      -7.4      2.790      8.827
REMARK  7 active torsions:
REMARK  status: ('A' for Active; 'I' for Inactive)
REMARK    1  A    between atoms: C_2  and  C_3 
REMARK    2  A    between atoms: C_4  and  N_5 
REMARK       I    between atoms: N_5  and  C_6 
REMARK    3  A    between atoms: C_6  and  C_7 
REMARK    4  A    between atoms: C_7  and  N_8 
REMARK    5  A    between atoms: N_12  and  C_13 
REMARK    6  A    between atoms: C_14  and  O_15 
REMARK    7  A    between atoms: C_24  and  C_25 
ROOT
HETATM    1  N   UNL     1      43.388 -16.769   3.338  1.00  0.00    -0.325 N 
HETATM    2  C   UNL     1      42.152 -16.302   2.930  1.00  0.00     0.248 C 
HETATM    3  O   UNL     1      41.053 -16.731   3.280  1.00  0.00    -0.271 OA
HETATM    4  H   UNL     1      44.142 -16.694   2.666  1.00  0.00     0.169 HD
ENDROOT
BRANCH   2   5
HETATM    5  C   UNL     1      42.234 -15.146   1.931  1.00  0.00     0.337 C 
BRANCH   5   6
HETATM    6  N   UNL     1      41.928 -13.802   2.579  1.00  0.00    -0.060 N 
HETATM    7  H   UNL     1      41.185 -13.375   2.003  1.00  0.00     0.280 HD
HETATM    8  C   UNL     1      41.321 -13.937   3.980  1.00  0.00     0.255 C 
HETATM    9  C   UNL     1      40.961 -12.544   4.536  1.00  0.00     0.150 C 
HETATM   10  N   UNL     1      42.123 -11.644   4.503  1.00  0.00    -0.375 N 
HETATM   11  C   UNL     1      42.768 -11.497   3.184  1.00  0.00     0.150 C 
HETATM   12  C   UNL     1      43.132 -12.875   2.595  1.00  0.00     0.255 C 
BRANCH  10  13
HETATM   13  C   UNL     1      42.904 -11.415   5.642  1.00  0.00     0.064 A 
HETATM   14  C   UNL     1      42.586 -10.390   6.578  1.00  0.00     0.094 A 
HETATM   15  C   UNL     1      43.403 -10.164   7.697  1.00  0.00     0.039 A 
HETATM   16  C   UNL     1      44.515 -10.966   7.936  1.00  0.00     0.003 A 
HETATM   17  C   UNL     1      44.820 -11.998   7.062  1.00  0.00     0.002 A 
HETATM   18  C   UNL     1      44.023 -12.219   5.935  1.00  0.00     0.032 A 
BRANCH  14  19
HETATM   19  O   UNL     1      41.442  -9.662   6.333  1.00  0.00    -0.354 OA
HETATM   20  C   UNL     1      41.475  -8.274   6.649  1.00  0.00     0.210 C 
ENDBRANCH  14  19
ENDBRANCH  10  13
ENDBRANCH   5   6
ENDBRANCH   2   5
BRANCH   1  21
HETATM   21  C   UNL     1      43.520 -17.831   4.267  1.00  0.00     0.048 A 
HETATM   22  C   UNL     1      43.392 -17.543   5.654  1.00  0.00    -0.027 A 
HETATM   23  C   UNL     1      43.481 -18.610   6.567  1.00  0.00     0.010 A 
HETATM   24  C   UNL     1      43.658 -19.918   6.134  1.00  0.00     0.001 A 
HETATM   25  C   UNL     1      43.759 -20.191   4.775  1.00  0.00     0.010 A 
HETATM   26  C   UNL     1      43.692 -19.164   3.814  1.00  0.00    -0.027 A 
BRANCH  22  27
HETATM   27  C   UNL     1      43.307 -16.119   6.205  1.00  0.00     0.013 C 
HETATM   28  C   UNL     1      44.643 -15.726   6.846  1.00  0.00     0.015 C 
HETATM   29  C   UNL     1      42.151 -15.901   7.189  1.00  0.00     0.015 C 
ENDBRANCH  22  27
BRANCH  26  30
HETATM   30  C   UNL     1      43.704 -19.563   2.340  1.00  0.00     0.013 C 
HETATM   31  C   UNL     1      44.655 -20.732   2.060  1.00  0.00     0.015 C 
HETATM   32  C   UNL     1      42.289 -19.882   1.842  1.00  0.00     0.015 C 
ENDBRANCH  26  30
ENDBRANCH   1  21
TORSDOF 7
ENDMDL
MODEL 8
REMARK VINA RESULT:      -7.3      2.142      4.203
REMARK  7 active torsions:
REMARK  status: ('A' for Active; 'I' for Inactive)
REMARK    1  A    between atoms: C_2  and  C_3 
REMARK    2  A    between atoms: C_4  and  N_5 
REMARK       I    between atoms: N_5  and  C_6 
REMARK    3  A    between atoms: C_6  and  C_7 
REMARK    4  A    between atoms: C_7  and  N_8 
REMARK    5  A    between atoms: N_12  and  C_13 
REMARK    6  A    between atoms: C_14  and  O_15 
REMARK    7  A    between atoms: C_24  and  C_25 
ROOT
HETATM    1  N   UNL     1      41.911 -10.227   7.909  1.00  0.00    -0.325 N 
HETATM    2  C   UNL     1      41.526  -9.278   6.980  1.00  0.00     0.248 C 
HETATM    3  O   UNL     1      42.102  -8.221   6.728  1.00  0.00    -0.271 OA
HETATM    4  H   UNL     1      41.166 -10.752   8.351  1.00  0.00     0.169 HD
ENDROOT
BRANCH   2   5
HETATM    5  C   UNL     1      40.235  -9.636   6.238  1.00  0.00     0.337 C 
BRANCH   5   6
HETATM    6  N   UNL     1      40.505 -10.158   4.833  1.00  0.00    -0.060 N 
HETATM    7  H   UNL     1      40.222  -9.401   4.192  1.00  0.00     0.280 HD
HETATM    8  C   UNL     1      41.996 -10.384   4.553  1.00  0.00     0.255 C 
HETATM    9  C   UNL     1      42.197 -10.830   3.091  1.00  0.00     0.150 C 
HETATM   10  N   UNL     1      41.374 -12.009   2.779  1.00  0.00    -0.375 N 
HETATM   11  C   UNL     1      39.932 -11.861   3.055  1.00  0.00     0.150 C 
HETATM   12  C   UNL     1      39.696 -11.404   4.509  1.00  0.00     0.255 C 
BRANCH  10  13
HETATM   13  C   UNL     1      41.913 -13.301   2.789  1.00  0.00     0.064 A 
HETATM   14  C   UNL     1      41.873 -14.141   1.640  1.00  0.00     0.094 A 
HETATM   15  C   UNL     1      42.396 -15.443   1.686  1.00  0.00     0.039 A 
HETATM   16  C   UNL     1      43.001 -15.923   2.844  1.00  0.00     0.003 A 
HETATM   17  C   UNL     1      43.090 -15.108   3.962  1.00  0.00     0.002 A 
HETATM   18  C   UNL     1      42.556 -13.816   3.931  1.00  0.00     0.032 A 
BRANCH  14  19
HETATM   19  O   UNL     1      41.320 -13.602   0.498  1.00  0.00    -0.354 OA
HETATM   20  C   UNL     1      40.203 -14.281  -0.066  1.00  0.00     0.210 C 
ENDBRANCH  14  19
ENDBRANCH  10  13
ENDBRANCH   5   6
ENDBRANCH   2   5
BRANCH   1  21
HETATM   21  C   UNL     1      43.083 -10.080   8.690  1.00  0.00     0.048 A 
HETATM   22  C   UNL     1      44.317 -10.549   8.163  1.00  0.00    -0.027 A 
HETATM   23  C   UNL     1      45.483 -10.359   8.927  1.00  0.00     0.010 A 
HETATM   24  C   UNL     1      45.446  -9.705  10.152  1.00  0.00     0.001 A 
HETATM   25  C   UNL     1      44.238  -9.231  10.648  1.00  0.00     0.010 A 
HETATM   26  C   UNL     1      43.035  -9.403   9.937  1.00  0.00    -0.027 A 
BRANCH  22  27
HETATM   27  C   UNL     1      44.416 -11.372   6.878  1.00  0.00     0.013 C 
HETATM   28  C   UNL     1      43.959 -12.811   7.144  1.00  0.00     0.015 C 
HETATM   29  C   UNL     1      45.807 -11.357   6.234  1.00  0.00     0.015 C 
ENDBRANCH  22  27
BRANCH  26  30
HETATM   30  C   UNL     1      41.771  -8.757  10.501  1.00  0.00     0.013 C 
HETATM   31  C   UNL     1      41.006  -9.698  11.439  1.00  0.00     0.015 C 
HETATM   32  C   UNL     1      42.094  -7.433  11.204  1.00  0.00     0.015 C 
ENDBRANCH  26  30
ENDBRANCH   1  21
TORSDOF 7
ENDMDL
MODEL 9
REMARK VINA RESULT:      -7.2      2.332      8.956
REMARK  7 active torsions:
REMARK  status: ('A' for Active; 'I' for Inactive)
REMARK    1  A    between atoms: C_2  and  C_3 
REMARK    2  A    between atoms: C_4  and  N_5 
REMARK       I    between atoms: N_5  and  C_6 
REMARK    3  A    between atoms: C_6  and  C_7 
REMARK    4  A    between atoms: C_7  and  N_8 
REMARK    5  A    between atoms: N_12  and  C_13 
REMARK    6  A    between atoms: C_14  and  O_15 
REMARK    7  A    between atoms: C_24  and  C_25 
ROOT
HETATM    1  N   UNL     1      42.424 -13.424   4.918  1.00  0.00    -0.325 N 
HETATM    2  C   UNL     1      43.372 -12.420   4.831  1.00  0.00     0.248 C 
HETATM    3  O   UNL     1      43.580 -11.689   3.864  1.00  0.00    -0.271 OA
HETATM    4  H   UNL     1      42.660 -14.217   5.502  1.00  0.00     0.169 HD
ENDROOT
BRANCH   2   5
HETATM    5  C   UNL     1      44.223 -12.271   6.095  1.00  0.00     0.337 C 
BRANCH   5   6
HETATM    6  N   UNL     1      44.168 -10.859   6.662  1.00  0.00    -0.060 N 
HETATM    7  H   UNL     1      44.388 -10.230   5.873  1.00  0.00     0.280 HD
HETATM    8  C   UNL     1      42.763 -10.450   7.120  1.00  0.00     0.255 C 
HETATM    9  C   UNL     1      42.770  -8.985   7.601  1.00  0.00     0.150 C 
HETATM   10  N   UNL     1      43.791  -8.773   8.638  1.00  0.00    -0.375 N 
HETATM   11  C   UNL     1      45.161  -9.175   8.264  1.00  0.00     0.150 C 
HETATM   12  C   UNL     1      45.187 -10.635   7.768  1.00  0.00     0.255 C 
BRANCH  10  13
HETATM   13  C   UNL     1      43.461  -8.761   9.999  1.00  0.00     0.064 A 
HETATM   14  C   UNL     1      43.046  -7.571  10.661  1.00  0.00     0.094 A 
HETATM   15  C   UNL     1      42.748  -7.582  12.033  1.00  0.00     0.039 A 
HETATM   16  C   UNL     1      42.812  -8.765  12.763  1.00  0.00     0.003 A 
HETATM   17  C   UNL     1      43.171  -9.945  12.130  1.00  0.00     0.002 A 
HETATM   18  C   UNL     1      43.487  -9.941  10.768  1.00  0.00     0.032 A 
BRANCH  14  19
HETATM   19  O   UNL     1      42.938  -6.437   9.886  1.00  0.00    -0.354 OA
HETATM   20  C   UNL     1      42.694  -5.208  10.562  1.00  0.00     0.210 C 
ENDBRANCH  14  19
ENDBRANCH  10  13
ENDBRANCH   5   6
ENDBRANCH   2   5
BRANCH   1  21
HETATM   21  C   UNL     1      41.535 -13.710   3.853  1.00  0.00     0.048 A 
HETATM   22  C   UNL     1      41.793 -14.845   3.036  1.00  0.00    -0.027 A 
HETATM   23  C   UNL     1      40.882 -15.147   2.008  1.00  0.00     0.010 A 
HETATM   24  C   UNL     1      39.740 -14.381   1.806  1.00  0.00     0.001 A 
HETATM   25  C   UNL     1      39.486 -13.288   2.625  1.00  0.00     0.010 A 
HETATM   26  C   UNL     1      40.367 -12.927   3.662  1.00  0.00    -0.027 A 
BRANCH  22  27
HETATM   27  C   UNL     1      43.082 -15.664   3.130  1.00  0.00     0.013 C 
HETATM   28  C   UNL     1      43.431 -16.247   1.756  1.00  0.00     0.015 C 
HETATM   29  C   UNL     1      43.040 -16.770   4.191  1.00  0.00     0.015 C 
ENDBRANCH  22  27
BRANCH  26  30
HETATM   30  C   UNL     1      39.959 -11.778   4.581  1.00  0.00     0.013 C 
HETATM   31  C   UNL     1      39.079 -10.746   3.867  1.00  0.00     0.015 C 
HETATM   32  C   UNL     1      39.265 -12.302   5.844  1.00  0.00     0.015 C 
ENDBRANCH  26  30
ENDBRANCH   1  21
TORSDOF 7
ENDMDL
MODEL 10
REMARK VINA RESULT:      -7.1      2.867      4.395
REMARK  7 active torsions:
REMARK  status: ('A' for Active; 'I' for Inactive)
REMARK    1  A    between atoms: C_2  and  C_3 
REMARK    2  A    between atoms: C_4  and  N_5 
REMARK       I    between atoms: N_5  and  C_6 
REMARK    3  A    between atoms: C_6  and  C_7 
REMARK    4  A    between atoms: C_7  and  N_8 
REMARK    5  A    between atoms: N_12  and  C_13 
REMARK    6  A    between atoms: C_14  and  O_15 
REMARK    7  A    between atoms: C_24  and  C_25 
ROOT
HETATM    1  N   UNL     1      41.921 -10.856   3.951  1.00  0.00    -0.325 N 
HETATM    2  C   UNL     1      41.170 -11.978   3.649  1.00  0.00     0.248 C 
HETATM    3  O   UNL     1      40.542 -12.676   4.444  1.00  0.00    -0.271 OA
HETATM    4  H   UNL     1      42.726 -10.682   3.361  1.00  0.00     0.169 HD
ENDROOT
BRANCH   2   5
HETATM    5  C   UNL     1      41.177 -12.337   2.161  1.00  0.00     0.337 C 
BRANCH   5   6
HETATM    6  N   UNL     1      41.644 -13.766   1.917  1.00  0.00    -0.060 N 
HETATM    7  H   UNL     1      41.622 -13.898   0.893  1.00  0.00     0.280 HD
HETATM    8  C   UNL     1      43.105 -13.998   2.321  1.00  0.00     0.255 C 
HETATM    9  C   UNL     1      43.529 -15.437   1.967  1.00  0.00     0.150 C 
HETATM   10  N   UNL     1      42.611 -16.421   2.562  1.00  0.00    -0.375 N 
HETATM   11  C   UNL     1      41.185 -16.231   2.231  1.00  0.00     0.150 C 
HETATM   12  C   UNL     1      40.731 -14.796   2.564  1.00  0.00     0.255 C 
BRANCH  10  13
HETATM   13  C   UNL     1      42.923 -17.087   3.753  1.00  0.00     0.064 A 
HETATM   14  C   UNL     1      43.629 -18.323   3.760  1.00  0.00     0.094 A 
HETATM   15  C   UNL     1      43.905 -18.984   4.968  1.00  0.00     0.039 A 
HETATM   16  C   UNL     1      43.530 -18.421   6.184  1.00  0.00     0.003 A 
HETATM   17  C   UNL     1      42.881 -17.196   6.205  1.00  0.00     0.002 A 
HETATM   18  C   UNL     1      42.586 -16.540   5.006  1.00  0.00     0.032 A 
BRANCH  14  19
HETATM   19  O   UNL     1      44.033 -18.812   2.536  1.00  0.00    -0.354 OA
HETATM   20  C   UNL     1      43.497 -20.066   2.128  1.00  0.00     0.210 C 
ENDBRANCH  14  19
ENDBRANCH  10  13
ENDBRANCH   5   6
ENDBRANCH   2   5
BRANCH   1  21
HETATM   21  C   UNL     1      42.031 -10.360   5.273  1.00  0.00     0.048 A 
HETATM   22  C   UNL     1      41.003  -9.515   5.772  1.00  0.00    -0.027 A 
HETATM   23  C   UNL     1      41.098  -9.062   7.101  1.00  0.00     0.010 A 
HETATM   24  C   UNL     1      42.150  -9.449   7.922  1.00  0.00     0.001 A 
HETATM   25  C   UNL     1      43.138 -10.294   7.431  1.00  0.00     0.010 A 
HETATM   26  C   UNL     1      43.105 -10.769   6.106  1.00  0.00    -0.027 A 
BRANCH  22  27
HETATM   27  C   UNL     1      39.879  -8.962   4.894  1.00  0.00     0.013 C 
HETATM   28  C   UNL     1      39.715  -7.458   5.142  1.00  0.00     0.015 C 
HETATM   29  C   UNL     1      38.539  -9.688   5.067  1.00  0.00     0.015 C 
ENDBRANCH  22  27
BRANCH  26  30
HETATM   30  C   UNL     1      44.170 -11.777   5.681  1.00  0.00     0.013 C 
HETATM   31  C   UNL     1      45.577 -11.361   6.127  1.00  0.00     0.015 C 
HETATM   32  C   UNL     1      43.833 -13.184   6.189  1.00  0.00     0.015 C 
ENDBRANCH  26  30
ENDBRANCH   1  21
TORSDOF 7
ENDMDL
