MODEL 1
REMARK VINA RESULT:      -8.6      0.000      0.000
REMARK  7 active torsions:
REMARK  status: ('A' for Active; 'I' for Inactive)
REMARK    1  A    between atoms: C_7  and  C_8 
REMARK    2  A    between atoms: C_8  and  C_9 
REMARK    3  A    between atoms: C_9  and  C_10 
REMARK    4  A    between atoms: C_10  and  O_11 
REMARK    5  A    between atoms: C_13  and  C_14 
REMARK    6  A    between atoms: C_22  and  C_23 
REMARK       I    between atoms: C_23  and  N_24 
REMARK    7  A    between atoms: N_24  and  C_25 
ROOT
HETATM    1  C   UNL     1      39.079 -10.213   3.838  1.00  0.00     0.070 C 
HETATM    2  C   UNL     1      40.444 -10.829   4.030  1.00  0.00     0.037 C 
HETATM    3  N   UNL     1      41.283 -10.151   4.906  1.00  0.00    -0.192 N 
HETATM    4  C   UNL     1      42.446 -10.657   5.356  1.00  0.00     0.726 A 
HETATM    5  N   UNL     1      42.909 -11.839   4.846  1.00  0.00    -0.083 N 
HETATM    6  N   UNL     1      44.068 -12.208   5.435  1.00  0.00    -0.140 NA
HETATM    7  C   UNL     1      44.226 -11.210   6.321  1.00  0.00     0.166 A 
HETATM    8  N   UNL     1      43.261 -10.233   6.287  1.00  0.00    -0.046 NA
HETATM    9  C   UNL     1      42.223 -12.597   3.787  1.00  0.00     0.204 C 
HETATM   10  C   UNL     1      40.859 -11.989   3.456  1.00  0.00     0.062 C 
HETATM   11  H   UNL     1      40.903  -9.340   5.387  1.00  0.00     0.184 HD
ENDROOT
BRANCH  10  12
HETATM   12  C   UNL     1      39.997 -12.744   2.505  1.00  0.00     0.256 C 
HETATM   13  N   UNL     1      40.330 -12.538   1.182  1.00  0.00    -0.323 N 
HETATM   14  H   UNL     1      41.135 -11.956   0.990  1.00  0.00     0.169 HD
HETATM   15  O   UNL     1      39.112 -13.471   2.933  1.00  0.00    -0.267 OA
BRANCH  13  16
HETATM   16  C   UNL     1      39.606 -12.980   0.051  1.00  0.00     0.035 A 
HETATM   17  C   UNL     1      38.632 -12.215  -0.601  1.00  0.00     0.032 A 
HETATM   18  C   UNL     1      37.988 -12.705  -1.742  1.00  0.00     0.044 A 
HETATM   19  C   UNL     1      38.318 -13.962  -2.230  1.00  0.00     0.116 A 
HETATM   20  F   UNL     1      37.708 -14.426  -3.328  1.00  0.00    -0.206 F 
HETATM   21  C   UNL     1      39.276 -14.740  -1.596  1.00  0.00     0.044 A 
HETATM   22  C   UNL     1      39.919 -14.250  -0.454  1.00  0.00     0.032 A 
ENDBRANCH  13  16
ENDBRANCH  10  12
BRANCH   9  23
HETATM   23  C   UNL     1      42.259 -14.096   4.086  1.00  0.00    -0.005 A 
HETATM   24  C   UNL     1      42.832 -15.060   3.228  1.00  0.00     0.064 A 
HETATM   25 CL   UNL     1      43.554 -14.582   1.722  1.00  0.00    -0.082 Cl
HETATM   26  C   UNL     1      42.822 -16.417   3.597  1.00  0.00     0.056 A 
HETATM   27 CL   UNL     1      43.511 -17.658   2.604  1.00  0.00    -0.083 Cl
HETATM   28  C   UNL     1      42.245 -16.821   4.804  1.00  0.00     0.026 A 
HETATM   29  C   UNL     1      41.673 -15.881   5.653  1.00  0.00     0.002 A 
HETATM   30  C   UNL     1      41.679 -14.533   5.298  1.00  0.00     0.011 A 
ENDBRANCH   9  23
BRANCH   7  31
HETATM   31  C   UNL     1      45.299 -11.224   7.347  1.00  0.00     0.085 C 
BRANCH  31  32
HETATM   32  C   UNL     1      45.023 -10.255   8.501  1.00  0.00     0.034 C 
BRANCH  32  33
HETATM   33  C   UNL     1      45.906  -9.010   8.508  1.00  0.00     0.164 C 
BRANCH  33  34
HETATM   34  O   UNL     1      46.867  -9.057   7.464  1.00  0.00    -0.401 OA
HETATM   35  H   UNL     1      46.371  -8.970   6.626  1.00  0.00     0.209 HD
ENDBRANCH  33  34
ENDBRANCH  32  33
ENDBRANCH  31  32
ENDBRANCH   7  31
TORSDOF 7
ENDMDL
MODEL 2
REMARK VINA RESULT:      -8.2      3.455      6.087
REMARK  7 active torsions:
REMARK  status: ('A' for Active; 'I' for Inactive)
REMARK    1  A    between atoms: C_7  and  C_8 
REMARK    2  A    between atoms: C_8  and  C_9 
REMARK    3  A    between atoms: C_9  and  C_10 
REMARK    4  A    between atoms: C_10  and  O_11 
REMARK    5  A    between atoms: C_13  and  C_14 
REMARK    6  A    between atoms: C_22  and  C_23 
REMARK       I    between atoms: C_23  and  N_24 
REMARK    7  A    between atoms: N_24  and  C_25 
ROOT
HETATM    1  C   UNL     1      43.855 -13.446   6.325  1.00  0.00     0.070 C 
HETATM    2  C   UNL     1      42.515 -13.091   5.726  1.00  0.00     0.037 C 
HETATM    3  N   UNL     1      41.823 -12.079   6.379  1.00  0.00    -0.192 N 
HETATM    4  C   UNL     1      40.722 -11.493   5.873  1.00  0.00     0.726 A 
HETATM    5  N   UNL     1      40.164 -11.984   4.725  1.00  0.00    -0.083 N 
HETATM    6  N   UNL     1      39.089 -11.255   4.351  1.00  0.00    -0.140 NA
HETATM    7  C   UNL     1      39.080 -10.314   5.310  1.00  0.00     0.166 A 
HETATM    8  N   UNL     1      40.054 -10.440   6.269  1.00  0.00    -0.046 NA
HETATM    9  C   UNL     1      40.678 -13.160   4.004  1.00  0.00     0.204 C 
HETATM   10  C   UNL     1      41.997 -13.651   4.601  1.00  0.00     0.062 C 
HETATM   11  H   UNL     1      42.286 -11.620   7.160  1.00  0.00     0.184 HD
ENDROOT
BRANCH  10  12
HETATM   12  C   UNL     1      42.700 -14.745   3.875  1.00  0.00     0.256 C 
HETATM   13  N   UNL     1      42.273 -16.006   4.238  1.00  0.00    -0.323 N 
HETATM   14  H   UNL     1      41.510 -16.066   4.899  1.00  0.00     0.169 HD
HETATM   15  O   UNL     1      43.549 -14.471   3.040  1.00  0.00    -0.267 OA
BRANCH  13  16
HETATM   16  C   UNL     1      42.852 -17.236   3.850  1.00  0.00     0.035 A 
HETATM   17  C   UNL     1      43.696 -17.994   4.669  1.00  0.00     0.032 A 
HETATM   18  C   UNL     1      44.196 -19.224   4.232  1.00  0.00     0.044 A 
HETATM   19  C   UNL     1      43.852 -19.696   2.973  1.00  0.00     0.116 A 
HETATM   20  F   UNL     1      44.323 -20.880   2.558  1.00  0.00    -0.206 F 
HETATM   21  C   UNL     1      43.022 -18.959   2.141  1.00  0.00     0.044 A 
HETATM   22  C   UNL     1      42.523 -17.728   2.579  1.00  0.00     0.032 A 
ENDBRANCH  13  16
ENDBRANCH  10  12
BRANCH   9  23
HETATM   23  C   UNL     1      40.647 -12.923   2.494  1.00  0.00    -0.005 A 
HETATM   24  C   UNL     1      40.157 -13.859   1.557  1.00  0.00     0.064 A 
HETATM   25 CL   UNL     1      39.541 -15.395   2.084  1.00  0.00    -0.082 Cl
HETATM   26  C   UNL     1      40.164 -13.543   0.186  1.00  0.00     0.056 A 
HETATM   27 CL   UNL     1      39.575 -14.633  -1.025  1.00  0.00    -0.083 Cl
HETATM   28  C   UNL     1      40.657 -12.314  -0.258  1.00  0.00     0.026 A 
HETATM   29  C   UNL     1      41.147 -11.387   0.656  1.00  0.00     0.002 A 
HETATM   30  C   UNL     1      41.142 -11.689   2.017  1.00  0.00     0.011 A 
ENDBRANCH   9  23
BRANCH   7  31
HETATM   31  C   UNL     1      38.159  -9.149   5.268  1.00  0.00     0.085 C 
BRANCH  31  32
HETATM   32  C   UNL     1      38.880  -7.819   5.507  1.00  0.00     0.034 C 
BRANCH  32  33
HETATM   33  C   UNL     1      38.553  -7.152   6.841  1.00  0.00     0.164 C 
BRANCH  33  34
HETATM   34  O   UNL     1      38.741  -8.050   7.924  1.00  0.00    -0.401 OA
HETATM   35  H   UNL     1      39.237  -7.560   8.609  1.00  0.00     0.209 HD
ENDBRANCH  33  34
ENDBRANCH  32  33
ENDBRANCH  31  32
ENDBRANCH   7  31
TORSDOF 7
ENDMDL
MODEL 3
REMARK VINA RESULT:      -8.2      4.128      7.037
REMARK  7 active torsions:
REMARK  status: ('A' for Active; 'I' for Inactive)
REMARK    1  A    between atoms: C_7  and  C_8 
REMARK    2  A    between atoms: C_8  and  C_9 
REMARK    3  A    between atoms: C_9  and  C_10 
REMARK    4  A    between atoms: C_10  and  O_11 
REMARK    5  A    between atoms: C_13  and  C_14 
REMARK    6  A    between atoms: C_22  and  C_23 
REMARK       I    between atoms: C_23  and  N_24 
REMARK    7  A    between atoms: N_24  and  C_25 
ROOT
HETATM    1  C   UNL     1      39.515 -16.238   0.419  1.00  0.00     0.070 C 
HETATM    2  C   UNL     1      40.299 -14.965   0.629  1.00  0.00     0.037 C 
HETATM    3  N   UNL     1      40.017 -13.940  -0.266  1.00  0.00    -0.192 N 
HETATM    4  C   UNL     1      40.459 -12.679  -0.108  1.00  0.00     0.726 A 
HETATM    5  N   UNL     1      41.335 -12.394   0.904  1.00  0.00    -0.083 N 
HETATM    6  N   UNL     1      41.645 -11.079   0.929  1.00  0.00    -0.140 NA
HETATM    7  C   UNL     1      40.887 -10.624  -0.083  1.00  0.00     0.166 A 
HETATM    8  N   UNL     1      40.162 -11.581  -0.752  1.00  0.00    -0.046 NA
HETATM    9  C   UNL     1      41.866 -13.404   1.834  1.00  0.00     0.204 C 
HETATM   10  C   UNL     1      41.191 -14.761   1.634  1.00  0.00     0.062 C 
HETATM   11  H   UNL     1      39.276 -14.099  -0.945  1.00  0.00     0.184 HD
ENDROOT
BRANCH  10  12
HETATM   12  C   UNL     1      41.531 -15.834   2.609  1.00  0.00     0.256 C 
HETATM   13  N   UNL     1      42.732 -16.459   2.339  1.00  0.00    -0.323 N 
HETATM   14  H   UNL     1      43.277 -16.105   1.564  1.00  0.00     0.169 HD
HETATM   15  O   UNL     1      40.777 -16.067   3.542  1.00  0.00    -0.267 OA
BRANCH  13  16
HETATM   16  C   UNL     1      43.245 -17.609   2.979  1.00  0.00     0.035 A 
HETATM   17  C   UNL     1      43.784 -17.611   4.270  1.00  0.00     0.032 A 
HETATM   18  C   UNL     1      44.234 -18.800   4.853  1.00  0.00     0.044 A 
HETATM   19  C   UNL     1      44.145 -19.989   4.143  1.00  0.00     0.116 A 
HETATM   20  F   UNL     1      44.566 -21.129   4.706  1.00  0.00    -0.206 F 
HETATM   21  C   UNL     1      43.620 -20.010   2.859  1.00  0.00     0.044 A 
HETATM   22  C   UNL     1      43.172 -18.821   2.276  1.00  0.00     0.032 A 
ENDBRANCH  13  16
ENDBRANCH  10  12
BRANCH   9  23
HETATM   23  C   UNL     1      41.907 -12.855   3.261  1.00  0.00    -0.005 A 
HETATM   24  C   UNL     1      40.758 -12.536   4.018  1.00  0.00     0.064 A 
HETATM   25 CL   UNL     1      39.171 -12.754   3.348  1.00  0.00    -0.082 Cl
HETATM   26  C   UNL     1      40.900 -12.043   5.328  1.00  0.00     0.056 A 
HETATM   27 CL   UNL     1      39.543 -11.636   6.324  1.00  0.00    -0.083 Cl
HETATM   28  C   UNL     1      42.169 -11.860   5.884  1.00  0.00     0.026 A 
HETATM   29  C   UNL     1      43.306 -12.164   5.145  1.00  0.00     0.002 A 
HETATM   30  C   UNL     1      43.176 -12.656   3.847  1.00  0.00     0.011 A 
ENDBRANCH   9  23
BRANCH   7  31
HETATM   31  C   UNL     1      40.745  -9.176  -0.379  1.00  0.00     0.085 C 
BRANCH  31  32
HETATM   32  C   UNL     1      41.141  -8.827  -1.817  1.00  0.00     0.034 C 
BRANCH  32  33
HETATM   33  C   UNL     1      42.444  -8.043  -1.943  1.00  0.00     0.164 C 
BRANCH  33  34
HETATM   34  O   UNL     1      43.151  -8.020  -0.711  1.00  0.00    -0.401 OA
HETATM   35  H   UNL     1      44.033  -8.402  -0.889  1.00  0.00     0.209 HD
ENDBRANCH  33  34
ENDBRANCH  32  33
ENDBRANCH  31  32
ENDBRANCH   7  31
TORSDOF 7
ENDMDL
MODEL 4
REMARK VINA RESULT:      -8.1      1.944      2.351
REMARK  7 active torsions:
REMARK  status: ('A' for Active; 'I' for Inactive)
REMARK    1  A    between atoms: C_7  and  C_8 
REMARK    2  A    between atoms: C_8  and  C_9 
REMARK    3  A    between atoms: C_9  and  C_10 
REMARK    4  A    between atoms: C_10  and  O_11 
REMARK    5  A    between atoms: C_13  and  C_14 
REMARK    6  A    between atoms: C_22  and  C_23 
REMARK       I    between atoms: C_23  and  N_24 
REMARK    7  A    between atoms: N_24  and  C_25 
ROOT
HETATM    1  C   UNL     1      39.924  -9.010   2.528  1.00  0.00     0.070 C 
HETATM    2  C   UNL     1      41.083  -9.852   3.003  1.00  0.00     0.037 C 
HETATM    3  N   UNL     1      41.569  -9.534   4.266  1.00  0.00    -0.192 N 
HETATM    4  C   UNL     1      42.450 -10.302   4.933  1.00  0.00     0.726 A 
HETATM    5  N   UNL     1      43.006 -11.385   4.311  1.00  0.00    -0.083 N 
HETATM    6  N   UNL     1      43.840 -12.052   5.139  1.00  0.00    -0.140 NA
HETATM    7  C   UNL     1      43.708 -11.328   6.263  1.00  0.00     0.166 A 
HETATM    8  N   UNL     1      42.879 -10.237   6.167  1.00  0.00    -0.046 NA
HETATM    9  C   UNL     1      42.727 -11.759   2.915  1.00  0.00     0.204 C 
HETATM   10  C   UNL     1      41.620 -10.892   2.313  1.00  0.00     0.062 C 
HETATM   11  H   UNL     1      41.079  -8.812   4.790  1.00  0.00     0.184 HD
ENDROOT
BRANCH  10  12
HETATM   12  C   UNL     1      41.137 -11.262   0.954  1.00  0.00     0.256 C 
HETATM   13  N   UNL     1      40.091 -12.162   0.970  1.00  0.00    -0.323 N 
HETATM   14  H   UNL     1      39.726 -12.435   1.873  1.00  0.00     0.169 HD
HETATM   15  O   UNL     1      41.657 -10.760  -0.033  1.00  0.00    -0.267 OA
BRANCH  13  16
HETATM   16  C   UNL     1      39.529 -12.822  -0.146  1.00  0.00     0.035 A 
HETATM   17  C   UNL     1      39.900 -14.105  -0.565  1.00  0.00     0.032 A 
HETATM   18  C   UNL     1      39.267 -14.709  -1.655  1.00  0.00     0.044 A 
HETATM   19  C   UNL     1      38.262 -14.029  -2.329  1.00  0.00     0.116 A 
HETATM   20  F   UNL     1      37.648 -14.613  -3.366  1.00  0.00    -0.206 F 
HETATM   21  C   UNL     1      37.882 -12.754  -1.936  1.00  0.00     0.044 A 
HETATM   22  C   UNL     1      38.516 -12.149  -0.846  1.00  0.00     0.032 A 
ENDBRANCH  13  16
ENDBRANCH  10  12
BRANCH   9  23
HETATM   23  C   UNL     1      42.569 -13.274   2.783  1.00  0.00    -0.005 A 
HETATM   24  C   UNL     1      41.581 -14.027   3.455  1.00  0.00     0.064 A 
HETATM   25 CL   UNL     1      40.446 -13.247   4.513  1.00  0.00    -0.082 Cl
HETATM   26  C   UNL     1      41.512 -15.419   3.262  1.00  0.00     0.056 A 
HETATM   27 CL   UNL     1      40.327 -16.411   4.042  1.00  0.00    -0.083 Cl
HETATM   28  C   UNL     1      42.418 -16.064   2.416  1.00  0.00     0.026 A 
HETATM   29  C   UNL     1      43.398 -15.333   1.754  1.00  0.00     0.002 A 
HETATM   30  C   UNL     1      43.473 -13.953   1.937  1.00  0.00     0.011 A 
ENDBRANCH   9  23
BRANCH   7  31
HETATM   31  C   UNL     1      44.317 -11.745   7.551  1.00  0.00     0.085 C 
BRANCH  31  32
HETATM   32  C   UNL     1      44.813 -10.557   8.381  1.00  0.00     0.034 C 
BRANCH  32  33
HETATM   33  C   UNL     1      43.984 -10.267   9.630  1.00  0.00     0.164 C 
BRANCH  33  34
HETATM   34  O   UNL     1      42.612 -10.101   9.307  1.00  0.00    -0.401 OA
HETATM   35  H   UNL     1      42.528 -10.276   8.349  1.00  0.00     0.209 HD
ENDBRANCH  33  34
ENDBRANCH  32  33
ENDBRANCH  31  32
ENDBRANCH   7  31
TORSDOF 7
ENDMDL
MODEL 5
REMARK VINA RESULT:      -7.8      3.968      6.744
REMARK  7 active torsions:
REMARK  status: ('A' for Active; 'I' for Inactive)
REMARK    1  A    between atoms: C_7  and  C_8 
REMARK    2  A    between atoms: C_8  and  C_9 
REMARK    3  A    between atoms: C_9  and  C_10 
REMARK    4  A    between atoms: C_10  and  O_11 
REMARK    5  A    between atoms: C_13  and  C_14 
REMARK    6  A    between atoms: C_22  and  C_23 
REMARK       I    between atoms: C_23  and  N_24 
REMARK    7  A    between atoms: N_24  and  C_25 
ROOT
HETATM    1  C   UNL     1      39.794 -15.035  -0.415  1.00  0.00     0.070 C 
HETATM    2  C   UNL     1      40.432 -13.782   0.135  1.00  0.00     0.037 C 
HETATM    3  N   UNL     1      40.276 -12.644  -0.648  1.00  0.00    -0.192 N 
HETATM    4  C   UNL     1      40.592 -11.407  -0.223  1.00  0.00     0.726 A 
HETATM    5  N   UNL     1      41.215 -11.247   0.984  1.00  0.00    -0.083 N 
HETATM    6  N   UNL     1      41.426  -9.941   1.258  1.00  0.00    -0.140 NA
HETATM    7  C   UNL     1      40.869  -9.366   0.180  1.00  0.00     0.166 A 
HETATM    8  N   UNL     1      40.365 -10.235  -0.757  1.00  0.00    -0.046 NA
HETATM    9  C   UNL     1      41.605 -12.366   1.857  1.00  0.00     0.204 C 
HETATM   10  C   UNL     1      41.078 -13.701   1.328  1.00  0.00     0.062 C 
HETATM   11  H   UNL     1      39.706 -12.725  -1.486  1.00  0.00     0.184 HD
ENDROOT
BRANCH  10  12
HETATM   12  C   UNL     1      41.276 -14.895   2.195  1.00  0.00     0.256 C 
HETATM   13  N   UNL     1      42.594 -15.291   2.289  1.00  0.00    -0.323 N 
HETATM   14  H   UNL     1      43.286 -14.720   1.821  1.00  0.00     0.169 HD
HETATM   15  O   UNL     1      40.315 -15.408   2.750  1.00  0.00    -0.267 OA
BRANCH  13  16
HETATM   16  C   UNL     1      43.079 -16.471   2.897  1.00  0.00     0.035 A 
HETATM   17  C   UNL     1      43.188 -17.702   2.239  1.00  0.00     0.032 A 
HETATM   18  C   UNL     1      43.718 -18.816   2.896  1.00  0.00     0.044 A 
HETATM   19  C   UNL     1      44.139 -18.701   4.214  1.00  0.00     0.116 A 
HETATM   20  F   UNL     1      44.656 -19.766   4.840  1.00  0.00    -0.206 F 
HETATM   21  C   UNL     1      44.034 -17.492   4.888  1.00  0.00     0.044 A 
HETATM   22  C   UNL     1      43.503 -16.378   4.231  1.00  0.00     0.032 A 
ENDBRANCH  13  16
ENDBRANCH  10  12
BRANCH   9  23
HETATM   23  C   UNL     1      41.310 -12.036   3.321  1.00  0.00    -0.005 A 
HETATM   24  C   UNL     1      42.302 -11.729   4.277  1.00  0.00     0.064 A 
HETATM   25 CL   UNL     1      43.981 -11.712   3.833  1.00  0.00    -0.082 Cl
HETATM   26  C   UNL     1      41.928 -11.431   5.601  1.00  0.00     0.056 A 
HETATM   27 CL   UNL     1      43.083 -11.038   6.830  1.00  0.00    -0.083 Cl
HETATM   28  C   UNL     1      40.583 -11.441   5.978  1.00  0.00     0.026 A 
HETATM   29  C   UNL     1      39.598 -11.748   5.045  1.00  0.00     0.002 A 
HETATM   30  C   UNL     1      39.958 -12.042   3.731  1.00  0.00     0.011 A 
ENDBRANCH   9  23
BRANCH   7  31
HETATM   31  C   UNL     1      40.698  -7.895   0.064  1.00  0.00     0.085 C 
BRANCH  31  32
HETATM   32  C   UNL     1      41.395  -7.316  -1.170  1.00  0.00     0.034 C 
BRANCH  32  33
HETATM   33  C   UNL     1      42.910  -7.185  -1.039  1.00  0.00     0.164 C 
BRANCH  33  34
HETATM   34  O   UNL     1      43.569  -8.346  -1.523  1.00  0.00    -0.401 OA
HETATM   35  H   UNL     1      43.193  -9.104  -1.033  1.00  0.00     0.209 HD
ENDBRANCH  33  34
ENDBRANCH  32  33
ENDBRANCH  31  32
ENDBRANCH   7  31
TORSDOF 7
ENDMDL
MODEL 6
REMARK VINA RESULT:      -7.8      4.318      8.323
REMARK  7 active torsions:
REMARK  status: ('A' for Active; 'I' for Inactive)
REMARK    1  A    between atoms: C_7  and  C_8 
REMARK    2  A    between atoms: C_8  and  C_9 
REMARK    3  A    between atoms: C_9  and  C_10 
REMARK    4  A    between atoms: C_10  and  O_11 
REMARK    5  A    between atoms: C_13  and  C_14 
REMARK    6  A    between atoms: C_22  and  C_23 
REMARK       I    between atoms: C_23  and  N_24 
REMARK    7  A    between atoms: N_24  and  C_25 
ROOT
HETATM    1  C   UNL     1      43.116 -15.462   8.239  1.00  0.00     0.070 C 
HETATM    2  C   UNL     1      43.311 -15.571   6.745  1.00  0.00     0.037 C 
HETATM    3  N   UNL     1      43.549 -16.856   6.271  1.00  0.00    -0.192 N 
HETATM    4  C   UNL     1      43.540 -17.173   4.963  1.00  0.00     0.726 A 
HETATM    5  N   UNL     1      43.418 -16.180   4.030  1.00  0.00    -0.083 N 
HETATM    6  N   UNL     1      43.397 -16.685   2.776  1.00  0.00    -0.140 NA
HETATM    7  C   UNL     1      43.476 -18.001   3.036  1.00  0.00     0.166 A 
HETATM    8  N   UNL     1      43.584 -18.334   4.364  1.00  0.00    -0.046 NA
HETATM    9  C   UNL     1      43.329 -14.750   4.364  1.00  0.00     0.204 C 
HETATM   10  C   UNL     1      43.219 -14.533   5.874  1.00  0.00     0.062 C 
HETATM   11  H   UNL     1      43.516 -17.619   6.942  1.00  0.00     0.184 HD
ENDROOT
BRANCH  10  12
HETATM   12  C   UNL     1      42.975 -13.139   6.339  1.00  0.00     0.256 C 
HETATM   13  N   UNL     1      44.134 -12.434   6.588  1.00  0.00    -0.323 N 
HETATM   14  H   UNL     1      45.012 -12.894   6.387  1.00  0.00     0.169 HD
HETATM   15  O   UNL     1      41.829 -12.727   6.447  1.00  0.00    -0.267 OA
BRANCH  13  16
HETATM   16  C   UNL     1      44.232 -11.158   7.188  1.00  0.00     0.035 A 
HETATM   17  C   UNL     1      43.134 -10.328   7.442  1.00  0.00     0.032 A 
HETATM   18  C   UNL     1      43.306  -9.095   8.079  1.00  0.00     0.044 A 
HETATM   19  C   UNL     1      44.577  -8.691   8.461  1.00  0.00     0.116 A 
HETATM   20  F   UNL     1      44.740  -7.514   9.080  1.00  0.00    -0.206 F 
HETATM   21  C   UNL     1      45.681  -9.494   8.213  1.00  0.00     0.044 A 
HETATM   22  C   UNL     1      45.509 -10.726   7.575  1.00  0.00     0.032 A 
ENDBRANCH  13  16
ENDBRANCH  10  12
BRANCH   9  23
HETATM   23  C   UNL     1      42.287 -14.054   3.487  1.00  0.00    -0.005 A 
HETATM   24  C   UNL     1      42.470 -12.783   2.900  1.00  0.00     0.064 A 
HETATM   25 CL   UNL     1      43.943 -11.898   3.152  1.00  0.00    -0.082 Cl
HETATM   26  C   UNL     1      41.452 -12.230   2.101  1.00  0.00     0.056 A 
HETATM   27 CL   UNL     1      41.602 -10.681   1.340  1.00  0.00    -0.083 Cl
HETATM   28  C   UNL     1      40.260 -12.926   1.887  1.00  0.00     0.026 A 
HETATM   29  C   UNL     1      40.067 -14.176   2.465  1.00  0.00     0.002 A 
HETATM   30  C   UNL     1      41.070 -14.734   3.257  1.00  0.00     0.011 A 
ENDBRANCH   9  23
BRANCH   7  31
HETATM   31  C   UNL     1      43.332 -19.028   1.973  1.00  0.00     0.085 C 
BRANCH  31  32
HETATM   32  C   UNL     1      42.981 -20.410   2.533  1.00  0.00     0.034 C 
BRANCH  32  33
HETATM   33  C   UNL     1      44.164 -21.173   3.124  1.00  0.00     0.164 C 
BRANCH  33  34
HETATM   34  O   UNL     1      43.951 -21.465   4.497  1.00  0.00    -0.401 OA
HETATM   35  H   UNL     1      44.776 -21.874   4.826  1.00  0.00     0.209 HD
ENDBRANCH  33  34
ENDBRANCH  32  33
ENDBRANCH  31  32
ENDBRANCH   7  31
TORSDOF 7
ENDMDL
MODEL 7
REMARK VINA RESULT:      -7.4     17.537     20.198
REMARK  7 active torsions:
REMARK  status: ('A' for Active; 'I' for Inactive)
REMARK    1  A    between atoms: C_7  and  C_8 
REMARK    2  A    between atoms: C_8  and  C_9 
REMARK    3  A    between atoms: C_9  and  C_10 
REMARK    4  A    between atoms: C_10  and  O_11 
REMARK    5  A    between atoms: C_13  and  C_14 
REMARK    6  A    between atoms: C_22  and  C_23 
REMARK       I    between atoms: C_23  and  N_24 
REMARK    7  A    between atoms: N_24  and  C_25 
ROOT
HETATM    1  C   UNL     1      49.564 -31.378   3.000  1.00  0.00     0.070 C 
HETATM    2  C   UNL     1      49.856 -30.953   1.580  1.00  0.00     0.037 C 
HETATM    3  N   UNL     1      51.051 -31.427   1.054  1.00  0.00    -0.192 N 
HETATM    4  C   UNL     1      51.376 -31.327  -0.248  1.00  0.00     0.726 A 
HETATM    5  N   UNL     1      50.565 -30.618  -1.092  1.00  0.00    -0.083 N 
HETATM    6  N   UNL     1      51.029 -30.651  -2.361  1.00  0.00    -0.140 NA
HETATM    7  C   UNL     1      52.111 -31.433  -2.211  1.00  0.00     0.166 A 
HETATM    8  N   UNL     1      52.364 -31.849  -0.927  1.00  0.00    -0.046 NA
HETATM    9  C   UNL     1      49.350 -29.910  -0.656  1.00  0.00     0.204 C 
HETATM   10  C   UNL     1      49.023 -30.208   0.808  1.00  0.00     0.062 C 
HETATM   11  H   UNL     1      51.601 -32.059   1.630  1.00  0.00     0.184 HD
ENDROOT
BRANCH  10  12
HETATM   12  C   UNL     1      47.737 -29.672   1.333  1.00  0.00     0.256 C 
HETATM   13  N   UNL     1      46.664 -30.514   1.119  1.00  0.00    -0.323 N 
HETATM   14  H   UNL     1      46.854 -31.410   0.689  1.00  0.00     0.169 HD
HETATM   15  O   UNL     1      47.717 -28.591   1.904  1.00  0.00    -0.267 OA
BRANCH  13  16
HETATM   16  C   UNL     1      45.302 -30.220   1.354  1.00  0.00     0.035 A 
HETATM   17  C   UNL     1      44.677 -30.355   2.599  1.00  0.00     0.032 A 
HETATM   18  C   UNL     1      43.334 -30.002   2.763  1.00  0.00     0.044 A 
HETATM   19  C   UNL     1      42.615 -29.514   1.681  1.00  0.00     0.116 A 
HETATM   20  F   UNL     1      41.331 -29.167   1.841  1.00  0.00    -0.206 F 
HETATM   21  C   UNL     1      43.212 -29.378   0.436  1.00  0.00     0.044 A 
HETATM   22  C   UNL     1      44.555 -29.732   0.272  1.00  0.00     0.032 A 
ENDBRANCH  13  16
ENDBRANCH  10  12
BRANCH   9  23
HETATM   23  C   UNL     1      48.222 -30.100  -1.671  1.00  0.00    -0.005 A 
HETATM   24  C   UNL     1      47.348 -29.071  -2.082  1.00  0.00     0.064 A 
HETATM   25 CL   UNL     1      47.505 -27.467  -1.433  1.00  0.00    -0.082 Cl
HETATM   26  C   UNL     1      46.344 -29.344  -3.029  1.00  0.00     0.056 A 
HETATM   27 CL   UNL     1      45.237 -28.136  -3.590  1.00  0.00    -0.083 Cl
HETATM   28  C   UNL     1      46.201 -30.628  -3.562  1.00  0.00     0.026 A 
HETATM   29  C   UNL     1      47.052 -31.650  -3.160  1.00  0.00     0.002 A 
HETATM   30  C   UNL     1      48.052 -31.389  -2.224  1.00  0.00     0.011 A 
ENDBRANCH   9  23
BRANCH   7  31
HETATM   31  C   UNL     1      52.908 -31.914  -3.368  1.00  0.00     0.085 C 
BRANCH  31  32
HETATM   32  C   UNL     1      53.630 -33.234  -3.079  1.00  0.00     0.034 C 
BRANCH  32  33
HETATM   33  C   UNL     1      55.114 -33.086  -2.756  1.00  0.00     0.164 C 
BRANCH  33  34
HETATM   34  O   UNL     1      55.305 -32.532  -1.462  1.00  0.00    -0.401 OA
HETATM   35  H   UNL     1      55.602 -33.264  -0.887  1.00  0.00     0.209 HD
ENDBRANCH  33  34
ENDBRANCH  32  33
ENDBRANCH  31  32
ENDBRANCH   7  31
TORSDOF 7
ENDMDL
MODEL 8
REMARK VINA RESULT:      -7.4      3.831      6.252
REMARK  7 active torsions:
REMARK  status: ('A' for Active; 'I' for Inactive)
REMARK    1  A    between atoms: C_7  and  C_8 
REMARK    2  A    between atoms: C_8  and  C_9 
REMARK    3  A    between atoms: C_9  and  C_10 
REMARK    4  A    between atoms: C_10  and  O_11 
REMARK    5  A    between atoms: C_13  and  C_14 
REMARK    6  A    between atoms: C_22  and  C_23 
REMARK       I    between atoms: C_23  and  N_24 
REMARK    7  A    between atoms: N_24  and  C_25 
ROOT
HETATM    1  C   UNL     1      39.827 -14.928  -0.156  1.00  0.00     0.070 C 
HETATM    2  C   UNL     1      40.372 -15.084   1.244  1.00  0.00     0.037 C 
HETATM    3  N   UNL     1      40.968 -16.310   1.515  1.00  0.00    -0.192 N 
HETATM    4  C   UNL     1      41.685 -16.552   2.627  1.00  0.00     0.726 A 
HETATM    5  N   UNL     1      41.740 -15.606   3.613  1.00  0.00    -0.083 N 
HETATM    6  N   UNL     1      42.528 -16.008   4.636  1.00  0.00    -0.140 NA
HETATM    7  C   UNL     1      42.944 -17.200   4.177  1.00  0.00     0.166 A 
HETATM    8  N   UNL     1      42.433 -17.574   2.958  1.00  0.00    -0.046 NA
HETATM    9  C   UNL     1      41.022 -14.322   3.555  1.00  0.00     0.204 C 
HETATM   10  C   UNL     1      40.355 -14.114   2.195  1.00  0.00     0.062 C 
HETATM   11  H   UNL     1      41.045 -16.975   0.749  1.00  0.00     0.184 HD
ENDROOT
BRANCH  10  12
HETATM   12  C   UNL     1      39.719 -12.790   1.952  1.00  0.00     0.256 C 
HETATM   13  N   UNL     1      40.476 -11.956   1.153  1.00  0.00    -0.323 N 
HETATM   14  H   UNL     1      41.337 -12.330   0.776  1.00  0.00     0.169 HD
HETATM   15  O   UNL     1      38.621 -12.546   2.432  1.00  0.00    -0.267 OA
BRANCH  13  16
HETATM   16  C   UNL     1      40.222 -10.594   0.878  1.00  0.00     0.035 A 
HETATM   17  C   UNL     1      39.498 -10.142  -0.231  1.00  0.00     0.032 A 
HETATM   18  C   UNL     1      39.251  -8.778  -0.413  1.00  0.00     0.044 A 
HETATM   19  C   UNL     1      39.729  -7.864   0.515  1.00  0.00     0.116 A 
HETATM   20  F   UNL     1      39.483  -6.558   0.346  1.00  0.00    -0.206 F 
HETATM   21  C   UNL     1      40.455  -8.288   1.619  1.00  0.00     0.044 A 
HETATM   22  C   UNL     1      40.703  -9.652   1.800  1.00  0.00     0.032 A 
ENDBRANCH  13  16
ENDBRANCH  10  12
BRANCH   9  23
HETATM   23  C   UNL     1      41.905 -13.187   4.075  1.00  0.00    -0.005 A 
HETATM   24  C   UNL     1      41.603 -12.411   5.216  1.00  0.00     0.064 A 
HETATM   25 CL   UNL     1      40.156 -12.708   6.128  1.00  0.00    -0.082 Cl
HETATM   26  C   UNL     1      42.485 -11.391   5.619  1.00  0.00     0.056 A 
HETATM   27 CL   UNL     1      42.191 -10.401   7.009  1.00  0.00    -0.083 Cl
HETATM   28  C   UNL     1      43.654 -11.136   4.897  1.00  0.00     0.026 A 
HETATM   29  C   UNL     1      43.957 -11.890   3.770  1.00  0.00     0.002 A 
HETATM   30  C   UNL     1      43.091 -12.904   3.363  1.00  0.00     0.011 A 
ENDBRANCH   9  23
BRANCH   7  31
HETATM   31  C   UNL     1      43.978 -18.001   4.878  1.00  0.00     0.085 C 
BRANCH  31  32
HETATM   32  C   UNL     1      44.488 -19.174   4.034  1.00  0.00     0.034 C 
BRANCH  32  33
HETATM   33  C   UNL     1      44.145 -20.553   4.593  1.00  0.00     0.164 C 
BRANCH  33  34
HETATM   34  O   UNL     1      43.946 -21.494   3.549  1.00  0.00    -0.401 OA
HETATM   35  H   UNL     1      43.425 -21.038   2.859  1.00  0.00     0.209 HD
ENDBRANCH  33  34
ENDBRANCH  32  33
ENDBRANCH  31  32
ENDBRANCH   7  31
TORSDOF 7
ENDMDL
MODEL 9
REMARK VINA RESULT:      -7.3      3.854      8.692
REMARK  7 active torsions:
REMARK  status: ('A' for Active; 'I' for Inactive)
REMARK    1  A    between atoms: C_7  and  C_8 
REMARK    2  A    between atoms: C_8  and  C_9 
REMARK    3  A    between atoms: C_9  and  C_10 
REMARK    4  A    between atoms: C_10  and  O_11 
REMARK    5  A    between atoms: C_13  and  C_14 
REMARK    6  A    between atoms: C_22  and  C_23 
REMARK       I    between atoms: C_23  and  N_24 
REMARK    7  A    between atoms: N_24  and  C_25 
ROOT
HETATM    1  C   UNL     1      43.507 -16.119   4.342  1.00  0.00     0.070 C 
HETATM    2  C   UNL     1      42.824 -15.029   3.552  1.00  0.00     0.037 C 
HETATM    3  N   UNL     1      42.366 -15.406   2.295  1.00  0.00    -0.192 N 
HETATM    4  C   UNL     1      41.558 -14.636   1.542  1.00  0.00     0.726 A 
HETATM    5  N   UNL     1      41.262 -13.366   1.954  1.00  0.00    -0.083 N 
HETATM    6  N   UNL     1      40.417 -12.755   1.094  1.00  0.00    -0.140 NA
HETATM    7  C   UNL     1      40.219 -13.738   0.199  1.00  0.00     0.166 A 
HETATM    8  N   UNL     1      40.918 -14.897   0.432  1.00  0.00    -0.046 NA
HETATM    9  C   UNL     1      41.806 -12.755   3.178  1.00  0.00     0.204 C 
HETATM   10  C   UNL     1      42.598 -13.768   4.006  1.00  0.00     0.062 C 
HETATM   11  H   UNL     1      42.470 -16.382   2.030  1.00  0.00     0.184 HD
ENDROOT
BRANCH  10  12
HETATM   12  C   UNL     1      43.079 -13.319   5.341  1.00  0.00     0.256 C 
HETATM   13  N   UNL     1      43.623 -12.051   5.329  1.00  0.00    -0.323 N 
HETATM   14  H   UNL     1      43.596 -11.541   4.456  1.00  0.00     0.169 HD
HETATM   15  O   UNL     1      42.952 -14.052   6.311  1.00  0.00    -0.267 OA
BRANCH  13  16
HETATM   16  C   UNL     1      44.305 -11.416   6.392  1.00  0.00     0.035 A 
HETATM   17  C   UNL     1      45.698 -11.371   6.511  1.00  0.00     0.032 A 
HETATM   18  C   UNL     1      46.301 -10.685   7.571  1.00  0.00     0.044 A 
HETATM   19  C   UNL     1      45.509 -10.044   8.512  1.00  0.00     0.116 A 
HETATM   20  F   UNL     1      46.087  -9.378   9.521  1.00  0.00    -0.206 F 
HETATM   21  C   UNL     1      44.125 -10.081   8.418  1.00  0.00     0.044 A 
HETATM   22  C   UNL     1      43.522 -10.768   7.360  1.00  0.00     0.032 A 
ENDBRANCH  13  16
ENDBRANCH  10  12
BRANCH   9  23
HETATM   23  C   UNL     1      40.726 -11.957   3.909  1.00  0.00    -0.005 A 
HETATM   24  C   UNL     1      40.482 -10.582   3.701  1.00  0.00     0.064 A 
HETATM   25 CL   UNL     1      41.434  -9.680   2.561  1.00  0.00    -0.082 Cl
HETATM   26  C   UNL     1      39.458  -9.938   4.418  1.00  0.00     0.056 A 
HETATM   27 CL   UNL     1      39.091  -8.257   4.215  1.00  0.00    -0.083 Cl
HETATM   28  C   UNL     1      38.683 -10.646   5.340  1.00  0.00     0.026 A 
HETATM   29  C   UNL     1      38.918 -11.999   5.558  1.00  0.00     0.002 A 
HETATM   30  C   UNL     1      39.929 -12.647   4.850  1.00  0.00     0.011 A 
ENDBRANCH   9  23
BRANCH   7  31
HETATM   31  C   UNL     1      39.223 -13.624  -0.896  1.00  0.00     0.085 C 
BRANCH  31  32
HETATM   32  C   UNL     1      39.676 -14.322  -2.181  1.00  0.00     0.034 C 
BRANCH  32  33
HETATM   33  C   UNL     1      38.546 -14.944  -2.997  1.00  0.00     0.164 C 
BRANCH  33  34
HETATM   34  O   UNL     1      38.255 -16.260  -2.551  1.00  0.00    -0.401 OA
HETATM   35  H   UNL     1      39.009 -16.538  -1.993  1.00  0.00     0.209 HD
ENDBRANCH  33  34
ENDBRANCH  32  33
ENDBRANCH  31  32
ENDBRANCH   7  31
TORSDOF 7
ENDMDL
MODEL 10
REMARK VINA RESULT:      -7.2     17.492     19.234
REMARK  7 active torsions:
REMARK  status: ('A' for Active; 'I' for Inactive)
REMARK    1  A    between atoms: C_7  and  C_8 
REMARK    2  A    between atoms: C_8  and  C_9 
REMARK    3  A    between atoms: C_9  and  C_10 
REMARK    4  A    between atoms: C_10  and  O_11 
REMARK    5  A    between atoms: C_13  and  C_14 
REMARK    6  A    between atoms: C_22  and  C_23 
REMARK       I    between atoms: C_23  and  N_24 
REMARK    7  A    between atoms: N_24  and  C_25 
ROOT
HETATM    1  C   UNL     1      45.151 -28.937  -2.386  1.00  0.00     0.070 C 
HETATM    2  C   UNL     1      44.971 -29.006  -0.889  1.00  0.00     0.037 C 
HETATM    3  N   UNL     1      43.652 -29.019  -0.450  1.00  0.00    -0.192 N 
HETATM    4  C   UNL     1      43.299 -29.285   0.820  1.00  0.00     0.726 A 
HETATM    5  N   UNL     1      44.269 -29.429   1.774  1.00  0.00    -0.083 N 
HETATM    6  N   UNL     1      43.734 -29.722   2.979  1.00  0.00    -0.140 NA
HETATM    7  C   UNL     1      42.428 -29.774   2.667  1.00  0.00     0.166 A 
HETATM    8  N   UNL     1      42.124 -29.493   1.357  1.00  0.00    -0.046 NA
HETATM    9  C   UNL     1      45.708 -29.274   1.505  1.00  0.00     0.204 C 
HETATM   10  C   UNL     1      45.985 -29.104   0.010  1.00  0.00     0.062 C 
HETATM   11  H   UNL     1      42.921 -29.040  -1.158  1.00  0.00     0.184 HD
ENDROOT
BRANCH  10  12
HETATM   12  C   UNL     1      47.412 -29.084  -0.414  1.00  0.00     0.256 C 
HETATM   13  N   UNL     1      47.943 -30.343  -0.609  1.00  0.00    -0.323 N 
HETATM   14  H   UNL     1      47.319 -31.133  -0.503  1.00  0.00     0.169 HD
HETATM   15  O   UNL     1      47.984 -28.016  -0.571  1.00  0.00    -0.267 OA
BRANCH  13  16
HETATM   16  C   UNL     1      49.299 -30.658  -0.853  1.00  0.00     0.035 A 
HETATM   17  C   UNL     1      50.177 -31.141   0.123  1.00  0.00     0.032 A 
HETATM   18  C   UNL     1      51.496 -31.471  -0.206  1.00  0.00     0.044 A 
HETATM   19  C   UNL     1      51.936 -31.317  -1.513  1.00  0.00     0.116 A 
HETATM   20  F   UNL     1      53.196 -31.644  -1.829  1.00  0.00    -0.206 F 
HETATM   21  C   UNL     1      51.085 -30.834  -2.496  1.00  0.00     0.044 A 
HETATM   22  C   UNL     1      49.767 -30.502  -2.167  1.00  0.00     0.032 A 
ENDBRANCH  13  16
ENDBRANCH  10  12
BRANCH   9  23
HETATM   23  C   UNL     1      46.513 -30.346   2.240  1.00  0.00    -0.005 A 
HETATM   24  C   UNL     1      47.678 -30.083   2.993  1.00  0.00     0.064 A 
HETATM   25 CL   UNL     1      48.293 -28.464   3.129  1.00  0.00    -0.082 Cl
HETATM   26  C   UNL     1      48.345 -31.139   3.641  1.00  0.00     0.056 A 
HETATM   27 CL   UNL     1      49.775 -30.898   4.587  1.00  0.00    -0.083 Cl
HETATM   28  C   UNL     1      47.867 -32.448   3.541  1.00  0.00     0.026 A 
HETATM   29  C   UNL     1      46.723 -32.719   2.799  1.00  0.00     0.002 A 
HETATM   30  C   UNL     1      46.054 -31.680   2.155  1.00  0.00     0.011 A 
ENDBRANCH   9  23
BRANCH   7  31
HETATM   31  C   UNL     1      41.398 -30.224   3.637  1.00  0.00     0.085 C 
BRANCH  31  32
HETATM   32  C   UNL     1      41.868 -31.405   4.490  1.00  0.00     0.034 C 
BRANCH  32  33
HETATM   33  C   UNL     1      41.291 -31.436   5.903  1.00  0.00     0.164 C 
BRANCH  33  34
HETATM   34  O   UNL     1      42.151 -30.780   6.823  1.00  0.00    -0.401 OA
HETATM   35  H   UNL     1      42.740 -31.468   7.192  1.00  0.00     0.209 HD
ENDBRANCH  33  34
ENDBRANCH  32  33
ENDBRANCH  31  32
ENDBRANCH   7  31
TORSDOF 7
ENDMDL
