MODEL 1
REMARK VINA RESULT:      -8.0      0.000      0.000
REMARK  4 active torsions:
REMARK  status: ('A' for Active; 'I' for Inactive)
REMARK    1  A    between atoms: C_2  and  O_3 
REMARK    2  A    between atoms: O_3  and  C_4 
REMARK    3  A    between atoms: C_10  and  N_11 
REMARK       I    between atoms: N_11  and  C_12 
REMARK    4  A    between atoms: C_12  and  C_13 
ROOT
HETATM    1  N   UNL     1      43.802 -16.955   5.223  1.00  0.00    -0.320 N 
HETATM    2  C   UNL     1      42.688 -16.204   5.540  1.00  0.00     0.257 C 
HETATM    3  O   UNL     1      41.548 -16.625   5.695  1.00  0.00    -0.267 OA
HETATM    4  H   UNL     1      44.715 -16.514   5.253  1.00  0.00     0.169 HD
ENDROOT
BRANCH   2   5
HETATM    5  C   UNL     1      42.929 -14.753   5.748  1.00  0.00     0.052 A 
HETATM    6  C   UNL     1      42.820 -13.906   4.643  1.00  0.00     0.136 A 
HETATM    7  N   UNL     1      43.010 -12.565   4.649  1.00  0.00    -0.238 NA
HETATM    8  C   UNL     1      43.363 -12.059   5.850  1.00  0.00     0.177 A 
HETATM    9  C   UNL     1      43.514 -12.838   6.991  1.00  0.00     0.083 A 
HETATM   10  N   UNL     1      43.625 -10.745   6.109  1.00  0.00    -0.214 NA
HETATM   11  N   UNL     1      43.898 -11.943   7.956  1.00  0.00    -0.342 N 
HETATM   12  C   UNL     1      43.302 -14.218   6.987  1.00  0.00     0.052 A 
HETATM   13  H   UNL     1      44.113 -12.157   8.920  1.00  0.00     0.167 HD
HETATM   14  C   UNL     1      43.950 -10.694   7.385  1.00  0.00     0.103 A 
HETATM   15  C   UNL     1      44.343  -9.485   8.145  1.00  0.00     0.091 C 
ENDBRANCH   2   5
BRANCH   1  16
HETATM   16  C   UNL     1      43.848 -18.333   4.903  1.00  0.00     0.070 A 
HETATM   17  C   UNL     1      43.857 -18.684   3.540  1.00  0.00     0.117 A 
HETATM   18  C   UNL     1      43.815 -20.031   3.152  1.00  0.00     0.069 A 
HETATM   19 CL   UNL     1      43.735 -20.498   1.491  1.00  0.00    -0.081 Cl
HETATM   20  C   UNL     1      43.827 -21.035   4.120  1.00  0.00     0.027 A 
HETATM   21  C   UNL     1      43.857 -20.693   5.471  1.00  0.00     0.004 A 
HETATM   22  C   UNL     1      43.861 -19.350   5.860  1.00  0.00     0.032 A 
BRANCH  17  23
HETATM   23  O   UNL     1      43.841 -17.673   2.604  1.00  0.00    -0.347 OA
BRANCH  23  24
HETATM   24  C   UNL     1      42.493 -17.361   2.218  1.00  0.00     0.171 C 
HETATM   25  C   UNL     1      42.481 -15.962   1.633  1.00  0.00     0.034 C 
ENDBRANCH  23  24
ENDBRANCH  17  23
ENDBRANCH   1  16
TORSDOF 4
ENDMDL
MODEL 2
REMARK VINA RESULT:      -7.8      3.802      6.421
REMARK  4 active torsions:
REMARK  status: ('A' for Active; 'I' for Inactive)
REMARK    1  A    between atoms: C_2  and  O_3 
REMARK    2  A    between atoms: O_3  and  C_4 
REMARK    3  A    between atoms: C_10  and  N_11 
REMARK       I    between atoms: N_11  and  C_12 
REMARK    4  A    between atoms: C_12  and  C_13 
ROOT
HETATM    1  N   UNL     1      42.452 -15.471   3.156  1.00  0.00    -0.320 N 
HETATM    2  C   UNL     1      41.323 -14.684   3.050  1.00  0.00     0.257 C 
HETATM    3  O   UNL     1      40.685 -14.200   3.977  1.00  0.00    -0.267 OA
HETATM    4  H   UNL     1      42.969 -15.702   2.315  1.00  0.00     0.169 HD
ENDROOT
BRANCH   2   5
HETATM    5  C   UNL     1      40.882 -14.377   1.665  1.00  0.00     0.052 A 
HETATM    6  C   UNL     1      41.265 -13.154   1.112  1.00  0.00     0.136 A 
HETATM    7  N   UNL     1      40.951 -12.709  -0.128  1.00  0.00    -0.238 NA
HETATM    8  C   UNL     1      40.170 -13.552  -0.839  1.00  0.00     0.177 A 
HETATM    9  C   UNL     1      39.729 -14.776  -0.352  1.00  0.00     0.083 A 
HETATM   10  N   UNL     1      39.707 -13.325  -2.103  1.00  0.00    -0.214 NA
HETATM   11  N   UNL     1      38.959 -15.280  -1.368  1.00  0.00    -0.342 N 
HETATM   12  C   UNL     1      40.068 -15.240   0.921  1.00  0.00     0.052 A 
HETATM   13  H   UNL     1      38.460 -16.159  -1.363  1.00  0.00     0.167 HD
HETATM   14  C   UNL     1      38.975 -14.378  -2.404  1.00  0.00     0.103 A 
HETATM   15  C   UNL     1      38.233 -14.601  -3.668  1.00  0.00     0.091 C 
ENDBRANCH   2   5
BRANCH   1  16
HETATM   16  C   UNL     1      43.043 -15.973   4.340  1.00  0.00     0.070 A 
HETATM   17  C   UNL     1      43.192 -17.368   4.452  1.00  0.00     0.117 A 
HETATM   18  C   UNL     1      43.690 -17.938   5.633  1.00  0.00     0.069 A 
HETATM   19 CL   UNL     1      43.803 -19.648   5.841  1.00  0.00    -0.081 Cl
HETATM   20  C   UNL     1      44.099 -17.117   6.684  1.00  0.00     0.027 A 
HETATM   21  C   UNL     1      43.989 -15.733   6.563  1.00  0.00     0.004 A 
HETATM   22  C   UNL     1      43.458 -15.164   5.401  1.00  0.00     0.032 A 
BRANCH  17  23
HETATM   23  O   UNL     1      42.776 -18.156   3.401  1.00  0.00    -0.347 OA
BRANCH  23  24
HETATM   24  C   UNL     1      43.905 -18.734   2.725  1.00  0.00     0.171 C 
HETATM   25  C   UNL     1      43.486 -20.086   2.179  1.00  0.00     0.034 C 
ENDBRANCH  23  24
ENDBRANCH  17  23
ENDBRANCH   1  16
TORSDOF 4
ENDMDL
MODEL 3
REMARK VINA RESULT:      -7.8      4.042      6.373
REMARK  4 active torsions:
REMARK  status: ('A' for Active; 'I' for Inactive)
REMARK    1  A    between atoms: C_2  and  O_3 
REMARK    2  A    between atoms: O_3  and  C_4 
REMARK    3  A    between atoms: C_10  and  N_11 
REMARK       I    between atoms: N_11  and  C_12 
REMARK    4  A    between atoms: C_12  and  C_13 
ROOT
HETATM    1  N   UNL     1      41.984 -16.241   2.262  1.00  0.00    -0.320 N 
HETATM    2  C   UNL     1      42.426 -15.024   1.784  1.00  0.00     0.257 C 
HETATM    3  O   UNL     1      43.551 -14.557   1.913  1.00  0.00    -0.267 OA
HETATM    4  H   UNL     1      41.071 -16.578   1.977  1.00  0.00     0.169 HD
ENDROOT
BRANCH   2   5
HETATM    5  C   UNL     1      41.432 -14.242   1.004  1.00  0.00     0.052 A 
HETATM    6  C   UNL     1      41.374 -12.862   1.213  1.00  0.00     0.136 A 
HETATM    7  N   UNL     1      40.531 -12.000   0.597  1.00  0.00    -0.238 NA
HETATM    8  C   UNL     1      39.672 -12.584  -0.266  1.00  0.00     0.177 A 
HETATM    9  C   UNL     1      39.651 -13.952  -0.513  1.00  0.00     0.083 A 
HETATM   10  N   UNL     1      38.718 -11.935  -0.995  1.00  0.00    -0.214 NA
HETATM   11  N   UNL     1      38.629 -14.111  -1.412  1.00  0.00    -0.342 N 
HETATM   12  C   UNL     1      40.532 -14.836   0.112  1.00  0.00     0.052 A 
HETATM   13  H   UNL     1      38.313 -14.984  -1.811  1.00  0.00     0.167 HD
HETATM   14  C   UNL     1      38.096 -12.873  -1.678  1.00  0.00     0.103 A 
HETATM   15  C   UNL     1      36.958 -12.677  -2.608  1.00  0.00     0.091 C 
ENDBRANCH   2   5
BRANCH   1  16
HETATM   16  C   UNL     1      42.690 -17.147   3.089  1.00  0.00     0.070 A 
HETATM   17  C   UNL     1      42.641 -16.933   4.479  1.00  0.00     0.117 A 
HETATM   18  C   UNL     1      43.387 -17.741   5.350  1.00  0.00     0.069 A 
HETATM   19 CL   UNL     1      43.423 -17.453   7.053  1.00  0.00    -0.081 Cl
HETATM   20  C   UNL     1      44.135 -18.804   4.845  1.00  0.00     0.027 A 
HETATM   21  C   UNL     1      44.156 -19.044   3.472  1.00  0.00     0.004 A 
HETATM   22  C   UNL     1      43.443 -18.216   2.598  1.00  0.00     0.032 A 
BRANCH  17  23
HETATM   23  O   UNL     1      41.898 -15.874   4.952  1.00  0.00    -0.347 OA
BRANCH  23  24
HETATM   24  C   UNL     1      40.579 -16.307   5.322  1.00  0.00     0.171 C 
HETATM   25  C   UNL     1      40.205 -15.621   6.623  1.00  0.00     0.034 C 
ENDBRANCH  23  24
ENDBRANCH  17  23
ENDBRANCH   1  16
TORSDOF 4
ENDMDL
MODEL 4
REMARK VINA RESULT:      -7.4      4.393      6.364
REMARK  4 active torsions:
REMARK  status: ('A' for Active; 'I' for Inactive)
REMARK    1  A    between atoms: C_2  and  O_3 
REMARK    2  A    between atoms: O_3  and  C_4 
REMARK    3  A    between atoms: C_10  and  N_11 
REMARK       I    between atoms: N_11  and  C_12 
REMARK    4  A    between atoms: C_12  and  C_13 
ROOT
HETATM    1  N   UNL     1      42.275 -15.650   1.724  1.00  0.00    -0.320 N 
HETATM    2  C   UNL     1      40.927 -15.425   1.530  1.00  0.00     0.257 C 
HETATM    3  O   UNL     1      40.008 -15.933   2.161  1.00  0.00    -0.267 OA
HETATM    4  H   UNL     1      42.944 -15.071   1.229  1.00  0.00     0.169 HD
ENDROOT
BRANCH   2   5
HETATM    5  C   UNL     1      40.586 -14.436   0.475  1.00  0.00     0.052 A 
HETATM    6  C   UNL     1      39.704 -14.832  -0.533  1.00  0.00     0.136 A 
HETATM    7  N   UNL     1      39.289 -14.066  -1.571  1.00  0.00    -0.238 NA
HETATM    8  C   UNL     1      39.830 -12.829  -1.599  1.00  0.00     0.177 A 
HETATM    9  C   UNL     1      40.731 -12.368  -0.646  1.00  0.00     0.083 A 
HETATM   10  N   UNL     1      39.584 -11.880  -2.549  1.00  0.00    -0.214 NA
HETATM   11  N   UNL     1      41.039 -11.100  -1.067  1.00  0.00    -0.342 N 
HETATM   12  C   UNL     1      41.144 -13.153   0.431  1.00  0.00     0.052 A 
HETATM   13  H   UNL     1      41.681 -10.460  -0.620  1.00  0.00     0.167 HD
HETATM   14  C   UNL     1      40.325 -10.844  -2.212  1.00  0.00     0.103 A 
HETATM   15  C   UNL     1      40.426  -9.560  -2.945  1.00  0.00     0.091 C 
ENDBRANCH   2   5
BRANCH   1  16
HETATM   16  C   UNL     1      42.874 -16.585   2.602  1.00  0.00     0.070 A 
HETATM   17  C   UNL     1      43.298 -16.117   3.859  1.00  0.00     0.117 A 
HETATM   18  C   UNL     1      43.976 -16.970   4.744  1.00  0.00     0.069 A 
HETATM   19 CL   UNL     1      44.591 -16.410   6.257  1.00  0.00    -0.081 Cl
HETATM   20  C   UNL     1      44.179 -18.307   4.403  1.00  0.00     0.027 A 
HETATM   21  C   UNL     1      43.727 -18.785   3.174  1.00  0.00     0.004 A 
HETATM   22  C   UNL     1      43.084 -17.927   2.276  1.00  0.00     0.032 A 
BRANCH  17  23
HETATM   23  O   UNL     1      43.089 -14.791   4.169  1.00  0.00    -0.347 OA
BRANCH  23  24
HETATM   24  C   UNL     1      41.942 -14.646   5.022  1.00  0.00     0.171 C 
HETATM   25  C   UNL     1      41.200 -13.390   4.605  1.00  0.00     0.034 C 
ENDBRANCH  23  24
ENDBRANCH  17  23
ENDBRANCH   1  16
TORSDOF 4
ENDMDL
MODEL 5
REMARK VINA RESULT:      -7.3      2.382      4.472
REMARK  4 active torsions:
REMARK  status: ('A' for Active; 'I' for Inactive)
REMARK    1  A    between atoms: C_2  and  O_3 
REMARK    2  A    between atoms: O_3  and  C_4 
REMARK    3  A    between atoms: C_10  and  N_11 
REMARK       I    between atoms: N_11  and  C_12 
REMARK    4  A    between atoms: C_12  and  C_13 
ROOT
HETATM    1  N   UNL     1      43.177 -13.127   4.824  1.00  0.00    -0.320 N 
HETATM    2  C   UNL     1      43.958 -11.988   4.825  1.00  0.00     0.257 C 
HETATM    3  O   UNL     1      44.397 -11.408   3.839  1.00  0.00    -0.267 OA
HETATM    4  H   UNL     1      42.763 -13.437   5.696  1.00  0.00     0.169 HD
ENDROOT
BRANCH   2   5
HETATM    5  C   UNL     1      44.245 -11.407   6.161  1.00  0.00     0.052 A 
HETATM    6  C   UNL     1      45.581 -11.301   6.556  1.00  0.00     0.136 A 
HETATM    7  N   UNL     1      46.023 -10.803   7.736  1.00  0.00    -0.238 NA
HETATM    8  C   UNL     1      45.041 -10.417   8.579  1.00  0.00     0.177 A 
HETATM    9  C   UNL     1      43.690 -10.511   8.269  1.00  0.00     0.083 A 
HETATM   10  N   UNL     1      45.229  -9.900   9.828  1.00  0.00    -0.214 NA
HETATM   11  N   UNL     1      43.058 -10.045   9.394  1.00  0.00    -0.342 N 
HETATM   12  C   UNL     1      43.236 -11.008   7.046  1.00  0.00     0.052 A 
HETATM   13  H   UNL     1      42.060  -9.978   9.536  1.00  0.00     0.167 HD
HETATM   14  C   UNL     1      44.020  -9.684  10.306  1.00  0.00     0.103 A 
HETATM   15  C   UNL     1      43.687  -9.146  11.646  1.00  0.00     0.091 C 
ENDBRANCH   2   5
BRANCH   1  16
HETATM   16  C   UNL     1      42.815 -13.921   3.711  1.00  0.00     0.070 A 
HETATM   17  C   UNL     1      43.079 -15.302   3.783  1.00  0.00     0.117 A 
HETATM   18  C   UNL     1      42.824 -16.133   2.682  1.00  0.00     0.069 A 
HETATM   19 CL   UNL     1      43.217 -17.815   2.702  1.00  0.00    -0.081 Cl
HETATM   20  C   UNL     1      42.250 -15.603   1.527  1.00  0.00     0.027 A 
HETATM   21  C   UNL     1      41.952 -14.243   1.464  1.00  0.00     0.004 A 
HETATM   22  C   UNL     1      42.240 -13.405   2.547  1.00  0.00     0.032 A 
BRANCH  17  23
HETATM   23  O   UNL     1      43.650 -15.799   4.934  1.00  0.00    -0.347 OA
BRANCH  23  24
HETATM   24  C   UNL     1      42.653 -16.407   5.771  1.00  0.00     0.171 C 
HETATM   25  C   UNL     1      43.255 -17.653   6.393  1.00  0.00     0.034 C 
ENDBRANCH  23  24
ENDBRANCH  17  23
ENDBRANCH   1  16
TORSDOF 4
ENDMDL
MODEL 6
REMARK VINA RESULT:      -6.9      3.665      8.147
REMARK  4 active torsions:
REMARK  status: ('A' for Active; 'I' for Inactive)
REMARK    1  A    between atoms: C_2  and  O_3 
REMARK    2  A    between atoms: O_3  and  C_4 
REMARK    3  A    between atoms: C_10  and  N_11 
REMARK       I    between atoms: N_11  and  C_12 
REMARK    4  A    between atoms: C_12  and  C_13 
ROOT
HETATM    1  N   UNL     1      42.333 -13.113   5.559  1.00  0.00    -0.320 N 
HETATM    2  C   UNL     1      42.782 -13.524   4.320  1.00  0.00     0.257 C 
HETATM    3  O   UNL     1      43.016 -12.804   3.356  1.00  0.00    -0.267 OA
HETATM    4  H   UNL     1      42.304 -13.785   6.317  1.00  0.00     0.169 HD
ENDROOT
BRANCH   2   5
HETATM    5  C   UNL     1      43.039 -14.980   4.181  1.00  0.00     0.052 A 
HETATM    6  C   UNL     1      43.514 -15.671   5.298  1.00  0.00     0.136 A 
HETATM    7  N   UNL     1      43.805 -16.993   5.350  1.00  0.00    -0.238 NA
HETATM    8  C   UNL     1      43.631 -17.646   4.181  1.00  0.00     0.177 A 
HETATM    9  C   UNL     1      43.184 -17.027   3.020  1.00  0.00     0.083 A 
HETATM   10  N   UNL     1      43.871 -18.974   3.973  1.00  0.00    -0.214 NA
HETATM   11  N   UNL     1      43.178 -18.032   2.088  1.00  0.00    -0.342 N 
HETATM   12  C   UNL     1      42.868 -15.668   2.973  1.00  0.00     0.052 A 
HETATM   13  H   UNL     1      42.919 -17.946   1.115  1.00  0.00     0.167 HD
HETATM   14  C   UNL     1      43.595 -19.188   2.703  1.00  0.00     0.103 A 
HETATM   15  C   UNL     1      43.718 -20.476   1.981  1.00  0.00     0.091 C 
ENDBRANCH   2   5
BRANCH   1  16
HETATM   16  C   UNL     1      41.942 -11.808   5.942  1.00  0.00     0.070 A 
HETATM   17  C   UNL     1      42.800 -11.098   6.803  1.00  0.00     0.117 A 
HETATM   18  C   UNL     1      42.433  -9.835   7.290  1.00  0.00     0.069 A 
HETATM   19 CL   UNL     1      43.418  -8.973   8.417  1.00  0.00    -0.081 Cl
HETATM   20  C   UNL     1      41.239  -9.248   6.874  1.00  0.00     0.027 A 
HETATM   21  C   UNL     1      40.403  -9.931   5.992  1.00  0.00     0.004 A 
HETATM   22  C   UNL     1      40.749 -11.206   5.534  1.00  0.00     0.032 A 
BRANCH  17  23
HETATM   23  O   UNL     1      43.972 -11.702   7.202  1.00  0.00    -0.347 OA
BRANCH  23  24
HETATM   24  C   UNL     1      45.067 -11.278   6.374  1.00  0.00     0.171 C 
HETATM   25  C   UNL     1      46.199 -10.833   7.280  1.00  0.00     0.034 C 
ENDBRANCH  23  24
ENDBRANCH  17  23
ENDBRANCH   1  16
TORSDOF 4
ENDMDL
MODEL 7
REMARK VINA RESULT:      -6.9      3.835      4.892
REMARK  4 active torsions:
REMARK  status: ('A' for Active; 'I' for Inactive)
REMARK    1  A    between atoms: C_2  and  O_3 
REMARK    2  A    between atoms: O_3  and  C_4 
REMARK    3  A    between atoms: C_10  and  N_11 
REMARK       I    between atoms: N_11  and  C_12 
REMARK    4  A    between atoms: C_12  and  C_13 
ROOT
HETATM    1  N   UNL     1      43.095 -13.082   4.749  1.00  0.00    -0.320 N 
HETATM    2  C   UNL     1      43.813 -11.903   4.762  1.00  0.00     0.257 C 
HETATM    3  O   UNL     1      44.173 -11.261   3.783  1.00  0.00    -0.267 OA
HETATM    4  H   UNL     1      42.740 -13.449   5.625  1.00  0.00     0.169 HD
ENDROOT
BRANCH   2   5
HETATM    5  C   UNL     1      44.131 -11.360   6.107  1.00  0.00     0.052 A 
HETATM    6  C   UNL     1      45.472 -11.309   6.493  1.00  0.00     0.136 A 
HETATM    7  N   UNL     1      45.940 -10.851   7.679  1.00  0.00    -0.238 NA
HETATM    8  C   UNL     1      44.979 -10.448   8.537  1.00  0.00     0.177 A 
HETATM    9  C   UNL     1      43.623 -10.487   8.237  1.00  0.00     0.083 A 
HETATM   10  N   UNL     1      45.194  -9.963   9.795  1.00  0.00    -0.214 NA
HETATM   11  N   UNL     1      43.017 -10.022   9.376  1.00  0.00    -0.342 N 
HETATM   12  C   UNL     1      43.143 -10.943   7.008  1.00  0.00     0.052 A 
HETATM   13  H   UNL     1      42.023  -9.923   9.527  1.00  0.00     0.167 HD
HETATM   14  C   UNL     1      43.998  -9.714  10.287  1.00  0.00     0.103 A 
HETATM   15  C   UNL     1      43.694  -9.192  11.640  1.00  0.00     0.091 C 
ENDBRANCH   2   5
BRANCH   1  16
HETATM   16  C   UNL     1      42.725 -13.851   3.620  1.00  0.00     0.070 A 
HETATM   17  C   UNL     1      41.399 -14.319   3.557  1.00  0.00     0.117 A 
HETATM   18  C   UNL     1      40.989 -15.158   2.510  1.00  0.00     0.069 A 
HETATM   19 CL   UNL     1      39.397 -15.824   2.447  1.00  0.00    -0.081 Cl
HETATM   20  C   UNL     1      41.882 -15.484   1.489  1.00  0.00     0.027 A 
HETATM   21  C   UNL     1      43.185 -14.992   1.526  1.00  0.00     0.004 A 
HETATM   22  C   UNL     1      43.607 -14.186   2.589  1.00  0.00     0.032 A 
BRANCH  17  23
HETATM   23  O   UNL     1      40.539 -13.986   4.580  1.00  0.00    -0.347 OA
BRANCH  23  24
HETATM   24  C   UNL     1      39.762 -12.829   4.231  1.00  0.00     0.171 C 
HETATM   25  C   UNL     1      39.635 -11.956   5.466  1.00  0.00     0.034 C 
ENDBRANCH  23  24
ENDBRANCH  17  23
ENDBRANCH   1  16
TORSDOF 4
ENDMDL
MODEL 8
REMARK VINA RESULT:      -6.9      4.073      6.071
REMARK  4 active torsions:
REMARK  status: ('A' for Active; 'I' for Inactive)
REMARK    1  A    between atoms: C_2  and  O_3 
REMARK    2  A    between atoms: O_3  and  C_4 
REMARK    3  A    between atoms: C_10  and  N_11 
REMARK       I    between atoms: N_11  and  C_12 
REMARK    4  A    between atoms: C_12  and  C_13 
ROOT
HETATM    1  N   UNL     1      41.819 -14.958   3.412  1.00  0.00    -0.320 N 
HETATM    2  C   UNL     1      42.235 -14.427   2.207  1.00  0.00     0.257 C 
HETATM    3  O   UNL     1      43.386 -14.386   1.790  1.00  0.00    -0.267 OA
HETATM    4  H   UNL     1      40.825 -15.055   3.587  1.00  0.00     0.169 HD
ENDROOT
BRANCH   2   5
HETATM    5  C   UNL     1      41.157 -13.899   1.332  1.00  0.00     0.052 A 
HETATM    6  C   UNL     1      40.733 -14.692   0.264  1.00  0.00     0.136 A 
HETATM    7  N   UNL     1      39.770 -14.369  -0.633  1.00  0.00    -0.238 NA
HETATM    8  C   UNL     1      39.227 -13.146  -0.447  1.00  0.00     0.177 A 
HETATM    9  C   UNL     1      39.609 -12.290   0.578  1.00  0.00     0.083 A 
HETATM   10  N   UNL     1      38.254 -12.587  -1.224  1.00  0.00    -0.214 NA
HETATM   11  N   UNL     1      38.838 -11.173   0.382  1.00  0.00    -0.342 N 
HETATM   12  C   UNL     1      40.589 -12.632   1.511  1.00  0.00     0.052 A 
HETATM   13  H   UNL     1      38.856 -10.328   0.936  1.00  0.00     0.167 HD
HETATM   14  C   UNL     1      38.034 -11.394  -0.710  1.00  0.00     0.103 A 
HETATM   15  C   UNL     1      37.076 -10.382  -1.214  1.00  0.00     0.091 C 
ENDBRANCH   2   5
BRANCH   1  16
HETATM   16  C   UNL     1      42.632 -15.457   4.458  1.00  0.00     0.070 A 
HETATM   17  C   UNL     1      42.893 -16.840   4.476  1.00  0.00     0.117 A 
HETATM   18  C   UNL     1      43.618 -17.413   5.531  1.00  0.00     0.069 A 
HETATM   19 CL   UNL     1      43.882 -19.117   5.634  1.00  0.00    -0.081 Cl
HETATM   20  C   UNL     1      44.139 -16.603   6.539  1.00  0.00     0.027 A 
HETATM   21  C   UNL     1      43.915 -15.227   6.506  1.00  0.00     0.004 A 
HETATM   22  C   UNL     1      43.160 -14.658   5.475  1.00  0.00     0.032 A 
BRANCH  17  23
HETATM   23  O   UNL     1      42.364 -17.618   3.470  1.00  0.00    -0.347 OA
BRANCH  23  24
HETATM   24  C   UNL     1      43.373 -17.947   2.501  1.00  0.00     0.171 C 
HETATM   25  C   UNL     1      43.218 -19.412   2.137  1.00  0.00     0.034 C 
ENDBRANCH  23  24
ENDBRANCH  17  23
ENDBRANCH   1  16
TORSDOF 4
ENDMDL
MODEL 9
REMARK VINA RESULT:      -6.7      6.866      9.439
REMARK  4 active torsions:
REMARK  status: ('A' for Active; 'I' for Inactive)
REMARK    1  A    between atoms: C_2  and  O_3 
REMARK    2  A    between atoms: O_3  and  C_4 
REMARK    3  A    between atoms: C_10  and  N_11 
REMARK       I    between atoms: N_11  and  C_12 
REMARK    4  A    between atoms: C_12  and  C_13 
ROOT
HETATM    1  N   UNL     1      43.789  -9.524  10.092  1.00  0.00    -0.320 N 
HETATM    2  C   UNL     1      43.574 -10.226  11.261  1.00  0.00     0.257 C 
HETATM    3  O   UNL     1      43.911 -11.382  11.487  1.00  0.00    -0.267 OA
HETATM    4  H   UNL     1      43.584  -8.531  10.073  1.00  0.00     0.169 HD
ENDROOT
BRANCH   2   5
HETATM    5  C   UNL     1      42.903  -9.470  12.350  1.00  0.00     0.052 A 
HETATM    6  C   UNL     1      41.690  -9.962  12.837  1.00  0.00     0.136 A 
HETATM    7  N   UNL     1      40.942  -9.401  13.819  1.00  0.00    -0.238 NA
HETATM    8  C   UNL     1      41.448  -8.251  14.314  1.00  0.00     0.177 A 
HETATM    9  C   UNL     1      42.637  -7.687  13.868  1.00  0.00     0.083 A 
HETATM   10  N   UNL     1      40.876  -7.492  15.293  1.00  0.00    -0.214 NA
HETATM   11  N   UNL     1      42.756  -6.538  14.606  1.00  0.00    -0.342 N 
HETATM   12  C   UNL     1      43.414  -8.275  12.868  1.00  0.00     0.052 A 
HETATM   13  H   UNL     1      43.502  -5.859  14.541  1.00  0.00     0.167 HD
HETATM   14  C   UNL     1      41.678  -6.460  15.454  1.00  0.00     0.103 A 
HETATM   15  C   UNL     1      41.482  -5.331  16.394  1.00  0.00     0.091 C 
ENDBRANCH   2   5
BRANCH   1  16
HETATM   16  C   UNL     1      44.334 -10.014   8.882  1.00  0.00     0.070 A 
HETATM   17  C   UNL     1      43.450 -10.225   7.808  1.00  0.00     0.117 A 
HETATM   18  C   UNL     1      43.909 -10.791   6.609  1.00  0.00     0.069 A 
HETATM   19 CL   UNL     1      42.838 -11.147   5.302  1.00  0.00    -0.081 Cl
HETATM   20  C   UNL     1      45.262 -11.090   6.454  1.00  0.00     0.027 A 
HETATM   21  C   UNL     1      46.149 -10.848   7.501  1.00  0.00     0.004 A 
HETATM   22  C   UNL     1      45.687 -10.319   8.711  1.00  0.00     0.032 A 
BRANCH  17  23
HETATM   23  O   UNL     1      42.118  -9.925   7.989  1.00  0.00    -0.347 OA
BRANCH  23  24
HETATM   24  C   UNL     1      41.819  -8.619   7.468  1.00  0.00     0.171 C 
HETATM   25  C   UNL     1      40.651  -8.054   8.255  1.00  0.00     0.034 C 
ENDBRANCH  23  24
ENDBRANCH  17  23
ENDBRANCH   1  16
TORSDOF 4
ENDMDL
MODEL 10
REMARK VINA RESULT:      -6.7      9.535     12.989
REMARK  4 active torsions:
REMARK  status: ('A' for Active; 'I' for Inactive)
REMARK    1  A    between atoms: C_2  and  O_3 
REMARK    2  A    between atoms: O_3  and  C_4 
REMARK    3  A    between atoms: C_10  and  N_11 
REMARK       I    between atoms: N_11  and  C_12 
REMARK    4  A    between atoms: C_12  and  C_13 
ROOT
HETATM    1  N   UNL     1      41.806  -8.025  14.203  1.00  0.00    -0.320 N 
HETATM    2  C   UNL     1      41.539  -9.173  13.484  1.00  0.00     0.257 C 
HETATM    3  O   UNL     1      40.557  -9.895  13.607  1.00  0.00    -0.267 OA
HETATM    4  H   UNL     1      42.584  -7.439  13.919  1.00  0.00     0.169 HD
ENDROOT
BRANCH   2   5
HETATM    5  C   UNL     1      42.535  -9.522  12.438  1.00  0.00     0.052 A 
HETATM    6  C   UNL     1      43.064 -10.814  12.442  1.00  0.00     0.136 A 
HETATM    7  N   UNL     1      43.980 -11.301  11.571  1.00  0.00    -0.238 NA
HETATM    8  C   UNL     1      44.407 -10.404  10.656  1.00  0.00     0.177 A 
HETATM    9  C   UNL     1      43.946  -9.094  10.599  1.00  0.00     0.083 A 
HETATM   10  N   UNL     1      45.335 -10.645   9.685  1.00  0.00    -0.214 NA
HETATM   11  N   UNL     1      44.649  -8.540   9.561  1.00  0.00    -0.342 N 
HETATM   12  C   UNL     1      42.989  -8.600  11.488  1.00  0.00     0.052 A 
HETATM   13  H   UNL     1      44.582  -7.585   9.234  1.00  0.00     0.167 HD
HETATM   14  C   UNL     1      45.470  -9.507   9.035  1.00  0.00     0.103 A 
HETATM   15  C   UNL     1      46.384  -9.247   7.898  1.00  0.00     0.091 C 
ENDBRANCH   2   5
BRANCH   1  16
HETATM   16  C   UNL     1      41.074  -7.504  15.296  1.00  0.00     0.070 A 
HETATM   17  C   UNL     1      40.001  -6.640  15.008  1.00  0.00     0.117 A 
HETATM   18  C   UNL     1      39.287  -6.022  16.046  1.00  0.00     0.069 A 
HETATM   19 CL   UNL     1      38.023  -4.888  15.731  1.00  0.00    -0.081 Cl
HETATM   20  C   UNL     1      39.600  -6.310  17.374  1.00  0.00     0.027 A 
HETATM   21  C   UNL     1      40.638  -7.194  17.664  1.00  0.00     0.004 A 
HETATM   22  C   UNL     1      41.375  -7.783  16.632  1.00  0.00     0.032 A 
BRANCH  17  23
HETATM   23  O   UNL     1      39.715  -6.370  13.688  1.00  0.00    -0.347 OA
BRANCH  23  24
HETATM   24  C   UNL     1      40.422  -5.200  13.246  1.00  0.00     0.171 C 
HETATM   25  C   UNL     1      40.855  -5.425  11.810  1.00  0.00     0.034 C 
ENDBRANCH  23  24
ENDBRANCH  17  23
ENDBRANCH   1  16
TORSDOF 4
ENDMDL
