MODEL 1
REMARK VINA RESULT:      -9.8      0.000      0.000
REMARK  9 active torsions:
REMARK  status: ('A' for Active; 'I' for Inactive)
REMARK    1  A    between atoms: N_2  and  C_4 
REMARK    2  A    between atoms: C_4  and  C_5 
REMARK    3  A    between atoms: N_6  and  C_7 
REMARK    4  A    between atoms: C_11  and  N_12 
REMARK    5  A    between atoms: C_15  and  C_16 
REMARK       I    between atoms: C_16  and  N_17 
REMARK    6  A    between atoms: N_17  and  N_18 
REMARK    7  A    between atoms: C_19  and  C_20 
REMARK    8  A    between atoms: C_21  and  C_22 
REMARK    9  A    between atoms: N_29  and  C_30 
ROOT
HETATM    1  C   UNL     1      44.386 -11.425   5.857  1.00  0.00     0.293 C 
HETATM    2  N   UNL     1      43.272 -12.211   5.622  1.00  0.00    -0.242 N 
HETATM    3  O   UNL     1      45.226 -11.094   5.025  1.00  0.00    -0.264 OA
HETATM    4  H   UNL     1      42.645 -12.451   6.387  1.00  0.00     0.192 HD
ENDROOT
BRANCH   2   5
HETATM    5  N   UNL     1      43.047 -12.697   4.367  1.00  0.00    -0.183 NA
HETATM    6  C   UNL     1      41.910 -13.288   4.181  1.00  0.00     0.154 C 
BRANCH   6   7
HETATM    7  C   UNL     1      41.617 -13.834   2.879  1.00  0.00     0.032 A 
HETATM    8  C   UNL     1      41.874 -15.138   2.374  1.00  0.00     0.101 A 
HETATM    9  N   UNL     1      41.396 -15.271   1.129  1.00  0.00    -0.166 NA
HETATM   10  N   UNL     1      40.883 -14.063   0.796  1.00  0.00    -0.244 N 
HETATM   11  C   UNL     1      41.004 -13.171   1.835  1.00  0.00     0.134 A 
BRANCH   8  12
HETATM   12  C   UNL     1      42.566 -16.251   3.024  1.00  0.00    -0.005 A 
HETATM   13  C   UNL     1      42.600 -16.337   4.422  1.00  0.00     0.014 A 
HETATM   14  C   UNL     1      43.253 -17.399   5.050  1.00  0.00     0.001 A 
HETATM   15  C   UNL     1      43.874 -18.387   4.287  1.00  0.00     0.000 A 
HETATM   16  C   UNL     1      43.833 -18.320   2.896  1.00  0.00     0.001 A 
HETATM   17  C   UNL     1      43.178 -17.260   2.266  1.00  0.00     0.014 A 
ENDBRANCH   8  12
BRANCH  10  18
HETATM   18  C   UNL     1      40.307 -13.842  -0.487  1.00  0.00     0.058 A 
HETATM   19  C   UNL     1      40.584 -12.646  -1.168  1.00  0.00     0.031 A 
HETATM   20  C   UNL     1      40.027 -12.407  -2.427  1.00  0.00     0.002 A 
HETATM   21  C   UNL     1      39.195 -13.358  -3.014  1.00  0.00     0.000 A 
HETATM   22  C   UNL     1      38.917 -14.548  -2.345  1.00  0.00     0.002 A 
HETATM   23  C   UNL     1      39.469 -14.794  -1.083  1.00  0.00     0.031 A 
ENDBRANCH  10  18
ENDBRANCH   6   7
ENDBRANCH   2   5
BRANCH   1  24
HETATM   24  C   UNL     1      44.521 -10.996   7.241  1.00  0.00     0.170 A 
HETATM   25  C   UNL     1      43.631 -10.212   7.961  1.00  0.00     0.096 A 
HETATM   26  N   UNL     1      44.177 -10.160   9.242  1.00  0.00    -0.215 N 
HETATM   27  N   UNL     1      45.386 -10.780   9.225  1.00  0.00     0.012 NA
HETATM   28  N   UNL     1      45.588 -11.309   8.030  1.00  0.00    -0.152 NA
BRANCH  25  29
HETATM   29  C   UNL     1      42.428  -9.474   7.508  1.00  0.00     0.295 C 
BRANCH  29  30
HETATM   30  N   UNL     1      41.113 -10.163   7.772  1.00  0.00    -0.073 N 
HETATM   31  C   UNL     1      40.348 -10.498   6.521  1.00  0.00     0.269 C 
HETATM   32  H   UNL     1      41.327 -11.038   8.270  1.00  0.00     0.279 HD
HETATM   33  C   UNL     1      40.261  -9.355   8.715  1.00  0.00     0.269 C 
ENDBRANCH  29  30
ENDBRANCH  25  29
BRANCH  26  34
HETATM   34  C   UNL     1      43.610  -9.624  10.423  1.00  0.00     0.225 A 
HETATM   35  N   UNL     1      43.217  -8.347  10.452  1.00  0.00    -0.081 NA
HETATM   36  O   UNL     1      42.703  -8.192  11.745  1.00  0.00    -0.103 OA
HETATM   37  N   UNL     1      42.767  -9.380  12.456  1.00  0.00    -0.083 NA
HETATM   38  C   UNL     1      43.326 -10.271  11.637  1.00  0.00     0.201 A 
BRANCH  38  39
HETATM   39  N   UNL     1      43.566 -11.552  11.954  1.00  0.00    -0.379 N 
HETATM   40  H   UNL     1      43.707 -11.820  12.924  1.00  0.00     0.158 HD
HETATM   41  H   UNL     1      43.422 -12.331  11.315  1.00  0.00     0.158 HD
ENDBRANCH  38  39
ENDBRANCH  26  34
ENDBRANCH   1  24
TORSDOF 9
ENDMDL
MODEL 2
REMARK VINA RESULT:      -9.7      2.069      4.670
REMARK  9 active torsions:
REMARK  status: ('A' for Active; 'I' for Inactive)
REMARK    1  A    between atoms: N_2  and  C_4 
REMARK    2  A    between atoms: C_4  and  C_5 
REMARK    3  A    between atoms: N_6  and  C_7 
REMARK    4  A    between atoms: C_11  and  N_12 
REMARK    5  A    between atoms: C_15  and  C_16 
REMARK       I    between atoms: C_16  and  N_17 
REMARK    6  A    between atoms: N_17  and  N_18 
REMARK    7  A    between atoms: C_19  and  C_20 
REMARK    8  A    between atoms: C_21  and  C_22 
REMARK    9  A    between atoms: N_29  and  C_30 
ROOT
HETATM    1  C   UNL     1      44.565 -11.484   7.617  1.00  0.00     0.293 C 
HETATM    2  N   UNL     1      43.726 -12.581   7.563  1.00  0.00    -0.242 N 
HETATM    3  O   UNL     1      45.465 -11.221   6.824  1.00  0.00    -0.264 OA
HETATM    4  H   UNL     1      43.023 -12.724   8.286  1.00  0.00     0.192 HD
ENDROOT
BRANCH   2   5
HETATM    5  N   UNL     1      43.879 -13.493   6.560  1.00  0.00    -0.183 NA
HETATM    6  C   UNL     1      42.789 -14.016   6.096  1.00  0.00     0.154 C 
BRANCH   6   7
HETATM    7  C   UNL     1      42.884 -14.995   5.041  1.00  0.00     0.032 A 
HETATM    8  C   UNL     1      42.730 -14.821   3.639  1.00  0.00     0.101 A 
HETATM    9  N   UNL     1      42.951 -15.971   2.987  1.00  0.00    -0.166 NA
HETATM   10  N   UNL     1      43.193 -16.900   3.943  1.00  0.00    -0.244 N 
HETATM   11  C   UNL     1      43.157 -16.339   5.197  1.00  0.00     0.134 A 
BRANCH   8  12
HETATM   12  C   UNL     1      42.366 -13.611   2.901  1.00  0.00    -0.005 A 
HETATM   13  C   UNL     1      42.896 -12.370   3.282  1.00  0.00     0.014 A 
HETATM   14  C   UNL     1      42.560 -11.211   2.580  1.00  0.00     0.001 A 
HETATM   15  C   UNL     1      41.696 -11.282   1.487  1.00  0.00     0.000 A 
HETATM   16  C   UNL     1      41.177 -12.513   1.089  1.00  0.00     0.001 A 
HETATM   17  C   UNL     1      41.514 -13.673   1.789  1.00  0.00     0.014 A 
ENDBRANCH   8  12
BRANCH  10  18
HETATM   18  C   UNL     1      43.447 -18.257   3.596  1.00  0.00     0.058 A 
HETATM   19  C   UNL     1      43.143 -18.704   2.301  1.00  0.00     0.031 A 
HETATM   20  C   UNL     1      43.381 -20.032   1.940  1.00  0.00     0.002 A 
HETATM   21  C   UNL     1      43.924 -20.921   2.866  1.00  0.00     0.000 A 
HETATM   22  C   UNL     1      44.230 -20.484   4.153  1.00  0.00     0.002 A 
HETATM   23  C   UNL     1      43.993 -19.155   4.523  1.00  0.00     0.031 A 
ENDBRANCH  10  18
ENDBRANCH   6   7
ENDBRANCH   2   5
BRANCH   1  24
HETATM   24  C   UNL     1      44.314 -10.605   8.751  1.00  0.00     0.170 A 
HETATM   25  C   UNL     1      43.259  -9.716   8.898  1.00  0.00     0.096 A 
HETATM   26  N   UNL     1      43.430  -9.187  10.175  1.00  0.00    -0.215 N 
HETATM   27  N   UNL     1      44.598  -9.657  10.687  1.00  0.00     0.012 NA
HETATM   28  N   UNL     1      45.122 -10.533   9.846  1.00  0.00    -0.152 NA
BRANCH  25  29
HETATM   29  C   UNL     1      42.226  -9.293   7.922  1.00  0.00     0.295 C 
BRANCH  29  30
HETATM   30  N   UNL     1      41.041 -10.217   7.797  1.00  0.00    -0.073 N 
HETATM   31  C   UNL     1      40.831 -10.738   6.401  1.00  0.00     0.269 C 
HETATM   32  H   UNL     1      41.217 -11.016   8.422  1.00  0.00     0.279 HD
HETATM   33  C   UNL     1      39.788  -9.561   8.314  1.00  0.00     0.269 C 
ENDBRANCH  29  30
ENDBRANCH  25  29
BRANCH  26  34
HETATM   34  C   UNL     1      42.559  -8.346  10.907  1.00  0.00     0.225 A 
HETATM   35  N   UNL     1      42.759  -7.024  10.912  1.00  0.00    -0.081 NA
HETATM   36  O   UNL     1      41.714  -6.537  11.705  1.00  0.00    -0.103 OA
HETATM   37  N   UNL     1      40.889  -7.565  12.134  1.00  0.00    -0.083 NA
HETATM   38  C   UNL     1      41.410  -8.688  11.639  1.00  0.00     0.201 A 
BRANCH  38  39
HETATM   39  N   UNL     1      40.900  -9.914  11.830  1.00  0.00    -0.379 N 
HETATM   40  H   UNL     1      39.937 -10.112  11.573  1.00  0.00     0.158 HD
HETATM   41  H   UNL     1      41.463 -10.737  12.034  1.00  0.00     0.158 HD
ENDBRANCH  38  39
ENDBRANCH  26  34
ENDBRANCH   1  24
TORSDOF 9
ENDMDL
MODEL 3
REMARK VINA RESULT:      -9.0      1.890      3.078
REMARK  9 active torsions:
REMARK  status: ('A' for Active; 'I' for Inactive)
REMARK    1  A    between atoms: N_2  and  C_4 
REMARK    2  A    between atoms: C_4  and  C_5 
REMARK    3  A    between atoms: N_6  and  C_7 
REMARK    4  A    between atoms: C_11  and  N_12 
REMARK    5  A    between atoms: C_15  and  C_16 
REMARK       I    between atoms: C_16  and  N_17 
REMARK    6  A    between atoms: N_17  and  N_18 
REMARK    7  A    between atoms: C_19  and  C_20 
REMARK    8  A    between atoms: C_21  and  C_22 
REMARK    9  A    between atoms: N_29  and  C_30 
ROOT
HETATM    1  C   UNL     1      39.211 -10.880   5.978  1.00  0.00     0.293 C 
HETATM    2  N   UNL     1      39.712 -12.142   5.713  1.00  0.00    -0.242 N 
HETATM    3  O   UNL     1      38.722 -10.109   5.157  1.00  0.00    -0.264 OA
HETATM    4  H   UNL     1      40.122 -12.697   6.462  1.00  0.00     0.192 HD
ENDROOT
BRANCH   2   5
HETATM    5  N   UNL     1      39.696 -12.615   4.434  1.00  0.00    -0.183 NA
HETATM    6  C   UNL     1      40.661 -13.416   4.111  1.00  0.00     0.154 C 
BRANCH   6   7
HETATM    7  C   UNL     1      40.707 -13.942   2.770  1.00  0.00     0.032 A 
HETATM    8  C   UNL     1      41.387 -15.089   2.279  1.00  0.00     0.101 A 
HETATM    9  N   UNL     1      41.134 -15.275   0.976  1.00  0.00    -0.166 NA
HETATM   10  N   UNL     1      40.345 -14.240   0.599  1.00  0.00    -0.244 N 
HETATM   11  C   UNL     1      40.071 -13.415   1.664  1.00  0.00     0.134 A 
BRANCH   8  12
HETATM   12  C   UNL     1      42.278 -16.002   2.996  1.00  0.00    -0.005 A 
HETATM   13  C   UNL     1      42.575 -17.262   2.458  1.00  0.00     0.014 A 
HETATM   14  C   UNL     1      43.429 -18.136   3.132  1.00  0.00     0.001 A 
HETATM   15  C   UNL     1      43.999 -17.758   4.347  1.00  0.00     0.000 A 
HETATM   16  C   UNL     1      43.725 -16.501   4.883  1.00  0.00     0.001 A 
HETATM   17  C   UNL     1      42.872 -15.624   4.209  1.00  0.00     0.014 A 
ENDBRANCH   8  12
BRANCH  10  18
HETATM   18  C   UNL     1      39.902 -14.111  -0.747  1.00  0.00     0.058 A 
HETATM   19  C   UNL     1      40.163 -12.923  -1.447  1.00  0.00     0.031 A 
HETATM   20  C   UNL     1      39.735 -12.774  -2.768  1.00  0.00     0.002 A 
HETATM   21  C   UNL     1      39.046 -13.807  -3.399  1.00  0.00     0.000 A 
HETATM   22  C   UNL     1      38.784 -14.991  -2.712  1.00  0.00     0.002 A 
HETATM   23  C   UNL     1      39.208 -15.148  -1.388  1.00  0.00     0.031 A 
ENDBRANCH  10  18
ENDBRANCH   6   7
ENDBRANCH   2   5
BRANCH   1  24
HETATM   24  C   UNL     1      39.314 -10.487   7.376  1.00  0.00     0.170 A 
HETATM   25  C   UNL     1      40.347  -9.774   7.967  1.00  0.00     0.096 A 
HETATM   26  N   UNL     1      39.930  -9.591   9.283  1.00  0.00    -0.215 N 
HETATM   27  N   UNL     1      38.771 -10.276   9.471  1.00  0.00     0.012 NA
HETATM   28  N   UNL     1      38.379 -10.796   8.320  1.00  0.00    -0.152 NA
BRANCH  25  29
HETATM   29  C   UNL     1      41.663  -9.372   7.418  1.00  0.00     0.295 C 
BRANCH  29  30
HETATM   30  N   UNL     1      42.762 -10.394   7.564  1.00  0.00    -0.073 N 
HETATM   31  C   UNL     1      43.996  -9.858   8.238  1.00  0.00     0.269 C 
HETATM   32  H   UNL     1      42.383 -11.161   8.137  1.00  0.00     0.279 HD
HETATM   33  C   UNL     1      43.107 -11.009   6.234  1.00  0.00     0.269 C 
ENDBRANCH  29  30
ENDBRANCH  25  29
BRANCH  26  34
HETATM   34  C   UNL     1      40.521  -8.800  10.296  1.00  0.00     0.225 A 
HETATM   35  N   UNL     1      40.087  -7.555  10.508  1.00  0.00    -0.081 NA
HETATM   36  O   UNL     1      40.876  -7.108  11.573  1.00  0.00    -0.103 OA
HETATM   37  N   UNL     1      41.745  -8.098  12.003  1.00  0.00    -0.083 NA
HETATM   38  C   UNL     1      41.525  -9.150  11.215  1.00  0.00     0.201 A 
BRANCH  38  39
HETATM   39  N   UNL     1      42.173 -10.321  11.308  1.00  0.00    -0.379 N 
HETATM   40  H   UNL     1      43.036 -10.387  11.841  1.00  0.00     0.158 HD
HETATM   41  H   UNL     1      41.765 -11.218  11.050  1.00  0.00     0.158 HD
ENDBRANCH  38  39
ENDBRANCH  26  34
ENDBRANCH   1  24
TORSDOF 9
ENDMDL
MODEL 4
REMARK VINA RESULT:      -8.6      5.352     10.259
REMARK  9 active torsions:
REMARK  status: ('A' for Active; 'I' for Inactive)
REMARK    1  A    between atoms: N_2  and  C_4 
REMARK    2  A    between atoms: C_4  and  C_5 
REMARK    3  A    between atoms: N_6  and  C_7 
REMARK    4  A    between atoms: C_11  and  N_12 
REMARK    5  A    between atoms: C_15  and  C_16 
REMARK       I    between atoms: C_16  and  N_17 
REMARK    6  A    between atoms: N_17  and  N_18 
REMARK    7  A    between atoms: C_19  and  C_20 
REMARK    8  A    between atoms: C_21  and  C_22 
REMARK    9  A    between atoms: N_29  and  C_30 
ROOT
HETATM    1  C   UNL     1      39.366 -13.735  -1.536  1.00  0.00     0.293 C 
HETATM    2  N   UNL     1      39.323 -13.946  -0.170  1.00  0.00    -0.242 N 
HETATM    3  O   UNL     1      40.186 -14.211  -2.316  1.00  0.00    -0.264 OA
HETATM    4  H   UNL     1      38.615 -13.483   0.397  1.00  0.00     0.192 HD
ENDROOT
BRANCH   2   5
HETATM    5  N   UNL     1      40.265 -14.740   0.416  1.00  0.00    -0.183 NA
HETATM    6  C   UNL     1      40.439 -14.573   1.688  1.00  0.00     0.154 C 
BRANCH   6   7
HETATM    7  C   UNL     1      41.428 -15.375   2.364  1.00  0.00     0.032 A 
HETATM    8  C   UNL     1      42.387 -14.984   3.337  1.00  0.00     0.101 A 
HETATM    9  N   UNL     1      43.091 -16.040   3.767  1.00  0.00    -0.166 NA
HETATM   10  N   UNL     1      42.643 -17.101   3.053  1.00  0.00    -0.244 N 
HETATM   11  C   UNL     1      41.637 -16.729   2.193  1.00  0.00     0.134 A 
BRANCH   8  12
HETATM   12  C   UNL     1      42.669 -13.646   3.859  1.00  0.00    -0.005 A 
HETATM   13  C   UNL     1      43.338 -12.708   3.061  1.00  0.00     0.014 A 
HETATM   14  C   UNL     1      43.605 -11.427   3.548  1.00  0.00     0.001 A 
HETATM   15  C   UNL     1      43.201 -11.071   4.835  1.00  0.00     0.000 A 
HETATM   16  C   UNL     1      42.522 -11.990   5.631  1.00  0.00     0.001 A 
HETATM   17  C   UNL     1      42.251 -13.271   5.144  1.00  0.00     0.014 A 
ENDBRANCH   8  12
BRANCH  10  18
HETATM   18  C   UNL     1      43.201 -18.397   3.241  1.00  0.00     0.058 A 
HETATM   19  C   UNL     1      43.177 -19.317   2.182  1.00  0.00     0.031 A 
HETATM   20  C   UNL     1      43.716 -20.595   2.346  1.00  0.00     0.002 A 
HETATM   21  C   UNL     1      44.282 -20.963   3.564  1.00  0.00     0.000 A 
HETATM   22  C   UNL     1      44.312 -20.054   4.621  1.00  0.00     0.002 A 
HETATM   23  C   UNL     1      43.773 -18.773   4.465  1.00  0.00     0.031 A 
ENDBRANCH  10  18
ENDBRANCH   6   7
ENDBRANCH   2   5
BRANCH   1  24
HETATM   24  C   UNL     1      38.323 -12.847  -2.028  1.00  0.00     0.170 A 
HETATM   25  C   UNL     1      38.316 -11.460  -1.975  1.00  0.00     0.096 A 
HETATM   26  N   UNL     1      37.149 -11.096  -2.644  1.00  0.00    -0.215 N 
HETATM   27  N   UNL     1      36.457 -12.224  -2.955  1.00  0.00     0.012 NA
HETATM   28  N   UNL     1      37.170 -13.283  -2.611  1.00  0.00    -0.152 NA
BRANCH  25  29
HETATM   29  C   UNL     1      39.238 -10.528  -1.284  1.00  0.00     0.295 C 
BRANCH  29  30
HETATM   30  N   UNL     1      40.672 -10.579  -1.748  1.00  0.00    -0.073 N 
HETATM   31  C   UNL     1      41.592  -9.692  -0.955  1.00  0.00     0.269 C 
HETATM   32  H   UNL     1      40.987 -11.554  -1.644  1.00  0.00     0.279 HD
HETATM   33  C   UNL     1      40.774 -10.272  -3.219  1.00  0.00     0.269 C 
ENDBRANCH  29  30
ENDBRANCH  25  29
BRANCH  26  34
HETATM   34  C   UNL     1      36.714  -9.805  -3.022  1.00  0.00     0.225 A 
HETATM   35  N   UNL     1      35.854  -9.138  -2.247  1.00  0.00    -0.081 NA
HETATM   36  O   UNL     1      35.679  -7.923  -2.919  1.00  0.00    -0.103 OA
HETATM   37  N   UNL     1      36.457  -7.867  -4.064  1.00  0.00    -0.083 NA
HETATM   38  C   UNL     1      37.102  -9.032  -4.129  1.00  0.00     0.201 A 
BRANCH  38  39
HETATM   39  N   UNL     1      37.962  -9.374  -5.101  1.00  0.00    -0.379 N 
HETATM   40  H   UNL     1      38.519  -8.661  -5.565  1.00  0.00     0.158 HD
HETATM   41  H   UNL     1      38.258 -10.330  -5.286  1.00  0.00     0.158 HD
ENDBRANCH  38  39
ENDBRANCH  26  34
ENDBRANCH   1  24
TORSDOF 9
ENDMDL
MODEL 5
REMARK VINA RESULT:      -8.3      2.757      5.749
REMARK  9 active torsions:
REMARK  status: ('A' for Active; 'I' for Inactive)
REMARK    1  A    between atoms: N_2  and  C_4 
REMARK    2  A    between atoms: C_4  and  C_5 
REMARK    3  A    between atoms: N_6  and  C_7 
REMARK    4  A    between atoms: C_11  and  N_12 
REMARK    5  A    between atoms: C_15  and  C_16 
REMARK       I    between atoms: C_16  and  N_17 
REMARK    6  A    between atoms: N_17  and  N_18 
REMARK    7  A    between atoms: C_19  and  C_20 
REMARK    8  A    between atoms: C_21  and  C_22 
REMARK    9  A    between atoms: N_29  and  C_30 
ROOT
HETATM    1  C   UNL     1      40.742  -9.868   7.516  1.00  0.00     0.293 C 
HETATM    2  N   UNL     1      40.101 -11.012   7.079  1.00  0.00    -0.242 N 
HETATM    3  O   UNL     1      41.815  -9.436   7.103  1.00  0.00    -0.264 OA
HETATM    4  H   UNL     1      39.223 -11.301   7.504  1.00  0.00     0.192 HD
ENDROOT
BRANCH   2   5
HETATM    5  N   UNL     1      40.679 -11.774   6.105  1.00  0.00    -0.183 NA
HETATM    6  C   UNL     1      40.201 -12.968   5.959  1.00  0.00     0.154 C 
BRANCH   6   7
HETATM    7  C   UNL     1      40.777 -13.827   4.954  1.00  0.00     0.032 A 
HETATM    8  C   UNL     1      40.812 -13.658   3.542  1.00  0.00     0.101 A 
HETATM    9  N   UNL     1      41.493 -14.654   2.959  1.00  0.00    -0.166 NA
HETATM   10  N   UNL     1      41.854 -15.494   3.958  1.00  0.00    -0.244 N 
HETATM   11  C   UNL     1      41.433 -15.021   5.178  1.00  0.00     0.134 A 
BRANCH   8  12
HETATM   12  C   UNL     1      40.211 -12.599   2.732  1.00  0.00    -0.005 A 
HETATM   13  C   UNL     1      41.028 -11.661   2.085  1.00  0.00     0.014 A 
HETATM   14  C   UNL     1      40.463 -10.650   1.305  1.00  0.00     0.001 A 
HETATM   15  C   UNL     1      39.079 -10.571   1.158  1.00  0.00     0.000 A 
HETATM   16  C   UNL     1      38.259 -11.508   1.783  1.00  0.00     0.001 A 
HETATM   17  C   UNL     1      38.821 -12.521   2.563  1.00  0.00     0.014 A 
ENDBRANCH   8  12
BRANCH  10  18
HETATM   18  C   UNL     1      42.580 -16.687   3.684  1.00  0.00     0.058 A 
HETATM   19  C   UNL     1      43.520 -17.151   4.618  1.00  0.00     0.031 A 
HETATM   20  C   UNL     1      44.245 -18.318   4.367  1.00  0.00     0.002 A 
HETATM   21  C   UNL     1      44.038 -19.030   3.187  1.00  0.00     0.000 A 
HETATM   22  C   UNL     1      43.105 -18.577   2.256  1.00  0.00     0.002 A 
HETATM   23  C   UNL     1      42.376 -17.408   2.498  1.00  0.00     0.031 A 
ENDBRANCH  10  18
ENDBRANCH   6   7
ENDBRANCH   2   5
BRANCH   1  24
HETATM   24  C   UNL     1      40.033  -9.164   8.575  1.00  0.00     0.170 A 
HETATM   25  C   UNL     1      40.479  -8.939   9.870  1.00  0.00     0.096 A 
HETATM   26  N   UNL     1      39.478  -8.162  10.448  1.00  0.00    -0.215 N 
HETATM   27  N   UNL     1      38.449  -8.052   9.567  1.00  0.00     0.012 NA
HETATM   28  N   UNL     1      38.787  -8.631   8.427  1.00  0.00    -0.152 NA
BRANCH  25  29
HETATM   29  C   UNL     1      41.671  -9.469  10.573  1.00  0.00     0.295 C 
BRANCH  29  30
HETATM   30  N   UNL     1      42.992  -8.898  10.121  1.00  0.00    -0.073 N 
HETATM   31  C   UNL     1      44.157  -9.341  10.963  1.00  0.00     0.269 C 
HETATM   32  H   UNL     1      43.144  -9.221   9.155  1.00  0.00     0.279 HD
HETATM   33  C   UNL     1      42.932  -7.396  10.045  1.00  0.00     0.269 C 
ENDBRANCH  29  30
ENDBRANCH  25  29
BRANCH  26  34
HETATM   34  C   UNL     1      39.477  -7.514  11.706  1.00  0.00     0.225 A 
HETATM   35  N   UNL     1      39.435  -8.240  12.828  1.00  0.00    -0.081 NA
HETATM   36  O   UNL     1      39.470  -7.277  13.843  1.00  0.00    -0.103 OA
HETATM   37  N   UNL     1      39.565  -5.998  13.317  1.00  0.00    -0.083 NA
HETATM   38  C   UNL     1      39.573  -6.142  11.992  1.00  0.00     0.201 A 
BRANCH  38  39
HETATM   39  N   UNL     1      39.653  -5.130  11.116  1.00  0.00    -0.379 N 
HETATM   40  H   UNL     1      39.624  -4.168  11.442  1.00  0.00     0.158 HD
HETATM   41  H   UNL     1      39.945  -5.241  10.147  1.00  0.00     0.158 HD
ENDBRANCH  38  39
ENDBRANCH  26  34
ENDBRANCH   1  24
TORSDOF 9
ENDMDL
MODEL 6
REMARK VINA RESULT:      -8.3     17.893     19.248
REMARK  9 active torsions:
REMARK  status: ('A' for Active; 'I' for Inactive)
REMARK    1  A    between atoms: N_2  and  C_4 
REMARK    2  A    between atoms: C_4  and  C_5 
REMARK    3  A    between atoms: N_6  and  C_7 
REMARK    4  A    between atoms: C_11  and  N_12 
REMARK    5  A    between atoms: C_15  and  C_16 
REMARK       I    between atoms: C_16  and  N_17 
REMARK    6  A    between atoms: N_17  and  N_18 
REMARK    7  A    between atoms: C_19  and  C_20 
REMARK    8  A    between atoms: C_21  and  C_22 
REMARK    9  A    between atoms: N_29  and  C_30 
ROOT
HETATM    1  C   UNL     1      41.464 -31.822   4.493  1.00  0.00     0.293 C 
HETATM    2  N   UNL     1      42.193 -30.661   4.310  1.00  0.00    -0.242 N 
HETATM    3  O   UNL     1      41.257 -32.687   3.647  1.00  0.00    -0.264 OA
HETATM    4  H   UNL     1      42.286 -29.990   5.070  1.00  0.00     0.192 HD
ENDROOT
BRANCH   2   5
HETATM    5  N   UNL     1      42.746 -30.402   3.090  1.00  0.00    -0.183 NA
HETATM    6  C   UNL     1      44.036 -30.299   3.061  1.00  0.00     0.154 C 
BRANCH   6   7
HETATM    7  C   UNL     1      44.681 -30.015   1.803  1.00  0.00     0.032 A 
HETATM    8  C   UNL     1      46.068 -29.892   1.512  1.00  0.00     0.101 A 
HETATM    9  N   UNL     1      46.266 -29.679   0.205  1.00  0.00    -0.166 NA
HETATM   10  N   UNL     1      45.033 -29.608  -0.352  1.00  0.00    -0.244 N 
HETATM   11  C   UNL     1      44.053 -29.806   0.592  1.00  0.00     0.134 A 
BRANCH   8  12
HETATM   12  C   UNL     1      47.204 -29.954   2.432  1.00  0.00    -0.005 A 
HETATM   13  C   UNL     1      47.706 -31.195   2.847  1.00  0.00     0.014 A 
HETATM   14  C   UNL     1      48.794 -31.264   3.718  1.00  0.00     0.001 A 
HETATM   15  C   UNL     1      49.394 -30.093   4.180  1.00  0.00     0.000 A 
HETATM   16  C   UNL     1      48.914 -28.853   3.761  1.00  0.00     0.001 A 
HETATM   17  C   UNL     1      47.827 -28.783   2.887  1.00  0.00     0.014 A 
ENDBRANCH   8  12
BRANCH  10  18
HETATM   18  C   UNL     1      44.872 -29.361  -1.745  1.00  0.00     0.058 A 
HETATM   19  C   UNL     1      44.244 -30.326  -2.547  1.00  0.00     0.031 A 
HETATM   20  C   UNL     1      44.078 -30.106  -3.916  1.00  0.00     0.002 A 
HETATM   21  C   UNL     1      44.536 -28.923  -4.493  1.00  0.00     0.000 A 
HETATM   22  C   UNL     1      45.159 -27.959  -3.703  1.00  0.00     0.002 A 
HETATM   23  C   UNL     1      45.330 -28.172  -2.331  1.00  0.00     0.031 A 
ENDBRANCH  10  18
ENDBRANCH   6   7
ENDBRANCH   2   5
BRANCH   1  24
HETATM   24  C   UNL     1      40.906 -31.961   5.831  1.00  0.00     0.170 A 
HETATM   25  C   UNL     1      41.518 -32.543   6.932  1.00  0.00     0.096 A 
HETATM   26  N   UNL     1      40.610 -32.352   7.971  1.00  0.00    -0.215 N 
HETATM   27  N   UNL     1      39.478 -31.798   7.462  1.00  0.00     0.012 NA
HETATM   28  N   UNL     1      39.658 -31.536   6.179  1.00  0.00    -0.152 NA
BRANCH  25  29
HETATM   29  C   UNL     1      42.784 -33.309   7.025  1.00  0.00     0.295 C 
BRANCH  29  30
HETATM   30  N   UNL     1      43.954 -32.551   7.600  1.00  0.00    -0.073 N 
HETATM   31  C   UNL     1      45.009 -32.212   6.584  1.00  0.00     0.269 C 
HETATM   32  H   UNL     1      43.581 -31.674   7.990  1.00  0.00     0.279 HD
HETATM   33  C   UNL     1      44.556 -33.292   8.765  1.00  0.00     0.269 C 
ENDBRANCH  29  30
ENDBRANCH  25  29
BRANCH  26  34
HETATM   34  C   UNL     1      40.781 -32.609   9.351  1.00  0.00     0.225 A 
HETATM   35  N   UNL     1      40.247 -33.707   9.895  1.00  0.00    -0.081 NA
HETATM   36  O   UNL     1      40.635 -33.631  11.237  1.00  0.00    -0.103 OA
HETATM   37  N   UNL     1      41.417 -32.510  11.470  1.00  0.00    -0.083 NA
HETATM   38  C   UNL     1      41.512 -31.877  10.302  1.00  0.00     0.201 A 
BRANCH  38  39
HETATM   39  N   UNL     1      42.192 -30.737  10.106  1.00  0.00    -0.379 N 
HETATM   40  H   UNL     1      42.318 -30.079  10.870  1.00  0.00     0.158 HD
HETATM   41  H   UNL     1      42.775 -30.557   9.291  1.00  0.00     0.158 HD
ENDBRANCH  38  39
ENDBRANCH  26  34
ENDBRANCH   1  24
TORSDOF 9
ENDMDL
MODEL 7
REMARK VINA RESULT:      -8.2     18.222     20.431
REMARK  9 active torsions:
REMARK  status: ('A' for Active; 'I' for Inactive)
REMARK    1  A    between atoms: N_2  and  C_4 
REMARK    2  A    between atoms: C_4  and  C_5 
REMARK    3  A    between atoms: N_6  and  C_7 
REMARK    4  A    between atoms: C_11  and  N_12 
REMARK    5  A    between atoms: C_15  and  C_16 
REMARK       I    between atoms: C_16  and  N_17 
REMARK    6  A    between atoms: N_17  and  N_18 
REMARK    7  A    between atoms: C_19  and  C_20 
REMARK    8  A    between atoms: C_21  and  C_22 
REMARK    9  A    between atoms: N_29  and  C_30 
ROOT
HETATM    1  C   UNL     1      40.531 -32.578   4.254  1.00  0.00     0.293 C 
HETATM    2  N   UNL     1      40.536 -31.325   3.668  1.00  0.00    -0.242 N 
HETATM    3  O   UNL     1      41.246 -33.526   3.942  1.00  0.00    -0.264 OA
HETATM    4  H   UNL     1      39.884 -30.610   3.983  1.00  0.00     0.192 HD
ENDROOT
BRANCH   2   5
HETATM    5  N   UNL     1      41.389 -31.073   2.633  1.00  0.00    -0.183 NA
HETATM    6  C   UNL     1      42.476 -30.437   2.935  1.00  0.00     0.154 C 
BRANCH   6   7
HETATM    7  C   UNL     1      43.414 -30.130   1.884  1.00  0.00     0.032 A 
HETATM    8  C   UNL     1      44.835 -30.167   1.910  1.00  0.00     0.101 A 
HETATM    9  N   UNL     1      45.344 -29.866   0.708  1.00  0.00    -0.166 NA
HETATM   10  N   UNL     1      44.283 -29.581  -0.085  1.00  0.00    -0.244 N 
HETATM   11  C   UNL     1      43.100 -29.731   0.600  1.00  0.00     0.134 A 
BRANCH   8  12
HETATM   12  C   UNL     1      45.722 -30.462   3.036  1.00  0.00    -0.005 A 
HETATM   13  C   UNL     1      45.416 -31.509   3.916  1.00  0.00     0.014 A 
HETATM   14  C   UNL     1      46.260 -31.802   4.988  1.00  0.00     0.001 A 
HETATM   15  C   UNL     1      47.420 -31.055   5.188  1.00  0.00     0.000 A 
HETATM   16  C   UNL     1      47.743 -30.022   4.310  1.00  0.00     0.001 A 
HETATM   17  C   UNL     1      46.901 -29.730   3.235  1.00  0.00     0.014 A 
ENDBRANCH   8  12
BRANCH  10  18
HETATM   18  C   UNL     1      44.467 -29.191  -1.442  1.00  0.00     0.058 A 
HETATM   19  C   UNL     1      43.894 -29.964  -2.464  1.00  0.00     0.031 A 
HETATM   20  C   UNL     1      44.065 -29.601  -3.801  1.00  0.00     0.002 A 
HETATM   21  C   UNL     1      44.805 -28.467  -4.128  1.00  0.00     0.000 A 
HETATM   22  C   UNL     1      45.375 -27.693  -3.119  1.00  0.00     0.002 A 
HETATM   23  C   UNL     1      45.210 -28.051  -1.777  1.00  0.00     0.031 A 
ENDBRANCH  10  18
ENDBRANCH   6   7
ENDBRANCH   2   5
BRANCH   1  24
HETATM   24  C   UNL     1      39.556 -32.722   5.326  1.00  0.00     0.170 A 
HETATM   25  C   UNL     1      38.589 -33.710   5.445  1.00  0.00     0.096 A 
HETATM   26  N   UNL     1      37.979 -33.449   6.670  1.00  0.00    -0.215 N 
HETATM   27  N   UNL     1      38.487 -32.292   7.170  1.00  0.00     0.012 NA
HETATM   28  N   UNL     1      39.456 -31.862   6.379  1.00  0.00    -0.152 NA
BRANCH  25  29
HETATM   29  C   UNL     1      38.172 -34.757   4.482  1.00  0.00     0.295 C 
BRANCH  29  30
HETATM   30  N   UNL     1      36.734 -34.682   4.033  1.00  0.00    -0.073 N 
HETATM   31  C   UNL     1      36.337 -35.794   3.102  1.00  0.00     0.269 C 
HETATM   32  H   UNL     1      36.152 -34.741   4.881  1.00  0.00     0.279 HD
HETATM   33  C   UNL     1      36.429 -33.341   3.420  1.00  0.00     0.269 C 
ENDBRANCH  29  30
ENDBRANCH  25  29
BRANCH  26  34
HETATM   34  C   UNL     1      37.029 -34.230   7.369  1.00  0.00     0.225 A 
HETATM   35  N   UNL     1      35.745 -34.203   7.001  1.00  0.00    -0.081 NA
HETATM   36  O   UNL     1      35.130 -35.095   7.887  1.00  0.00    -0.103 OA
HETATM   37  N   UNL     1      36.056 -35.665   8.747  1.00  0.00    -0.083 NA
HETATM   38  C   UNL     1      37.235 -35.133   8.426  1.00  0.00     0.201 A 
BRANCH  38  39
HETATM   39  N   UNL     1      38.395 -35.428   9.032  1.00  0.00    -0.379 N 
HETATM   40  H   UNL     1      38.546 -35.164  10.001  1.00  0.00     0.158 HD
HETATM   41  H   UNL     1      39.080 -36.081   8.658  1.00  0.00     0.158 HD
ENDBRANCH  38  39
ENDBRANCH  26  34
ENDBRANCH   1  24
TORSDOF 9
ENDMDL
MODEL 8
REMARK VINA RESULT:      -8.2      4.806      9.822
REMARK  9 active torsions:
REMARK  status: ('A' for Active; 'I' for Inactive)
REMARK    1  A    between atoms: N_2  and  C_4 
REMARK    2  A    between atoms: C_4  and  C_5 
REMARK    3  A    between atoms: N_6  and  C_7 
REMARK    4  A    between atoms: C_11  and  N_12 
REMARK    5  A    between atoms: C_15  and  C_16 
REMARK       I    between atoms: C_16  and  N_17 
REMARK    6  A    between atoms: N_17  and  N_18 
REMARK    7  A    between atoms: C_19  and  C_20 
REMARK    8  A    between atoms: C_21  and  C_22 
REMARK    9  A    between atoms: N_29  and  C_30 
ROOT
HETATM    1  C   UNL     1      39.649 -12.508   0.639  1.00  0.00     0.293 C 
HETATM    2  N   UNL     1      39.228 -13.684   1.233  1.00  0.00    -0.242 N 
HETATM    3  O   UNL     1      40.813 -12.178   0.432  1.00  0.00    -0.264 OA
HETATM    4  H   UNL     1      38.235 -13.855   1.383  1.00  0.00     0.192 HD
ENDROOT
BRANCH   2   5
HETATM    5  N   UNL     1      40.155 -14.590   1.658  1.00  0.00    -0.183 NA
HETATM    6  C   UNL     1      40.687 -14.359   2.816  1.00  0.00     0.154 C 
BRANCH   6   7
HETATM    7  C   UNL     1      41.682 -15.274   3.317  1.00  0.00     0.032 A 
HETATM    8  C   UNL     1      42.757 -15.027   4.213  1.00  0.00     0.101 A 
HETATM    9  N   UNL     1      43.428 -16.156   4.478  1.00  0.00    -0.166 NA
HETATM   10  N   UNL     1      42.842 -17.122   3.730  1.00  0.00    -0.244 N 
HETATM   11  C   UNL     1      41.783 -16.617   3.014  1.00  0.00     0.134 A 
BRANCH   8  12
HETATM   12  C   UNL     1      43.178 -13.760   4.811  1.00  0.00    -0.005 A 
HETATM   13  C   UNL     1      43.423 -13.680   6.189  1.00  0.00     0.014 A 
HETATM   14  C   UNL     1      43.831 -12.476   6.767  1.00  0.00     0.001 A 
HETATM   15  C   UNL     1      44.003 -11.343   5.973  1.00  0.00     0.000 A 
HETATM   16  C   UNL     1      43.779 -11.415   4.600  1.00  0.00     0.001 A 
HETATM   17  C   UNL     1      43.373 -12.618   4.019  1.00  0.00     0.014 A 
ENDBRANCH   8  12
BRANCH  10  18
HETATM   18  C   UNL     1      43.328 -18.460   3.752  1.00  0.00     0.058 A 
HETATM   19  C   UNL     1      43.854 -18.981   4.944  1.00  0.00     0.031 A 
HETATM   20  C   UNL     1      44.339 -20.291   4.987  1.00  0.00     0.002 A 
HETATM   21  C   UNL     1      44.301 -21.087   3.844  1.00  0.00     0.000 A 
HETATM   22  C   UNL     1      43.778 -20.577   2.657  1.00  0.00     0.002 A 
HETATM   23  C   UNL     1      43.292 -19.266   2.605  1.00  0.00     0.031 A 
ENDBRANCH  10  18
ENDBRANCH   6   7
ENDBRANCH   2   5
BRANCH   1  24
HETATM   24  C   UNL     1      38.560 -11.619   0.258  1.00  0.00     0.170 A 
HETATM   25  C   UNL     1      38.328 -11.077  -0.998  1.00  0.00     0.096 A 
HETATM   26  N   UNL     1      37.134 -10.374  -0.855  1.00  0.00    -0.215 N 
HETATM   27  N   UNL     1      36.765 -10.408   0.453  1.00  0.00     0.012 NA
HETATM   28  N   UNL     1      37.605 -11.178   1.124  1.00  0.00    -0.152 NA
BRANCH  25  29
HETATM   29  C   UNL     1      39.171 -11.102  -2.218  1.00  0.00     0.295 C 
BRANCH  29  30
HETATM   30  N   UNL     1      39.917 -12.390  -2.458  1.00  0.00    -0.073 N 
HETATM   31  C   UNL     1      41.232 -12.200  -3.165  1.00  0.00     0.269 C 
HETATM   32  H   UNL     1      40.099 -12.808  -1.535  1.00  0.00     0.279 HD
HETATM   33  C   UNL     1      39.057 -13.383  -3.194  1.00  0.00     0.269 C 
ENDBRANCH  29  30
ENDBRANCH  25  29
BRANCH  26  34
HETATM   34  C   UNL     1      36.348  -9.753  -1.854  1.00  0.00     0.225 A 
HETATM   35  N   UNL     1      36.101  -8.441  -1.787  1.00  0.00    -0.081 NA
HETATM   36  O   UNL     1      35.331  -8.193  -2.928  1.00  0.00    -0.103 OA
HETATM   37  N   UNL     1      35.157  -9.348  -3.676  1.00  0.00    -0.083 NA
HETATM   38  C   UNL     1      35.789 -10.316  -3.013  1.00  0.00     0.201 A 
BRANCH  38  39
HETATM   39  N   UNL     1      35.854 -11.595  -3.411  1.00  0.00    -0.379 N 
HETATM   40  H   UNL     1      36.510 -11.871  -4.137  1.00  0.00     0.158 HD
HETATM   41  H   UNL     1      35.433 -12.370  -2.903  1.00  0.00     0.158 HD
ENDBRANCH  38  39
ENDBRANCH  26  34
ENDBRANCH   1  24
TORSDOF 9
ENDMDL
MODEL 9
REMARK VINA RESULT:      -8.2      5.078      9.544
REMARK  9 active torsions:
REMARK  status: ('A' for Active; 'I' for Inactive)
REMARK    1  A    between atoms: N_2  and  C_4 
REMARK    2  A    between atoms: C_4  and  C_5 
REMARK    3  A    between atoms: N_6  and  C_7 
REMARK    4  A    between atoms: C_11  and  N_12 
REMARK    5  A    between atoms: C_15  and  C_16 
REMARK       I    between atoms: C_16  and  N_17 
REMARK    6  A    between atoms: N_17  and  N_18 
REMARK    7  A    between atoms: C_19  and  C_20 
REMARK    8  A    between atoms: C_21  and  C_22 
REMARK    9  A    between atoms: N_29  and  C_30 
ROOT
HETATM    1  C   UNL     1      39.638 -12.529  -0.658  1.00  0.00     0.293 C 
HETATM    2  N   UNL     1      39.335 -13.839  -0.336  1.00  0.00    -0.242 N 
HETATM    3  O   UNL     1      40.709 -11.963  -0.459  1.00  0.00    -0.264 OA
HETATM    4  H   UNL     1      38.405 -14.210  -0.520  1.00  0.00     0.192 HD
ENDROOT
BRANCH   2   5
HETATM    5  N   UNL     1      40.278 -14.614   0.274  1.00  0.00    -0.183 NA
HETATM    6  C   UNL     1      40.351 -14.514   1.562  1.00  0.00     0.154 C 
BRANCH   6   7
HETATM    7  C   UNL     1      41.335 -15.300   2.265  1.00  0.00     0.032 A 
HETATM    8  C   UNL     1      42.267 -14.891   3.257  1.00  0.00     0.101 A 
HETATM    9  N   UNL     1      42.975 -15.936   3.707  1.00  0.00    -0.166 NA
HETATM   10  N   UNL     1      42.557 -17.006   2.990  1.00  0.00    -0.244 N 
HETATM   11  C   UNL     1      41.565 -16.652   2.106  1.00  0.00     0.134 A 
BRANCH   8  12
HETATM   12  C   UNL     1      42.520 -13.548   3.777  1.00  0.00    -0.005 A 
HETATM   13  C   UNL     1      41.911 -13.129   4.968  1.00  0.00     0.014 A 
HETATM   14  C   UNL     1      42.152 -11.851   5.476  1.00  0.00     0.001 A 
HETATM   15  C   UNL     1      43.007 -10.981   4.801  1.00  0.00     0.000 A 
HETATM   16  C   UNL     1      43.631 -11.392   3.624  1.00  0.00     0.001 A 
HETATM   17  C   UNL     1      43.394 -12.671   3.117  1.00  0.00     0.014 A 
ENDBRANCH   8  12
BRANCH  10  18
HETATM   18  C   UNL     1      43.127 -18.294   3.198  1.00  0.00     0.058 A 
HETATM   19  C   UNL     1      43.098 -19.235   2.157  1.00  0.00     0.031 A 
HETATM   20  C   UNL     1      43.649 -20.506   2.340  1.00  0.00     0.002 A 
HETATM   21  C   UNL     1      44.232 -20.845   3.559  1.00  0.00     0.000 A 
HETATM   22  C   UNL     1      44.266 -19.915   4.597  1.00  0.00     0.002 A 
HETATM   23  C   UNL     1      43.715 -18.641   4.422  1.00  0.00     0.031 A 
ENDBRANCH  10  18
ENDBRANCH   6   7
ENDBRANCH   2   5
BRANCH   1  24
HETATM   24  C   UNL     1      38.536 -11.806  -1.278  1.00  0.00     0.170 A 
HETATM   25  C   UNL     1      37.567 -11.051  -0.632  1.00  0.00     0.096 A 
HETATM   26  N   UNL     1      36.806 -10.510  -1.666  1.00  0.00    -0.215 N 
HETATM   27  N   UNL     1      37.241 -11.031  -2.843  1.00  0.00     0.012 NA
HETATM   28  N   UNL     1      38.300 -11.791  -2.621  1.00  0.00    -0.152 NA
BRANCH  25  29
HETATM   29  C   UNL     1      37.280 -10.907   0.815  1.00  0.00     0.295 C 
BRANCH  29  30
HETATM   30  N   UNL     1      38.338 -10.189   1.614  1.00  0.00    -0.073 N 
HETATM   31  C   UNL     1      38.957 -11.037   2.691  1.00  0.00     0.269 C 
HETATM   32  H   UNL     1      39.076  -9.911   0.951  1.00  0.00     0.279 HD
HETATM   33  C   UNL     1      37.802  -8.906   2.190  1.00  0.00     0.269 C 
ENDBRANCH  29  30
ENDBRANCH  25  29
BRANCH  26  34
HETATM   34  C   UNL     1      35.780  -9.540  -1.593  1.00  0.00     0.225 A 
HETATM   35  N   UNL     1      35.968  -8.423  -0.884  1.00  0.00    -0.081 NA
HETATM   36  O   UNL     1      34.773  -7.716  -1.061  1.00  0.00    -0.103 OA
HETATM   37  N   UNL     1      33.904  -8.402  -1.895  1.00  0.00    -0.083 NA
HETATM   38  C   UNL     1      34.527  -9.532  -2.229  1.00  0.00     0.201 A 
BRANCH  38  39
HETATM   39  N   UNL     1      34.013 -10.477  -3.030  1.00  0.00    -0.379 N 
HETATM   40  H   UNL     1      33.379 -10.220  -3.782  1.00  0.00     0.158 HD
HETATM   41  H   UNL     1      34.363 -11.432  -3.079  1.00  0.00     0.158 HD
ENDBRANCH  38  39
ENDBRANCH  26  34
ENDBRANCH   1  24
TORSDOF 9
ENDMDL
MODEL 10
REMARK VINA RESULT:      -8.0      1.742      2.296
REMARK  9 active torsions:
REMARK  status: ('A' for Active; 'I' for Inactive)
REMARK    1  A    between atoms: N_2  and  C_4 
REMARK    2  A    between atoms: C_4  and  C_5 
REMARK    3  A    between atoms: N_6  and  C_7 
REMARK    4  A    between atoms: C_11  and  N_12 
REMARK    5  A    between atoms: C_15  and  C_16 
REMARK       I    between atoms: C_16  and  N_17 
REMARK    6  A    between atoms: N_17  and  N_18 
REMARK    7  A    between atoms: C_19  and  C_20 
REMARK    8  A    between atoms: C_21  and  C_22 
REMARK    9  A    between atoms: N_29  and  C_30 
ROOT
HETATM    1  C   UNL     1      41.853 -10.330   5.607  1.00  0.00     0.293 C 
HETATM    2  N   UNL     1      41.506 -11.653   5.403  1.00  0.00    -0.242 N 
HETATM    3  O   UNL     1      42.072  -9.497   4.733  1.00  0.00    -0.264 OA
HETATM    4  H   UNL     1      41.369 -12.275   6.198  1.00  0.00     0.192 HD
ENDROOT
BRANCH   2   5
HETATM    5  N   UNL     1      41.396 -12.129   4.129  1.00  0.00    -0.183 NA
HETATM    6  C   UNL     1      41.163 -13.397   4.013  1.00  0.00     0.154 C 
BRANCH   6   7
HETATM    7  C   UNL     1      41.047 -13.963   2.692  1.00  0.00     0.032 A 
HETATM    8  C   UNL     1      41.537 -15.204   2.201  1.00  0.00     0.101 A 
HETATM    9  N   UNL     1      41.171 -15.392   0.926  1.00  0.00    -0.166 NA
HETATM   10  N   UNL     1      40.498 -14.274   0.563  1.00  0.00    -0.244 N 
HETATM   11  C   UNL     1      40.408 -13.390   1.612  1.00  0.00     0.134 A 
BRANCH   8  12
HETATM   12  C   UNL     1      42.352 -16.204   2.892  1.00  0.00    -0.005 A 
HETATM   13  C   UNL     1      42.825 -17.326   2.199  1.00  0.00     0.014 A 
HETATM   14  C   UNL     1      43.607 -18.282   2.848  1.00  0.00     0.001 A 
HETATM   15  C   UNL     1      43.930 -18.123   4.195  1.00  0.00     0.000 A 
HETATM   16  C   UNL     1      43.479 -17.003   4.891  1.00  0.00     0.001 A 
HETATM   17  C   UNL     1      42.697 -16.044   4.242  1.00  0.00     0.014 A 
ENDBRANCH   8  12
BRANCH  10  18
HETATM   18  C   UNL     1      39.982 -14.127  -0.755  1.00  0.00     0.058 A 
HETATM   19  C   UNL     1      40.265 -12.958  -1.479  1.00  0.00     0.031 A 
HETATM   20  C   UNL     1      39.766 -12.792  -2.773  1.00  0.00     0.002 A 
HETATM   21  C   UNL     1      38.985 -13.789  -3.353  1.00  0.00     0.000 A 
HETATM   22  C   UNL     1      38.701 -14.953  -2.642  1.00  0.00     0.002 A 
HETATM   23  C   UNL     1      39.195 -15.127  -1.345  1.00  0.00     0.031 A 
ENDBRANCH  10  18
ENDBRANCH   6   7
ENDBRANCH   2   5
BRANCH   1  24
HETATM   24  C   UNL     1      41.963  -9.961   7.011  1.00  0.00     0.170 A 
HETATM   25  C   UNL     1      40.998  -9.334   7.786  1.00  0.00     0.096 A 
HETATM   26  N   UNL     1      41.559  -9.281   9.060  1.00  0.00    -0.215 N 
HETATM   27  N   UNL     1      42.836  -9.743   8.991  1.00  0.00     0.012 NA
HETATM   28  N   UNL     1      43.077 -10.178   7.766  1.00  0.00    -0.152 NA
BRANCH  25  29
HETATM   29  C   UNL     1      39.702  -8.731   7.391  1.00  0.00     0.295 C 
BRANCH  29  30
HETATM   30  N   UNL     1      39.231  -9.071   6.000  1.00  0.00    -0.073 N 
HETATM   31  C   UNL     1      38.574  -7.920   5.289  1.00  0.00     0.269 C 
HETATM   32  H   UNL     1      40.063  -9.356   5.463  1.00  0.00     0.279 HD
HETATM   33  C   UNL     1      38.324 -10.273   6.016  1.00  0.00     0.269 C 
ENDBRANCH  29  30
ENDBRANCH  25  29
BRANCH  26  34
HETATM   34  C   UNL     1      40.956  -8.884  10.276  1.00  0.00     0.225 A 
HETATM   35  N   UNL     1      41.438  -7.834  10.947  1.00  0.00    -0.081 NA
HETATM   36  O   UNL     1      40.592  -7.737  12.057  1.00  0.00    -0.103 OA
HETATM   37  N   UNL     1      39.601  -8.705  12.019  1.00  0.00    -0.083 NA
HETATM   38  C   UNL     1      39.822  -9.416  10.913  1.00  0.00     0.201 A 
BRANCH  38  39
HETATM   39  N   UNL     1      39.074 -10.455  10.513  1.00  0.00    -0.379 N 
HETATM   40  H   UNL     1      38.565 -11.011  11.195  1.00  0.00     0.158 HD
HETATM   41  H   UNL     1      38.807 -10.623   9.545  1.00  0.00     0.158 HD
ENDBRANCH  38  39
ENDBRANCH  26  34
ENDBRANCH   1  24
TORSDOF 9
ENDMDL
