MODEL 1
REMARK VINA RESULT:      -8.7      0.000      0.000
REMARK  4 active torsions:
REMARK  status: ('A' for Active; 'I' for Inactive)
REMARK    1  A    between atoms: O_2  and  C_3 
REMARK    2  A    between atoms: C_4  and  N_5 
REMARK    3  A    between atoms: N_8  and  C_9 
REMARK    4  A    between atoms: C_9  and  C_10 
ROOT
HETATM    1  N   UNL     1      42.833 -16.199   3.290  1.00  0.00    -0.375 N 
HETATM    2  C   UNL     1      41.447 -15.817   3.611  1.00  0.00     0.153 C 
HETATM    3  C   UNL     1      41.334 -14.278   3.757  1.00  0.00     0.292 C 
HETATM    4  N   UNL     1      41.824 -13.485   2.600  1.00  0.00     0.095 N 
HETATM    5  C   UNL     1      43.197 -13.957   2.276  1.00  0.00     0.292 C 
HETATM    6  C   UNL     1      43.366 -15.487   2.106  1.00  0.00     0.153 C 
ENDROOT
BRANCH   4   7
HETATM    7  C   UNL     1      40.910 -13.619   1.447  1.00  0.00     0.313 C 
BRANCH   7   8
HETATM    8  C   UNL     1      41.024 -12.481   0.453  1.00  0.00    -0.001 A 
HETATM    9  C   UNL     1      40.938 -12.641  -0.941  1.00  0.00     0.070 A 
HETATM   10  C   UNL     1      41.075 -11.605  -1.854  1.00  0.00     0.012 A 
HETATM   11  N   UNL     1      40.693 -13.758  -1.701  1.00  0.00    -0.277 N 
HETATM   12  C   UNL     1      40.903 -12.218  -3.116  1.00  0.00     0.152 A 
HETATM   13  C   UNL     1      41.326 -10.306  -1.384  1.00  0.00     0.015 A 
HETATM   14  N   UNL     1      40.672 -13.531  -3.028  1.00  0.00    -0.186 NA
HETATM   15  C   UNL     1      41.435 -10.104  -0.003  1.00  0.00     0.002 A 
HETATM   16  C   UNL     1      41.293 -11.170   0.891  1.00  0.00     0.011 A 
HETATM   17  H   UNL     1      40.505 -14.692  -1.347  1.00  0.00     0.189 HD
ENDBRANCH   7   8
ENDBRANCH   4   7
BRANCH   1  18
HETATM   18  C   UNL     1      43.222 -17.550   3.364  1.00  0.00     0.064 A 
HETATM   19  C   UNL     1      43.913 -18.162   4.439  1.00  0.00     0.097 A 
HETATM   20  C   UNL     1      44.219 -19.532   4.404  1.00  0.00     0.081 A 
HETATM   21  C   UNL     1      43.894 -20.291   3.289  1.00  0.00     0.119 A 
HETATM   22  C   UNL     1      43.260 -19.718   2.203  1.00  0.00     0.044 A 
HETATM   23  F   UNL     1      44.197 -21.596   3.268  1.00  0.00    -0.206 F 
HETATM   24  C   UNL     1      42.931 -18.363   2.245  1.00  0.00     0.035 A 
BRANCH  19  25
HETATM   25  O   UNL     1      44.196 -17.430   5.567  1.00  0.00    -0.354 OA
HETATM   26  C   UNL     1      43.284 -17.644   6.642  1.00  0.00     0.210 C 
ENDBRANCH  19  25
ENDBRANCH   1  18
TORSDOF 4
ENDMDL
MODEL 2
REMARK VINA RESULT:      -8.2      1.827      1.970
REMARK  4 active torsions:
REMARK  status: ('A' for Active; 'I' for Inactive)
REMARK    1  A    between atoms: O_2  and  C_3 
REMARK    2  A    between atoms: C_4  and  N_5 
REMARK    3  A    between atoms: N_8  and  C_9 
REMARK    4  A    between atoms: C_9  and  C_10 
ROOT
HETATM    1  N   UNL     1      42.441 -16.166   3.267  1.00  0.00    -0.375 N 
HETATM    2  C   UNL     1      40.975 -16.058   3.172  1.00  0.00     0.153 C 
HETATM    3  C   UNL     1      40.560 -14.587   2.911  1.00  0.00     0.292 C 
HETATM    4  N   UNL     1      41.195 -13.940   1.733  1.00  0.00     0.095 N 
HETATM    5  C   UNL     1      42.665 -14.138   1.845  1.00  0.00     0.292 C 
HETATM    6  C   UNL     1      43.137 -15.591   2.093  1.00  0.00     0.153 C 
ENDROOT
BRANCH   4   7
HETATM    7  C   UNL     1      40.659 -14.499   0.475  1.00  0.00     0.313 C 
BRANCH   7   8
HETATM    8  C   UNL     1      39.659 -13.590  -0.210  1.00  0.00    -0.001 A 
HETATM    9  C   UNL     1      38.966 -13.924  -1.386  1.00  0.00     0.070 A 
HETATM   10  C   UNL     1      38.075 -13.080  -2.033  1.00  0.00     0.012 A 
HETATM   11  N   UNL     1      38.967 -15.081  -2.128  1.00  0.00    -0.277 N 
HETATM   12  C   UNL     1      37.617 -13.828  -3.141  1.00  0.00     0.152 A 
HETATM   13  C   UNL     1      37.840 -11.800  -1.507  1.00  0.00     0.015 A 
HETATM   14  N   UNL     1      38.159 -15.048  -3.204  1.00  0.00    -0.186 NA
HETATM   15  C   UNL     1      38.521 -11.419  -0.345  1.00  0.00     0.002 A 
HETATM   16  C   UNL     1      39.414 -12.293   0.282  1.00  0.00     0.011 A 
HETATM   17  H   UNL     1      39.485 -15.928  -1.913  1.00  0.00     0.189 HD
ENDBRANCH   7   8
ENDBRANCH   4   7
BRANCH   1  18
HETATM   18  C   UNL     1      43.025 -17.352   3.751  1.00  0.00     0.064 A 
HETATM   19  C   UNL     1      43.303 -17.654   5.107  1.00  0.00     0.097 A 
HETATM   20  C   UNL     1      43.864 -18.890   5.465  1.00  0.00     0.081 A 
HETATM   21  C   UNL     1      44.203 -19.811   4.484  1.00  0.00     0.119 A 
HETATM   22  C   UNL     1      43.989 -19.534   3.147  1.00  0.00     0.044 A 
HETATM   23  F   UNL     1      44.743 -20.984   4.840  1.00  0.00    -0.206 F 
HETATM   24  C   UNL     1      43.407 -18.317   2.790  1.00  0.00     0.035 A 
BRANCH  19  25
HETATM   25  O   UNL     1      42.927 -16.767   6.089  1.00  0.00    -0.354 OA
HETATM   26  C   UNL     1      43.928 -16.538   7.078  1.00  0.00     0.210 C 
ENDBRANCH  19  25
ENDBRANCH   1  18
TORSDOF 4
ENDMDL
MODEL 3
REMARK VINA RESULT:      -8.0      2.067      2.496
REMARK  4 active torsions:
REMARK  status: ('A' for Active; 'I' for Inactive)
REMARK    1  A    between atoms: O_2  and  C_3 
REMARK    2  A    between atoms: C_4  and  N_5 
REMARK    3  A    between atoms: N_8  and  C_9 
REMARK    4  A    between atoms: C_9  and  C_10 
ROOT
HETATM    1  N   UNL     1      42.245 -16.083   3.189  1.00  0.00    -0.375 N 
HETATM    2  C   UNL     1      40.776 -15.988   3.242  1.00  0.00     0.153 C 
HETATM    3  C   UNL     1      40.317 -14.554   2.874  1.00  0.00     0.292 C 
HETATM    4  N   UNL     1      40.812 -14.035   1.573  1.00  0.00     0.095 N 
HETATM    5  C   UNL     1      42.288 -14.218   1.545  1.00  0.00     0.292 C 
HETATM    6  C   UNL     1      42.803 -15.636   1.893  1.00  0.00     0.153 C 
ENDROOT
BRANCH   4   7
HETATM    7  C   UNL     1      40.151 -14.725   0.446  1.00  0.00     0.313 C 
BRANCH   7   8
HETATM    8  C   UNL     1      39.704 -13.787  -0.656  1.00  0.00    -0.001 A 
HETATM    9  C   UNL     1      38.801 -12.726  -0.470  1.00  0.00     0.070 A 
HETATM   10  C   UNL     1      38.366 -11.887  -1.485  1.00  0.00     0.012 A 
HETATM   11  N   UNL     1      38.186 -12.263   0.667  1.00  0.00    -0.277 N 
HETATM   12  C   UNL     1      37.495 -10.976  -0.844  1.00  0.00     0.152 A 
HETATM   13  C   UNL     1      38.831 -12.093  -2.794  1.00  0.00     0.015 A 
HETATM   14  N   UNL     1      37.381 -11.203   0.468  1.00  0.00    -0.186 NA
HETATM   15  C   UNL     1      39.720 -13.150  -3.027  1.00  0.00     0.002 A 
HETATM   16  C   UNL     1      40.139 -13.979  -1.982  1.00  0.00     0.011 A 
HETATM   17  H   UNL     1      38.314 -12.628   1.606  1.00  0.00     0.189 HD
ENDBRANCH   7   8
ENDBRANCH   4   7
BRANCH   1  18
HETATM   18  C   UNL     1      42.893 -17.210   3.729  1.00  0.00     0.064 A 
HETATM   19  C   UNL     1      43.167 -17.439   5.100  1.00  0.00     0.097 A 
HETATM   20  C   UNL     1      43.798 -18.623   5.516  1.00  0.00     0.081 A 
HETATM   21  C   UNL     1      44.208 -19.560   4.579  1.00  0.00     0.119 A 
HETATM   22  C   UNL     1      43.999 -19.350   3.229  1.00  0.00     0.044 A 
HETATM   23  F   UNL     1      44.813 -20.682   4.990  1.00  0.00    -0.206 F 
HETATM   24  C   UNL     1      43.349 -18.187   2.814  1.00  0.00     0.035 A 
BRANCH  19  25
HETATM   25  O   UNL     1      42.721 -16.539   6.039  1.00  0.00    -0.354 OA
HETATM   26  C   UNL     1      43.478 -16.540   7.248  1.00  0.00     0.210 C 
ENDBRANCH  19  25
ENDBRANCH   1  18
TORSDOF 4
ENDMDL
MODEL 4
REMARK VINA RESULT:      -8.0      3.637      7.985
REMARK  4 active torsions:
REMARK  status: ('A' for Active; 'I' for Inactive)
REMARK    1  A    between atoms: O_2  and  C_3 
REMARK    2  A    between atoms: C_4  and  N_5 
REMARK    3  A    between atoms: N_8  and  C_9 
REMARK    4  A    between atoms: C_9  and  C_10 
ROOT
HETATM    1  N   UNL     1      40.752 -14.371   2.569  1.00  0.00    -0.375 N 
HETATM    2  C   UNL     1      42.063 -13.842   2.982  1.00  0.00     0.153 C 
HETATM    3  C   UNL     1      42.368 -14.247   4.447  1.00  0.00     0.292 C 
HETATM    4  N   UNL     1      42.291 -15.702   4.741  1.00  0.00     0.095 N 
HETATM    5  C   UNL     1      40.979 -16.195   4.244  1.00  0.00     0.292 C 
HETATM    6  C   UNL     1      40.628 -15.831   2.780  1.00  0.00     0.153 C 
ENDROOT
BRANCH   4   7
HETATM    7  C   UNL     1      43.421 -16.423   4.121  1.00  0.00     0.313 C 
BRANCH   7   8
HETATM    8  C   UNL     1      43.581 -17.842   4.628  1.00  0.00    -0.001 A 
HETATM    9  C   UNL     1      43.716 -18.966   3.796  1.00  0.00     0.070 A 
HETATM   10  C   UNL     1      43.829 -20.269   4.259  1.00  0.00     0.012 A 
HETATM   11  N   UNL     1      43.790 -19.064   2.428  1.00  0.00    -0.277 N 
HETATM   12  C   UNL     1      43.955 -21.052   3.089  1.00  0.00     0.152 A 
HETATM   13  C   UNL     1      43.800 -20.511   5.642  1.00  0.00     0.015 A 
HETATM   14  N   UNL     1      43.930 -20.322   1.970  1.00  0.00    -0.186 NA
HETATM   15  C   UNL     1      43.651 -19.421   6.507  1.00  0.00     0.002 A 
HETATM   16  C   UNL     1      43.538 -18.119   6.009  1.00  0.00     0.011 A 
HETATM   17  H   UNL     1      43.778 -18.288   1.773  1.00  0.00     0.189 HD
ENDBRANCH   7   8
ENDBRANCH   4   7
BRANCH   1  18
HETATM   18  C   UNL     1      40.158 -13.916   1.375  1.00  0.00     0.064 A 
HETATM   19  C   UNL     1      39.498 -12.676   1.191  1.00  0.00     0.097 A 
HETATM   20  C   UNL     1      38.970 -12.326  -0.063  1.00  0.00     0.081 A 
HETATM   21  C   UNL     1      39.044 -13.218  -1.123  1.00  0.00     0.119 A 
HETATM   22  C   UNL     1      39.640 -14.456  -0.968  1.00  0.00     0.044 A 
HETATM   23  F   UNL     1      38.532 -12.873  -2.311  1.00  0.00    -0.206 F 
HETATM   24  C   UNL     1      40.189 -14.796   0.269  1.00  0.00     0.035 A 
BRANCH  19  25
HETATM   25  O   UNL     1      39.463 -11.767   2.222  1.00  0.00    -0.354 OA
HETATM   26  C   UNL     1      38.298 -10.944   2.230  1.00  0.00     0.210 C 
ENDBRANCH  19  25
ENDBRANCH   1  18
TORSDOF 4
ENDMDL
MODEL 5
REMARK VINA RESULT:      -7.9      5.379      8.514
REMARK  4 active torsions:
REMARK  status: ('A' for Active; 'I' for Inactive)
REMARK    1  A    between atoms: O_2  and  C_3 
REMARK    2  A    between atoms: C_4  and  N_5 
REMARK    3  A    between atoms: N_8  and  C_9 
REMARK    4  A    between atoms: C_9  and  C_10 
ROOT
HETATM    1  N   UNL     1      43.081 -12.862   6.520  1.00  0.00    -0.375 N 
HETATM    2  C   UNL     1      43.179 -14.110   7.296  1.00  0.00     0.153 C 
HETATM    3  C   UNL     1      42.227 -15.183   6.709  1.00  0.00     0.292 C 
HETATM    4  N   UNL     1      42.399 -15.472   5.261  1.00  0.00     0.095 N 
HETATM    5  C   UNL     1      42.361 -14.174   4.534  1.00  0.00     0.292 C 
HETATM    6  C   UNL     1      43.302 -13.068   5.070  1.00  0.00     0.153 C 
ENDROOT
BRANCH   4   7
HETATM    7  C   UNL     1      43.659 -16.202   5.017  1.00  0.00     0.313 C 
BRANCH   7   8
HETATM    8  C   UNL     1      43.511 -17.349   4.038  1.00  0.00    -0.001 A 
HETATM    9  C   UNL     1      43.748 -18.696   4.360  1.00  0.00     0.070 A 
HETATM   10  C   UNL     1      43.645 -19.743   3.456  1.00  0.00     0.012 A 
HETATM   11  N   UNL     1      44.089 -19.285   5.553  1.00  0.00    -0.277 N 
HETATM   12  C   UNL     1      43.952 -20.897   4.213  1.00  0.00     0.152 A 
HETATM   13  C   UNL     1      43.293 -19.468   2.125  1.00  0.00     0.015 A 
HETATM   14  N   UNL     1      44.226 -20.622   5.491  1.00  0.00    -0.186 NA
HETATM   15  C   UNL     1      43.063 -18.137   1.756  1.00  0.00     0.002 A 
HETATM   16  C   UNL     1      43.177 -17.104   2.691  1.00  0.00     0.011 A 
HETATM   17  H   UNL     1      44.209 -18.807   6.442  1.00  0.00     0.189 HD
ENDBRANCH   7   8
ENDBRANCH   4   7
BRANCH   1  18
HETATM   18  C   UNL     1      43.658 -11.679   7.020  1.00  0.00     0.064 A 
HETATM   19  C   UNL     1      42.981 -10.459   7.266  1.00  0.00     0.097 A 
HETATM   20  C   UNL     1      43.667  -9.354   7.796  1.00  0.00     0.081 A 
HETATM   21  C   UNL     1      45.031  -9.431   8.036  1.00  0.00     0.119 A 
HETATM   22  C   UNL     1      45.734 -10.590   7.766  1.00  0.00     0.044 A 
HETATM   23  F   UNL     1      45.674  -8.368   8.537  1.00  0.00    -0.206 F 
HETATM   24  C   UNL     1      45.051 -11.698   7.264  1.00  0.00     0.035 A 
BRANCH  19  25
HETATM   25  O   UNL     1      41.621 -10.389   7.077  1.00  0.00    -0.354 OA
HETATM   26  C   UNL     1      41.212  -9.350   6.188  1.00  0.00     0.210 C 
ENDBRANCH  19  25
ENDBRANCH   1  18
TORSDOF 4
ENDMDL
MODEL 6
REMARK VINA RESULT:      -7.9      4.353      6.491
REMARK  4 active torsions:
REMARK  status: ('A' for Active; 'I' for Inactive)
REMARK    1  A    between atoms: O_2  and  C_3 
REMARK    2  A    between atoms: C_4  and  N_5 
REMARK    3  A    between atoms: N_8  and  C_9 
REMARK    4  A    between atoms: C_9  and  C_10 
ROOT
HETATM    1  N   UNL     1      42.670 -15.821   5.064  1.00  0.00    -0.375 N 
HETATM    2  C   UNL     1      41.931 -14.727   4.411  1.00  0.00     0.153 C 
HETATM    3  C   UNL     1      41.375 -13.745   5.474  1.00  0.00     0.292 C 
HETATM    4  N   UNL     1      42.377 -13.188   6.420  1.00  0.00     0.095 N 
HETATM    5  C   UNL     1      43.139 -14.328   6.997  1.00  0.00     0.292 C 
HETATM    6  C   UNL     1      43.728 -15.335   5.979  1.00  0.00     0.153 C 
ENDROOT
BRANCH   4   7
HETATM    7  C   UNL     1      43.264 -12.224   5.737  1.00  0.00     0.313 C 
BRANCH   7   8
HETATM    8  C   UNL     1      44.120 -11.413   6.689  1.00  0.00    -0.001 A 
HETATM    9  C   UNL     1      43.605 -10.549   7.671  1.00  0.00     0.070 A 
HETATM   10  C   UNL     1      44.387  -9.782   8.521  1.00  0.00     0.012 A 
HETATM   11  N   UNL     1      42.308 -10.279   8.035  1.00  0.00    -0.277 N 
HETATM   12  C   UNL     1      43.458  -9.094   9.335  1.00  0.00     0.152 A 
HETATM   13  C   UNL     1      45.785  -9.843   8.409  1.00  0.00     0.015 A 
HETATM   14  N   UNL     1      42.189  -9.393   9.041  1.00  0.00    -0.186 NA
HETATM   15  C   UNL     1      46.341 -10.679   7.433  1.00  0.00     0.002 A 
HETATM   16  C   UNL     1      45.525 -11.439   6.590  1.00  0.00     0.011 A 
HETATM   17  H   UNL     1      41.475 -10.705   7.638  1.00  0.00     0.189 HD
ENDBRANCH   7   8
ENDBRANCH   4   7
BRANCH   1  18
HETATM   18  C   UNL     1      43.040 -16.958   4.320  1.00  0.00     0.064 A 
HETATM   19  C   UNL     1      43.702 -18.106   4.822  1.00  0.00     0.097 A 
HETATM   20  C   UNL     1      43.992 -19.191   3.979  1.00  0.00     0.081 A 
HETATM   21  C   UNL     1      43.678 -19.127   2.630  1.00  0.00     0.119 A 
HETATM   22  C   UNL     1      43.074 -18.005   2.094  1.00  0.00     0.044 A 
HETATM   23  F   UNL     1      43.965 -20.168   1.836  1.00  0.00    -0.206 F 
HETATM   24  C   UNL     1      42.761 -16.936   2.935  1.00  0.00     0.035 A 
BRANCH  19  25
HETATM   25  O   UNL     1      43.973 -18.197   6.167  1.00  0.00    -0.354 OA
HETATM   26  C   UNL     1      43.310 -19.279   6.820  1.00  0.00     0.210 C 
ENDBRANCH  19  25
ENDBRANCH   1  18
TORSDOF 4
ENDMDL
MODEL 7
REMARK VINA RESULT:      -7.4      4.994      7.237
REMARK  4 active torsions:
REMARK  status: ('A' for Active; 'I' for Inactive)
REMARK    1  A    between atoms: O_2  and  C_3 
REMARK    2  A    between atoms: C_4  and  N_5 
REMARK    3  A    between atoms: N_8  and  C_9 
REMARK    4  A    between atoms: C_9  and  C_10 
ROOT
HETATM    1  N   UNL     1      42.438 -14.342   4.283  1.00  0.00    -0.375 N 
HETATM    2  C   UNL     1      43.556 -13.391   4.158  1.00  0.00     0.153 C 
HETATM    3  C   UNL     1      43.144 -12.003   4.712  1.00  0.00     0.292 C 
HETATM    4  N   UNL     1      42.624 -11.995   6.104  1.00  0.00     0.095 N 
HETATM    5  C   UNL     1      41.547 -13.018   6.190  1.00  0.00     0.292 C 
HETATM    6  C   UNL     1      41.907 -14.428   5.663  1.00  0.00     0.153 C 
ENDROOT
BRANCH   4   7
HETATM    7  C   UNL     1      43.709 -12.255   7.072  1.00  0.00     0.313 C 
BRANCH   7   8
HETATM    8  C   UNL     1      44.321 -10.993   7.644  1.00  0.00    -0.001 A 
HETATM    9  C   UNL     1      43.604 -10.031   8.377  1.00  0.00     0.070 A 
HETATM   10  C   UNL     1      44.156  -8.859   8.873  1.00  0.00     0.012 A 
HETATM   11  N   UNL     1      42.292 -10.010   8.783  1.00  0.00    -0.277 N 
HETATM   12  C   UNL     1      43.088  -8.219   9.543  1.00  0.00     0.152 A 
HETATM   13  C   UNL     1      45.512  -8.584   8.634  1.00  0.00     0.015 A 
HETATM   14  N   UNL     1      41.949  -8.917   9.489  1.00  0.00    -0.186 NA
HETATM   15  C   UNL     1      46.260  -9.508   7.894  1.00  0.00     0.002 A 
HETATM   16  C   UNL     1      45.674 -10.680   7.406  1.00  0.00     0.011 A 
HETATM   17  H   UNL     1      41.605 -10.741   8.622  1.00  0.00     0.189 HD
ENDBRANCH   7   8
ENDBRANCH   4   7
BRANCH   1  18
HETATM   18  C   UNL     1      42.496 -15.582   3.618  1.00  0.00     0.064 A 
HETATM   19  C   UNL     1      41.627 -16.018   2.587  1.00  0.00     0.097 A 
HETATM   20  C   UNL     1      41.808 -17.271   1.981  1.00  0.00     0.081 A 
HETATM   21  C   UNL     1      42.812 -18.120   2.423  1.00  0.00     0.119 A 
HETATM   22  C   UNL     1      43.650 -17.748   3.457  1.00  0.00     0.044 A 
HETATM   23  F   UNL     1      42.970 -19.315   1.839  1.00  0.00    -0.206 F 
HETATM   24  C   UNL     1      43.490 -16.493   4.044  1.00  0.00     0.035 A 
BRANCH  19  25
HETATM   25  O   UNL     1      40.660 -15.164   2.110  1.00  0.00    -0.354 OA
HETATM   26  C   UNL     1      41.029 -14.482   0.912  1.00  0.00     0.210 C 
ENDBRANCH  19  25
ENDBRANCH   1  18
TORSDOF 4
ENDMDL
MODEL 8
REMARK VINA RESULT:      -7.4      3.724      4.924
REMARK  4 active torsions:
REMARK  status: ('A' for Active; 'I' for Inactive)
REMARK    1  A    between atoms: O_2  and  C_3 
REMARK    2  A    between atoms: C_4  and  N_5 
REMARK    3  A    between atoms: N_8  and  C_9 
REMARK    4  A    between atoms: C_9  and  C_10 
ROOT
HETATM    1  N   UNL     1      42.053 -14.200   3.531  1.00  0.00    -0.375 N 
HETATM    2  C   UNL     1      42.662 -14.391   2.203  1.00  0.00     0.153 C 
HETATM    3  C   UNL     1      41.738 -15.258   1.309  1.00  0.00     0.292 C 
HETATM    4  N   UNL     1      40.342 -14.768   1.162  1.00  0.00     0.095 N 
HETATM    5  C   UNL     1      39.801 -14.528   2.527  1.00  0.00     0.292 C 
HETATM    6  C   UNL     1      40.677 -13.657   3.460  1.00  0.00     0.153 C 
ENDROOT
BRANCH   4   7
HETATM    7  C   UNL     1      40.299 -13.548   0.330  1.00  0.00     0.313 C 
BRANCH   7   8
HETATM    8  C   UNL     1      39.441 -13.696  -0.910  1.00  0.00    -0.001 A 
HETATM    9  C   UNL     1      38.533 -12.723  -1.361  1.00  0.00     0.070 A 
HETATM   10  C   UNL     1      37.723 -12.870  -2.478  1.00  0.00     0.012 A 
HETATM   11  N   UNL     1      38.248 -11.470  -0.875  1.00  0.00    -0.277 N 
HETATM   12  C   UNL     1      37.000 -11.658  -2.555  1.00  0.00     0.152 A 
HETATM   13  C   UNL     1      37.787 -14.061  -3.219  1.00  0.00     0.015 A 
HETATM   14  N   UNL     1      37.315 -10.802  -1.579  1.00  0.00    -0.186 NA
HETATM   15  C   UNL     1      38.667 -15.064  -2.796  1.00  0.00     0.002 A 
HETATM   16  C   UNL     1      39.469 -14.886  -1.665  1.00  0.00     0.011 A 
HETATM   17  H   UNL     1      38.694 -11.023  -0.079  1.00  0.00     0.189 HD
ENDBRANCH   7   8
ENDBRANCH   4   7
BRANCH   1  18
HETATM   18  C   UNL     1      42.821 -13.667   4.584  1.00  0.00     0.064 A 
HETATM   19  C   UNL     1      43.135 -14.319   5.802  1.00  0.00     0.097 A 
HETATM   20  C   UNL     1      43.939 -13.688   6.765  1.00  0.00     0.081 A 
HETATM   21  C   UNL     1      44.392 -12.394   6.554  1.00  0.00     0.119 A 
HETATM   22  C   UNL     1      44.069 -11.710   5.397  1.00  0.00     0.044 A 
HETATM   23  F   UNL     1      45.154 -11.803   7.483  1.00  0.00    -0.206 F 
HETATM   24  C   UNL     1      43.292 -12.344   4.427  1.00  0.00     0.035 A 
BRANCH  19  25
HETATM   25  O   UNL     1      42.730 -15.619   5.999  1.00  0.00    -0.354 OA
HETATM   26  C   UNL     1      41.647 -15.756   6.916  1.00  0.00     0.210 C 
ENDBRANCH  19  25
ENDBRANCH   1  18
TORSDOF 4
ENDMDL
MODEL 9
REMARK VINA RESULT:      -7.3      5.133      8.122
REMARK  4 active torsions:
REMARK  status: ('A' for Active; 'I' for Inactive)
REMARK    1  A    between atoms: O_2  and  C_3 
REMARK    2  A    between atoms: C_4  and  N_5 
REMARK    3  A    between atoms: N_8  and  C_9 
REMARK    4  A    between atoms: C_9  and  C_10 
ROOT
HETATM    1  N   UNL     1      42.661 -11.446   5.750  1.00  0.00    -0.375 N 
HETATM    2  C   UNL     1      41.250 -11.747   6.051  1.00  0.00     0.153 C 
HETATM    3  C   UNL     1      40.502 -12.157   4.757  1.00  0.00     0.292 C 
HETATM    4  N   UNL     1      41.108 -13.278   3.992  1.00  0.00     0.095 N 
HETATM    5  C   UNL     1      42.544 -12.954   3.776  1.00  0.00     0.292 C 
HETATM    6  C   UNL     1      43.345 -12.549   5.038  1.00  0.00     0.153 C 
ENDROOT
BRANCH   4   7
HETATM    7  C   UNL     1      40.935 -14.558   4.709  1.00  0.00     0.313 C 
BRANCH   7   8
HETATM    8  C   UNL     1      41.681 -15.711   4.071  1.00  0.00    -0.001 A 
HETATM    9  C   UNL     1      42.780 -16.362   4.659  1.00  0.00     0.070 A 
HETATM   10  C   UNL     1      43.485 -17.396   4.061  1.00  0.00     0.012 A 
HETATM   11  N   UNL     1      43.378 -16.179   5.881  1.00  0.00    -0.277 N 
HETATM   12  C   UNL     1      44.477 -17.743   5.006  1.00  0.00     0.152 A 
HETATM   13  C   UNL     1      43.105 -17.836   2.783  1.00  0.00     0.015 A 
HETATM   14  N   UNL     1      44.417 -17.003   6.117  1.00  0.00    -0.186 NA
HETATM   15  C   UNL     1      42.025 -17.205   2.153  1.00  0.00     0.002 A 
HETATM   16  C   UNL     1      41.336 -16.164   2.782  1.00  0.00     0.011 A 
HETATM   17  H   UNL     1      43.086 -15.521   6.598  1.00  0.00     0.189 HD
ENDBRANCH   7   8
ENDBRANCH   4   7
BRANCH   1  18
HETATM   18  C   UNL     1      43.462 -10.810   6.718  1.00  0.00     0.064 A 
HETATM   19  C   UNL     1      43.145  -9.615   7.411  1.00  0.00     0.097 A 
HETATM   20  C   UNL     1      44.020  -9.095   8.378  1.00  0.00     0.081 A 
HETATM   21  C   UNL     1      45.233  -9.721   8.628  1.00  0.00     0.119 A 
HETATM   22  C   UNL     1      45.597 -10.862   7.939  1.00  0.00     0.044 A 
HETATM   23  F   UNL     1      46.061  -9.211   9.549  1.00  0.00    -0.206 F 
HETATM   24  C   UNL     1      44.718 -11.396   6.995  1.00  0.00     0.035 A 
BRANCH  19  25
HETATM   25  O   UNL     1      41.925  -9.016   7.205  1.00  0.00    -0.354 OA
HETATM   26  C   UNL     1      41.220  -8.709   8.406  1.00  0.00     0.210 C 
ENDBRANCH  19  25
ENDBRANCH   1  18
TORSDOF 4
ENDMDL
MODEL 10
REMARK VINA RESULT:      -7.3      4.690      8.234
REMARK  4 active torsions:
REMARK  status: ('A' for Active; 'I' for Inactive)
REMARK    1  A    between atoms: O_2  and  C_3 
REMARK    2  A    between atoms: C_4  and  N_5 
REMARK    3  A    between atoms: N_8  and  C_9 
REMARK    4  A    between atoms: C_9  and  C_10 
ROOT
HETATM    1  N   UNL     1      41.348 -13.840   6.057  1.00  0.00    -0.375 N 
HETATM    2  C   UNL     1      42.641 -13.938   6.757  1.00  0.00     0.153 C 
HETATM    3  C   UNL     1      42.822 -15.357   7.354  1.00  0.00     0.292 C 
HETATM    4  N   UNL     1      42.677 -16.482   6.393  1.00  0.00     0.095 N 
HETATM    5  C   UNL     1      41.391 -16.296   5.669  1.00  0.00     0.292 C 
HETATM    6  C   UNL     1      41.162 -14.900   5.040  1.00  0.00     0.153 C 
ENDROOT
BRANCH   4   7
HETATM    7  C   UNL     1      43.827 -16.533   5.468  1.00  0.00     0.313 C 
BRANCH   7   8
HETATM    8  C   UNL     1      43.644 -17.521   4.334  1.00  0.00    -0.001 A 
HETATM    9  C   UNL     1      43.812 -18.910   4.463  1.00  0.00     0.070 A 
HETATM   10  C   UNL     1      43.677 -19.812   3.418  1.00  0.00     0.012 A 
HETATM   11  N   UNL     1      44.103 -19.678   5.564  1.00  0.00    -0.277 N 
HETATM   12  C   UNL     1      43.916 -21.076   4.006  1.00  0.00     0.152 A 
HETATM   13  C   UNL     1      43.363 -19.334   2.136  1.00  0.00     0.015 A 
HETATM   14  N   UNL     1      44.178 -20.998   5.314  1.00  0.00    -0.186 NA
HETATM   15  C   UNL     1      43.203 -17.955   1.958  1.00  0.00     0.002 A 
HETATM   16  C   UNL     1      43.347 -17.071   3.032  1.00  0.00     0.011 A 
HETATM   17  H   UNL     1      44.228 -19.338   6.513  1.00  0.00     0.189 HD
ENDBRANCH   7   8
ENDBRANCH   4   7
BRANCH   1  18
HETATM   18  C   UNL     1      40.860 -12.579   5.661  1.00  0.00     0.064 A 
HETATM   19  C   UNL     1      41.526 -11.653   4.820  1.00  0.00     0.097 A 
HETATM   20  C   UNL     1      40.917 -10.436   4.474  1.00  0.00     0.081 A 
HETATM   21  C   UNL     1      39.676 -10.104   4.998  1.00  0.00     0.119 A 
HETATM   22  C   UNL     1      39.017 -10.962   5.858  1.00  0.00     0.044 A 
HETATM   23  F   UNL     1      39.110  -8.937   4.664  1.00  0.00    -0.206 F 
HETATM   24  C   UNL     1      39.607 -12.184   6.183  1.00  0.00     0.035 A 
BRANCH  19  25
HETATM   25  O   UNL     1      42.733 -11.995   4.259  1.00  0.00    -0.354 OA
HETATM   26  C   UNL     1      42.813 -11.743   2.857  1.00  0.00     0.210 C 
ENDBRANCH  19  25
ENDBRANCH   1  18
TORSDOF 4
ENDMDL
