MODEL 1
REMARK VINA RESULT:      -8.9      0.000      0.000
REMARK  10 active torsions:
REMARK  status: ('A' for Active; 'I' for Inactive)
REMARK    1  A    between atoms: C_2  and  N_3 
REMARK    2  A    between atoms: N_3  and  C_4 
REMARK    3  A    between atoms: N_3  and  C_37 
REMARK    4  A    between atoms: C_7  and  C_8 
REMARK    5  A    between atoms: N_9  and  C_11 
REMARK    6  A    between atoms: C_11  and  C_12 
REMARK       I    between atoms: C_12  and  N_13 
REMARK    7  A    between atoms: N_13  and  C_14 
REMARK    8  A    between atoms: C_20  and  C_21 
REMARK    9  A    between atoms: C_21  and  O_22 
REMARK   10  A    between atoms: C_28  and  O_29 
ROOT
HETATM    1  C   UNL     1      42.929 -16.773   3.732  1.00  0.00     0.228 C 
HETATM    2  N   UNL     1      42.599 -16.265   5.138  1.00  0.00    -0.054 N 
HETATM    3  H   UNL     1      42.982 -15.314   5.097  1.00  0.00     0.281 HD
HETATM    4  C   UNL     1      43.423 -16.921   6.218  1.00  0.00     0.239 C 
HETATM    5  C   UNL     1      43.484 -18.437   6.122  1.00  0.00     0.066 C 
HETATM    6  C   UNL     1      43.850 -18.917   4.720  1.00  0.00     0.065 C 
HETATM    7  C   UNL     1      42.901 -18.316   3.660  1.00  0.00     0.055 C 
HETATM    8  C   UNL     1      43.841 -20.456   4.652  1.00  0.00     0.038 C 
HETATM    9  C   UNL     1      44.191 -20.970   3.256  1.00  0.00     0.003 C 
HETATM   10  C   UNL     1      43.291 -20.358   2.192  1.00  0.00     0.001 C 
HETATM   11  C   UNL     1      43.292 -18.834   2.255  1.00  0.00     0.010 C 
ENDROOT
BRANCH   2  12
HETATM   12  C   UNL     1      41.140 -15.984   5.518  1.00  0.00     0.338 C 
BRANCH  12  13
HETATM   13  C   UNL     1      40.680 -14.539   5.734  1.00  0.00     0.248 C 
HETATM   14  N   UNL     1      41.367 -13.644   4.934  1.00  0.00    -0.319 N 
HETATM   15  H   UNL     1      42.291 -13.877   4.588  1.00  0.00     0.169 HD
HETATM   16  O   UNL     1      39.848 -14.237   6.580  1.00  0.00    -0.271 OA
BRANCH  14  17
HETATM   17  C   UNL     1      41.042 -12.308   4.806  1.00  0.00     0.094 A 
HETATM   18  S   UNL     1      39.623 -12.122   3.890  1.00  0.00    -0.076 SA
HETATM   19  C   UNL     1      39.711 -10.422   3.960  1.00  0.00    -0.012 A 
HETATM   20  C   UNL     1      38.677  -9.607   3.252  1.00  0.00     0.057 C 
HETATM   21  C   UNL     1      40.761  -9.990   4.757  1.00  0.00    -0.030 A 
HETATM   22  C   UNL     1      41.011  -8.553   5.106  1.00  0.00     0.050 C 
HETATM   23  C   UNL     1      41.561 -11.109   5.255  1.00  0.00     0.080 A 
BRANCH  23  24
HETATM   24  C   UNL     1      42.680 -10.983   6.192  1.00  0.00     0.296 C 
HETATM   25  O   UNL     1      42.586 -10.414   7.274  1.00  0.00    -0.259 OA
BRANCH  24  26
HETATM   26  O   UNL     1      43.838 -11.511   5.705  1.00  0.00    -0.322 OA
HETATM   27  C   UNL     1      44.625 -12.186   6.685  1.00  0.00     0.213 C 
ENDBRANCH  24  26
ENDBRANCH  23  24
ENDBRANCH  14  17
ENDBRANCH  12  13
ENDBRANCH   2  12
BRANCH   1  28
HETATM   28  C   UNL     1      42.187 -16.053   2.619  1.00  0.00    -0.027 A 
HETATM   29  C   UNL     1      40.903 -16.465   2.247  1.00  0.00     0.011 A 
HETATM   30  C   UNL     1      40.128 -15.700   1.358  1.00  0.00     0.030 A 
HETATM   31  C   UNL     1      40.586 -14.501   0.791  1.00  0.00     0.030 A 
HETATM   32  C   UNL     1      41.914 -14.168   1.095  1.00  0.00     0.030 A 
HETATM   33  C   UNL     1      42.687 -14.906   2.001  1.00  0.00     0.011 A 
BRANCH  31  34
HETATM   34  N   UNL     1      39.789 -13.686  -0.009  1.00  0.00    -0.382 N 
BRANCH  34  35
HETATM   35  C   UNL     1      39.233 -14.199  -1.275  1.00  0.00     0.118 C 
HETATM   36  C   UNL     1      40.152 -13.856  -2.436  1.00  0.00     0.026 C 
ENDBRANCH  34  35
BRANCH  34  37
HETATM   37  C   UNL     1      39.786 -12.221   0.129  1.00  0.00     0.118 C 
HETATM   38  C   UNL     1      38.371 -11.664   0.087  1.00  0.00     0.026 C 
ENDBRANCH  34  37
ENDBRANCH  31  34
ENDBRANCH   1  28
BRANCH   6  39
HETATM   39  O   UNL     1      45.177 -18.433   4.462  1.00  0.00    -0.389 OA
HETATM   40  H   UNL     1      45.287 -18.311   3.499  1.00  0.00     0.210 HD
ENDBRANCH   6  39
TORSDOF 10
ENDMDL
MODEL 2
REMARK VINA RESULT:      -8.6      1.524      2.486
REMARK  10 active torsions:
REMARK  status: ('A' for Active; 'I' for Inactive)
REMARK    1  A    between atoms: C_2  and  N_3 
REMARK    2  A    between atoms: N_3  and  C_4 
REMARK    3  A    between atoms: N_3  and  C_37 
REMARK    4  A    between atoms: C_7  and  C_8 
REMARK    5  A    between atoms: N_9  and  C_11 
REMARK    6  A    between atoms: C_11  and  C_12 
REMARK       I    between atoms: C_12  and  N_13 
REMARK    7  A    between atoms: N_13  and  C_14 
REMARK    8  A    between atoms: C_20  and  C_21 
REMARK    9  A    between atoms: C_21  and  O_22 
REMARK   10  A    between atoms: C_28  and  O_29 
ROOT
HETATM    1  C   UNL     1      42.989 -16.586   3.724  1.00  0.00     0.228 C 
HETATM    2  N   UNL     1      42.854 -16.095   5.168  1.00  0.00    -0.054 N 
HETATM    3  H   UNL     1      43.274 -15.161   5.095  1.00  0.00     0.281 HD
HETATM    4  C   UNL     1      43.771 -16.809   6.129  1.00  0.00     0.239 C 
HETATM    5  C   UNL     1      43.749 -18.324   6.003  1.00  0.00     0.066 C 
HETATM    6  C   UNL     1      43.922 -18.790   4.559  1.00  0.00     0.065 C 
HETATM    7  C   UNL     1      42.881 -18.125   3.632  1.00  0.00     0.055 C 
HETATM    8  C   UNL     1      43.832 -20.325   4.468  1.00  0.00     0.038 C 
HETATM    9  C   UNL     1      43.987 -20.825   3.032  1.00  0.00     0.003 C 
HETATM   10  C   UNL     1      42.995 -20.150   2.095  1.00  0.00     0.001 C 
HETATM   11  C   UNL     1      43.075 -18.629   2.181  1.00  0.00     0.010 C 
ENDROOT
BRANCH   2  12
HETATM   12  C   UNL     1      41.467 -15.757   5.725  1.00  0.00     0.338 C 
BRANCH  12  13
HETATM   13  C   UNL     1      41.137 -14.311   6.108  1.00  0.00     0.248 C 
HETATM   14  N   UNL     1      42.215 -13.463   5.934  1.00  0.00    -0.319 N 
HETATM   15  H   UNL     1      43.160 -13.831   5.953  1.00  0.00     0.169 HD
HETATM   16  O   UNL     1      40.053 -13.991   6.581  1.00  0.00    -0.271 OA
BRANCH  14  17
HETATM   17  C   UNL     1      42.148 -12.088   6.044  1.00  0.00     0.094 A 
HETATM   18  S   UNL     1      43.250 -11.526   7.209  1.00  0.00    -0.076 SA
HETATM   19  C   UNL     1      42.739  -9.912   7.022  1.00  0.00    -0.012 A 
HETATM   20  C   UNL     1      43.357  -8.846   7.870  1.00  0.00     0.057 C 
HETATM   21  C   UNL     1      41.800  -9.779   6.010  1.00  0.00    -0.030 A 
HETATM   22  C   UNL     1      41.262  -8.462   5.533  1.00  0.00     0.050 C 
HETATM   23  C   UNL     1      41.438 -11.073   5.431  1.00  0.00     0.080 A 
BRANCH  23  24
HETATM   24  C   UNL     1      40.543 -11.255   4.287  1.00  0.00     0.296 C 
HETATM   25  O   UNL     1      39.339 -11.025   4.335  1.00  0.00    -0.259 OA
BRANCH  24  26
HETATM   26  O   UNL     1      41.181 -11.759   3.193  1.00  0.00    -0.322 OA
HETATM   27  C   UNL     1      41.944 -10.794   2.469  1.00  0.00     0.213 C 
ENDBRANCH  24  26
ENDBRANCH  23  24
ENDBRANCH  14  17
ENDBRANCH  12  13
ENDBRANCH   2  12
BRANCH   1  28
HETATM   28  C   UNL     1      42.153 -15.810   2.720  1.00  0.00    -0.027 A 
HETATM   29  C   UNL     1      42.721 -14.758   1.995  1.00  0.00     0.011 A 
HETATM   30  C   UNL     1      42.027 -14.155   0.933  1.00  0.00     0.030 A 
HETATM   31  C   UNL     1      40.740 -14.557   0.542  1.00  0.00     0.030 A 
HETATM   32  C   UNL     1      40.152 -15.539   1.353  1.00  0.00     0.030 A 
HETATM   33  C   UNL     1      40.844 -16.167   2.397  1.00  0.00     0.011 A 
BRANCH  31  34
HETATM   34  N   UNL     1      40.087 -14.036  -0.572  1.00  0.00    -0.382 N 
BRANCH  34  35
HETATM   35  C   UNL     1      39.831 -12.587  -0.675  1.00  0.00     0.118 C 
HETATM   36  C   UNL     1      38.908 -12.130   0.443  1.00  0.00     0.026 C 
ENDBRANCH  34  35
BRANCH  34  37
HETATM   37  C   UNL     1      39.285 -14.881  -1.471  1.00  0.00     0.118 C 
HETATM   38  C   UNL     1      38.989 -14.168  -2.782  1.00  0.00     0.026 C 
ENDBRANCH  34  37
ENDBRANCH  31  34
ENDBRANCH   1  28
BRANCH   6  39
HETATM   39  O   UNL     1      45.229 -18.360   4.149  1.00  0.00    -0.389 OA
HETATM   40  H   UNL     1      45.782 -19.147   3.979  1.00  0.00     0.210 HD
ENDBRANCH   6  39
TORSDOF 10
ENDMDL
MODEL 3
REMARK VINA RESULT:      -8.5      2.276      6.425
REMARK  10 active torsions:
REMARK  status: ('A' for Active; 'I' for Inactive)
REMARK    1  A    between atoms: C_2  and  N_3 
REMARK    2  A    between atoms: N_3  and  C_4 
REMARK    3  A    between atoms: N_3  and  C_37 
REMARK    4  A    between atoms: C_7  and  C_8 
REMARK    5  A    between atoms: N_9  and  C_11 
REMARK    6  A    between atoms: C_11  and  C_12 
REMARK       I    between atoms: C_12  and  N_13 
REMARK    7  A    between atoms: N_13  and  C_14 
REMARK    8  A    between atoms: C_20  and  C_21 
REMARK    9  A    between atoms: C_21  and  O_22 
REMARK   10  A    between atoms: C_28  and  O_29 
ROOT
HETATM    1  C   UNL     1      39.977 -13.518   1.320  1.00  0.00     0.228 C 
HETATM    2  N   UNL     1      40.039 -12.302   2.247  1.00  0.00    -0.054 N 
HETATM    3  H   UNL     1      39.567 -12.668   3.081  1.00  0.00     0.281 HD
HETATM    4  C   UNL     1      39.138 -11.174   1.810  1.00  0.00     0.239 C 
HETATM    5  C   UNL     1      39.254 -10.816   0.337  1.00  0.00     0.066 C 
HETATM    6  C   UNL     1      39.153 -12.042  -0.568  1.00  0.00     0.065 C 
HETATM    7  C   UNL     1      40.179 -13.121  -0.160  1.00  0.00     0.055 C 
HETATM    8  C   UNL     1      39.336 -11.645  -2.045  1.00  0.00     0.038 C 
HETATM    9  C   UNL     1      39.254 -12.853  -2.978  1.00  0.00     0.003 C 
HETATM   10  C   UNL     1      40.232 -13.944  -2.567  1.00  0.00     0.001 C 
HETATM   11  C   UNL     1      40.059 -14.342  -1.105  1.00  0.00     0.010 C 
ENDROOT
BRANCH   2  12
HETATM   12  C   UNL     1      41.387 -11.865   2.833  1.00  0.00     0.338 C 
BRANCH  12  13
HETATM   13  C   UNL     1      41.560 -11.784   4.352  1.00  0.00     0.248 C 
HETATM   14  N   UNL     1      42.434 -10.781   4.729  1.00  0.00    -0.319 N 
HETATM   15  H   UNL     1      43.142 -10.454   4.080  1.00  0.00     0.169 HD
HETATM   16  O   UNL     1      41.027 -12.581   5.115  1.00  0.00    -0.271 OA
BRANCH  14  17
HETATM   17  C   UNL     1      42.645 -10.383   6.034  1.00  0.00     0.094 A 
HETATM   18  S   UNL     1      41.553  -9.155   6.467  1.00  0.00    -0.076 SA
HETATM   19  C   UNL     1      42.245  -8.984   8.015  1.00  0.00    -0.012 A 
HETATM   20  C   UNL     1      41.704  -7.946   8.947  1.00  0.00     0.057 C 
HETATM   21  C   UNL     1      43.241  -9.921   8.244  1.00  0.00    -0.030 A 
HETATM   22  C   UNL     1      43.942 -10.095   9.559  1.00  0.00     0.050 C 
HETATM   23  C   UNL     1      43.489 -10.749   7.064  1.00  0.00     0.080 A 
BRANCH  23  24
HETATM   24  C   UNL     1      44.415 -11.883   7.020  1.00  0.00     0.296 C 
HETATM   25  O   UNL     1      45.537 -11.812   6.529  1.00  0.00    -0.259 OA
BRANCH  24  26
HETATM   26  O   UNL     1      43.874 -13.026   7.526  1.00  0.00    -0.322 OA
HETATM   27  C   UNL     1      43.740 -14.078   6.570  1.00  0.00     0.213 C 
ENDBRANCH  24  26
ENDBRANCH  23  24
ENDBRANCH  14  17
ENDBRANCH  12  13
ENDBRANCH   2  12
BRANCH   1  28
HETATM   28  C   UNL     1      40.795 -14.707   1.796  1.00  0.00    -0.027 A 
HETATM   29  C   UNL     1      42.079 -14.929   1.285  1.00  0.00     0.011 A 
HETATM   30  C   UNL     1      42.921 -15.904   1.846  1.00  0.00     0.030 A 
HETATM   31  C   UNL     1      42.534 -16.708   2.929  1.00  0.00     0.030 A 
HETATM   32  C   UNL     1      41.207 -16.541   3.350  1.00  0.00     0.030 A 
HETATM   33  C   UNL     1      40.367 -15.554   2.818  1.00  0.00     0.011 A 
BRANCH  31  34
HETATM   34  N   UNL     1      43.396 -17.604   3.555  1.00  0.00    -0.382 N 
BRANCH  34  35
HETATM   35  C   UNL     1      43.969 -17.287   4.877  1.00  0.00     0.118 C 
HETATM   36  C   UNL     1      43.578 -18.347   5.894  1.00  0.00     0.026 C 
ENDBRANCH  34  35
BRANCH  34  37
HETATM   37  C   UNL     1      44.086 -18.671   2.813  1.00  0.00     0.118 C 
HETATM   38  C   UNL     1      43.095 -19.653   2.206  1.00  0.00     0.026 C 
ENDBRANCH  34  37
ENDBRANCH  31  34
ENDBRANCH   1  28
BRANCH   6  39
HETATM   39  O   UNL     1      37.835 -12.579  -0.375  1.00  0.00    -0.389 OA
HETATM   40  H   UNL     1      37.567 -12.432   0.552  1.00  0.00     0.210 HD
ENDBRANCH   6  39
TORSDOF 10
ENDMDL
MODEL 4
REMARK VINA RESULT:      -8.1      2.558      6.546
REMARK  10 active torsions:
REMARK  status: ('A' for Active; 'I' for Inactive)
REMARK    1  A    between atoms: C_2  and  N_3 
REMARK    2  A    between atoms: N_3  and  C_4 
REMARK    3  A    between atoms: N_3  and  C_37 
REMARK    4  A    between atoms: C_7  and  C_8 
REMARK    5  A    between atoms: N_9  and  C_11 
REMARK    6  A    between atoms: C_11  and  C_12 
REMARK       I    between atoms: C_12  and  N_13 
REMARK    7  A    between atoms: N_13  and  C_14 
REMARK    8  A    between atoms: C_20  and  C_21 
REMARK    9  A    between atoms: C_21  and  O_22 
REMARK   10  A    between atoms: C_28  and  O_29 
ROOT
HETATM    1  C   UNL     1      40.183 -13.530   1.319  1.00  0.00     0.228 C 
HETATM    2  N   UNL     1      40.405 -12.274   2.166  1.00  0.00    -0.054 N 
HETATM    3  H   UNL     1      40.010 -12.572   3.064  1.00  0.00     0.281 HD
HETATM    4  C   UNL     1      39.518 -11.122   1.766  1.00  0.00     0.239 C 
HETATM    5  C   UNL     1      39.489 -10.845   0.272  1.00  0.00     0.066 C 
HETATM    6  C   UNL     1      39.230 -12.107  -0.549  1.00  0.00     0.065 C 
HETATM    7  C   UNL     1      40.241 -13.218  -0.193  1.00  0.00     0.055 C 
HETATM    8  C   UNL     1      39.270 -11.794  -2.056  1.00  0.00     0.038 C 
HETATM    9  C   UNL     1      39.028 -13.040  -2.907  1.00  0.00     0.003 C 
HETATM   10  C   UNL     1      39.990 -14.161  -2.544  1.00  0.00     0.001 C 
HETATM   11  C   UNL     1      39.959 -14.476  -1.051  1.00  0.00     0.010 C 
ENDROOT
BRANCH   2  12
HETATM   12  C   UNL     1      41.828 -11.883   2.580  1.00  0.00     0.338 C 
BRANCH  12  13
HETATM   13  C   UNL     1      42.036 -10.917   3.750  1.00  0.00     0.248 C 
HETATM   14  N   UNL     1      42.249 -11.578   4.946  1.00  0.00    -0.319 N 
HETATM   15  H   UNL     1      41.904 -12.524   5.072  1.00  0.00     0.169 HD
HETATM   16  O   UNL     1      41.944  -9.702   3.620  1.00  0.00    -0.271 OA
BRANCH  14  17
HETATM   17  C   UNL     1      42.627 -10.959   6.120  1.00  0.00     0.094 A 
HETATM   18  S   UNL     1      44.261 -11.271   6.463  1.00  0.00    -0.076 SA
HETATM   19  C   UNL     1      44.193 -10.418   7.935  1.00  0.00    -0.012 A 
HETATM   20  C   UNL     1      45.412 -10.352   8.800  1.00  0.00     0.057 C 
HETATM   21  C   UNL     1      42.960  -9.812   8.127  1.00  0.00    -0.030 A 
HETATM   22  C   UNL     1      42.647  -8.892   9.270  1.00  0.00     0.050 C 
HETATM   23  C   UNL     1      42.022 -10.139   7.054  1.00  0.00     0.080 A 
BRANCH  23  24
HETATM   24  C   UNL     1      40.674  -9.582   6.925  1.00  0.00     0.296 C 
HETATM   25  O   UNL     1      40.452  -8.461   6.481  1.00  0.00    -0.259 OA
BRANCH  24  26
HETATM   26  O   UNL     1      39.709 -10.418   7.403  1.00  0.00    -0.322 OA
HETATM   27  C   UNL     1      38.865 -10.968   6.393  1.00  0.00     0.213 C 
ENDBRANCH  24  26
ENDBRANCH  23  24
ENDBRANCH  14  17
ENDBRANCH  12  13
ENDBRANCH   2  12
BRANCH   1  28
HETATM   28  C   UNL     1      40.989 -14.736   1.770  1.00  0.00    -0.027 A 
HETATM   29  C   UNL     1      42.283 -14.942   1.279  1.00  0.00     0.011 A 
HETATM   30  C   UNL     1      43.113 -15.938   1.822  1.00  0.00     0.030 A 
HETATM   31  C   UNL     1      42.702 -16.779   2.868  1.00  0.00     0.030 A 
HETATM   32  C   UNL     1      41.366 -16.625   3.267  1.00  0.00     0.030 A 
HETATM   33  C   UNL     1      40.539 -15.618   2.753  1.00  0.00     0.011 A 
BRANCH  31  34
HETATM   34  N   UNL     1      43.550 -17.698   3.480  1.00  0.00    -0.382 N 
BRANCH  34  35
HETATM   35  C   UNL     1      44.162 -18.786   2.694  1.00  0.00     0.118 C 
HETATM   36  C   UNL     1      43.093 -19.734   2.176  1.00  0.00     0.026 C 
ENDBRANCH  34  35
BRANCH  34  37
HETATM   37  C   UNL     1      43.566 -17.893   4.939  1.00  0.00     0.118 C 
HETATM   38  C   UNL     1      44.317 -16.771   5.639  1.00  0.00     0.026 C 
ENDBRANCH  34  37
ENDBRANCH  31  34
ENDBRANCH   1  28
BRANCH   6  39
HETATM   39  O   UNL     1      37.916 -12.561  -0.187  1.00  0.00    -0.389 OA
HETATM   40  H   UNL     1      37.988 -13.449   0.212  1.00  0.00     0.210 HD
ENDBRANCH   6  39
TORSDOF 10
ENDMDL
MODEL 5
REMARK VINA RESULT:      -7.7      2.692      8.679
REMARK  10 active torsions:
REMARK  status: ('A' for Active; 'I' for Inactive)
REMARK    1  A    between atoms: C_2  and  N_3 
REMARK    2  A    between atoms: N_3  and  C_4 
REMARK    3  A    between atoms: N_3  and  C_37 
REMARK    4  A    between atoms: C_7  and  C_8 
REMARK    5  A    between atoms: N_9  and  C_11 
REMARK    6  A    between atoms: C_11  and  C_12 
REMARK       I    between atoms: C_12  and  N_13 
REMARK    7  A    between atoms: N_13  and  C_14 
REMARK    8  A    between atoms: C_20  and  C_21 
REMARK    9  A    between atoms: C_21  and  O_22 
REMARK   10  A    between atoms: C_28  and  O_29 
ROOT
HETATM    1  C   UNL     1      42.115 -11.307   3.469  1.00  0.00     0.228 C 
HETATM    2  N   UNL     1      41.714 -12.703   2.985  1.00  0.00    -0.054 N 
HETATM    3  H   UNL     1      42.615 -13.193   3.034  1.00  0.00     0.281 HD
HETATM    4  C   UNL     1      41.377 -12.751   1.516  1.00  0.00     0.239 C 
HETATM    5  C   UNL     1      40.427 -11.657   1.057  1.00  0.00     0.066 C 
HETATM    6  C   UNL     1      40.868 -10.271   1.521  1.00  0.00     0.065 C 
HETATM    7  C   UNL     1      41.082 -10.237   3.050  1.00  0.00     0.055 C 
HETATM    8  C   UNL     1      39.847  -9.201   1.089  1.00  0.00     0.038 C 
HETATM    9  C   UNL     1      40.253  -7.802   1.550  1.00  0.00     0.003 C 
HETATM   10  C   UNL     1      40.506  -7.759   3.050  1.00  0.00     0.001 C 
HETATM   11  C   UNL     1      41.515  -8.817   3.487  1.00  0.00     0.010 C 
ENDROOT
BRANCH   2  12
HETATM   12  C   UNL     1      40.841 -13.591   3.879  1.00  0.00     0.338 C 
BRANCH  12  13
HETATM   13  C   UNL     1      41.086 -15.103   3.913  1.00  0.00     0.248 C 
HETATM   14  N   UNL     1      42.376 -15.435   3.543  1.00  0.00    -0.319 N 
HETATM   15  H   UNL     1      42.913 -14.807   2.953  1.00  0.00     0.169 HD
HETATM   16  O   UNL     1      40.196 -15.904   4.173  1.00  0.00    -0.271 OA
BRANCH  14  17
HETATM   17  C   UNL     1      42.913 -16.703   3.644  1.00  0.00     0.094 A 
HETATM   18  S   UNL     1      42.861 -17.496   2.142  1.00  0.00    -0.076 SA
HETATM   19  C   UNL     1      43.512 -18.930   2.794  1.00  0.00    -0.012 A 
HETATM   20  C   UNL     1      43.694 -20.119   1.905  1.00  0.00     0.057 C 
HETATM   21  C   UNL     1      43.860 -18.782   4.128  1.00  0.00    -0.030 A 
HETATM   22  C   UNL     1      44.569 -19.832   4.930  1.00  0.00     0.050 C 
HETATM   23  C   UNL     1      43.496 -17.461   4.641  1.00  0.00     0.080 A 
BRANCH  23  24
HETATM   24  C   UNL     1      43.814 -16.971   5.984  1.00  0.00     0.296 C 
HETATM   25  O   UNL     1      44.931 -16.585   6.309  1.00  0.00    -0.259 OA
BRANCH  24  26
HETATM   26  O   UNL     1      42.754 -17.046   6.837  1.00  0.00    -0.322 OA
HETATM   27  C   UNL     1      42.401 -15.800   7.437  1.00  0.00     0.213 C 
ENDBRANCH  24  26
ENDBRANCH  23  24
ENDBRANCH  14  17
ENDBRANCH  12  13
ENDBRANCH   2  12
BRANCH   1  28
HETATM   28  C   UNL     1      42.561 -11.254   4.920  1.00  0.00    -0.027 A 
HETATM   29  C   UNL     1      43.795 -11.794   5.298  1.00  0.00     0.011 A 
HETATM   30  C   UNL     1      44.308 -11.588   6.590  1.00  0.00     0.030 A 
HETATM   31  C   UNL     1      43.626 -10.847   7.568  1.00  0.00     0.030 A 
HETATM   32  C   UNL     1      42.346 -10.410   7.199  1.00  0.00     0.030 A 
HETATM   33  C   UNL     1      41.835 -10.585   5.905  1.00  0.00     0.011 A 
BRANCH  31  34
HETATM   34  N   UNL     1      44.172 -10.552   8.814  1.00  0.00    -0.382 N 
BRANCH  34  35
HETATM   35  C   UNL     1      43.303 -10.112   9.923  1.00  0.00     0.118 C 
HETATM   36  C   UNL     1      43.987 -10.348  11.259  1.00  0.00     0.026 C 
ENDBRANCH  34  35
BRANCH  34  37
HETATM   37  C   UNL     1      45.606 -10.272   8.992  1.00  0.00     0.118 C 
HETATM   38  C   UNL     1      45.998  -8.957   8.335  1.00  0.00     0.026 C 
ENDBRANCH  34  37
ENDBRANCH  31  34
ENDBRANCH   1  28
BRANCH   6  39
HETATM   39  O   UNL     1      42.130 -10.015   0.885  1.00  0.00    -0.389 OA
HETATM   40  H   UNL     1      42.355 -10.774   0.313  1.00  0.00     0.210 HD
ENDBRANCH   6  39
TORSDOF 10
ENDMDL
MODEL 6
REMARK VINA RESULT:      -7.6      2.687      6.471
REMARK  10 active torsions:
REMARK  status: ('A' for Active; 'I' for Inactive)
REMARK    1  A    between atoms: C_2  and  N_3 
REMARK    2  A    between atoms: N_3  and  C_4 
REMARK    3  A    between atoms: N_3  and  C_37 
REMARK    4  A    between atoms: C_7  and  C_8 
REMARK    5  A    between atoms: N_9  and  C_11 
REMARK    6  A    between atoms: C_11  and  C_12 
REMARK       I    between atoms: C_12  and  N_13 
REMARK    7  A    between atoms: N_13  and  C_14 
REMARK    8  A    between atoms: C_20  and  C_21 
REMARK    9  A    between atoms: C_21  and  O_22 
REMARK   10  A    between atoms: C_28  and  O_29 
ROOT
HETATM    1  C   UNL     1      40.077 -12.879   3.129  1.00  0.00     0.228 C 
HETATM    2  N   UNL     1      40.112 -11.573   3.927  1.00  0.00    -0.054 N 
HETATM    3  H   UNL     1      39.762 -11.891   4.837  1.00  0.00     0.281 HD
HETATM    4  C   UNL     1      39.069 -10.577   3.486  1.00  0.00     0.239 C 
HETATM    5  C   UNL     1      39.005 -10.364   1.983  1.00  0.00     0.066 C 
HETATM    6  C   UNL     1      38.933 -11.680   1.211  1.00  0.00     0.065 C 
HETATM    7  C   UNL     1      40.093 -12.620   1.606  1.00  0.00     0.055 C 
HETATM    8  C   UNL     1      38.932 -11.422  -0.307  1.00  0.00     0.038 C 
HETATM    9  C   UNL     1      38.875 -12.721  -1.110  1.00  0.00     0.003 C 
HETATM   10  C   UNL     1      39.987 -13.677  -0.706  1.00  0.00     0.001 C 
HETATM   11  C   UNL     1      39.998 -13.936   0.797  1.00  0.00     0.010 C 
ENDROOT
BRANCH   2  12
HETATM   12  C   UNL     1      41.463 -10.965   4.322  1.00  0.00     0.338 C 
BRANCH  12  13
HETATM   13  C   UNL     1      41.919 -11.021   5.783  1.00  0.00     0.248 C 
HETATM   14  N   UNL     1      42.141  -9.763   6.312  1.00  0.00    -0.319 N 
HETATM   15  H   UNL     1      42.363  -8.986   5.700  1.00  0.00     0.169 HD
HETATM   16  O   UNL     1      42.125 -12.079   6.364  1.00  0.00    -0.271 OA
BRANCH  14  17
HETATM   17  C   UNL     1      42.397  -9.515   7.646  1.00  0.00     0.094 A 
HETATM   18  S   UNL     1      40.952  -9.205   8.485  1.00  0.00    -0.076 SA
HETATM   19  C   UNL     1      41.777  -8.904   9.945  1.00  0.00    -0.012 A 
HETATM   20  C   UNL     1      40.996  -8.510  11.158  1.00  0.00     0.057 C 
HETATM   21  C   UNL     1      43.140  -9.131   9.827  1.00  0.00    -0.030 A 
HETATM   22  C   UNL     1      44.103  -9.069  10.976  1.00  0.00     0.050 C 
HETATM   23  C   UNL     1      43.515  -9.485   8.458  1.00  0.00     0.080 A 
BRANCH  23  24
HETATM   24  C   UNL     1      44.863  -9.870   8.034  1.00  0.00     0.296 C 
HETATM   25  O   UNL     1      45.823  -9.109   8.082  1.00  0.00    -0.259 OA
BRANCH  24  26
HETATM   26  O   UNL     1      44.917 -11.136   7.532  1.00  0.00    -0.322 OA
HETATM   27  C   UNL     1      45.950 -11.335   6.568  1.00  0.00     0.213 C 
ENDBRANCH  24  26
ENDBRANCH  23  24
ENDBRANCH  14  17
ENDBRANCH  12  13
ENDBRANCH   2  12
BRANCH   1  28
HETATM   28  C   UNL     1      41.047 -13.939   3.623  1.00  0.00    -0.027 A 
HETATM   29  C   UNL     1      40.590 -14.999   4.413  1.00  0.00     0.011 A 
HETATM   30  C   UNL     1      41.427 -16.085   4.720  1.00  0.00     0.030 A 
HETATM   31  C   UNL     1      42.753 -16.171   4.268  1.00  0.00     0.030 A 
HETATM   32  C   UNL     1      43.219 -15.047   3.572  1.00  0.00     0.030 A 
HETATM   33  C   UNL     1      42.386 -13.971   3.236  1.00  0.00     0.011 A 
BRANCH  31  34
HETATM   34  N   UNL     1      43.556 -17.288   4.481  1.00  0.00    -0.382 N 
BRANCH  34  35
HETATM   35  C   UNL     1      43.584 -18.385   3.495  1.00  0.00     0.118 C 
HETATM   36  C   UNL     1      43.125 -17.887   2.134  1.00  0.00     0.026 C 
ENDBRANCH  34  35
BRANCH  34  37
HETATM   37  C   UNL     1      44.080 -17.630   5.814  1.00  0.00     0.118 C 
HETATM   38  C   UNL     1      44.731 -16.427   6.478  1.00  0.00     0.026 C 
ENDBRANCH  34  37
ENDBRANCH  31  34
ENDBRANCH   1  28
BRANCH   6  39
HETATM   39  O   UNL     1      37.698 -12.304   1.593  1.00  0.00    -0.389 OA
HETATM   40  H   UNL     1      37.841 -13.268   1.668  1.00  0.00     0.210 HD
ENDBRANCH   6  39
TORSDOF 10
ENDMDL
MODEL 7
REMARK VINA RESULT:      -7.2      3.425      7.179
REMARK  10 active torsions:
REMARK  status: ('A' for Active; 'I' for Inactive)
REMARK    1  A    between atoms: C_2  and  N_3 
REMARK    2  A    between atoms: N_3  and  C_4 
REMARK    3  A    between atoms: N_3  and  C_37 
REMARK    4  A    between atoms: C_7  and  C_8 
REMARK    5  A    between atoms: N_9  and  C_11 
REMARK    6  A    between atoms: C_11  and  C_12 
REMARK       I    between atoms: C_12  and  N_13 
REMARK    7  A    between atoms: N_13  and  C_14 
REMARK    8  A    between atoms: C_20  and  C_21 
REMARK    9  A    between atoms: C_21  and  O_22 
REMARK   10  A    between atoms: C_28  and  O_29 
ROOT
HETATM    1  C   UNL     1      41.981 -13.690   5.009  1.00  0.00     0.228 C 
HETATM    2  N   UNL     1      41.339 -13.478   3.636  1.00  0.00    -0.054 N 
HETATM    3  H   UNL     1      40.513 -12.925   3.890  1.00  0.00     0.281 HD
HETATM    4  C   UNL     1      40.745 -14.737   3.055  1.00  0.00     0.239 C 
HETATM    5  C   UNL     1      41.665 -15.945   3.110  1.00  0.00     0.066 C 
HETATM    6  C   UNL     1      42.264 -16.157   4.499  1.00  0.00     0.065 C 
HETATM    7  C   UNL     1      42.970 -14.878   5.001  1.00  0.00     0.055 C 
HETATM    8  C   UNL     1      43.236 -17.351   4.497  1.00  0.00     0.038 C 
HETATM    9  C   UNL     1      43.865 -17.582   5.870  1.00  0.00     0.003 C 
HETATM   10  C   UNL     1      44.531 -16.321   6.400  1.00  0.00     0.001 C 
HETATM   11  C   UNL     1      43.576 -15.131   6.403  1.00  0.00     0.010 C 
ENDROOT
BRANCH   2  12
HETATM   12  C   UNL     1      42.017 -12.553   2.619  1.00  0.00     0.338 C 
BRANCH  12  13
HETATM   13  C   UNL     1      41.158 -11.648   1.729  1.00  0.00     0.248 C 
HETATM   14  N   UNL     1      41.648 -11.563   0.439  1.00  0.00    -0.319 N 
HETATM   15  H   UNL     1      42.630 -11.737   0.255  1.00  0.00     0.169 HD
HETATM   16  O   UNL     1      40.196 -11.027   2.164  1.00  0.00    -0.271 OA
BRANCH  14  17
HETATM   17  C   UNL     1      40.982 -10.954  -0.606  1.00  0.00     0.094 A 
HETATM   18  S   UNL     1      41.738  -9.491  -1.025  1.00  0.00    -0.076 SA
HETATM   19  C   UNL     1      40.564  -9.137  -2.208  1.00  0.00    -0.012 A 
HETATM   20  C   UNL     1      40.659  -7.854  -2.972  1.00  0.00     0.057 C 
HETATM   21  C   UNL     1      39.651 -10.170  -2.358  1.00  0.00    -0.030 A 
HETATM   22  C   UNL     1      38.581 -10.198  -3.409  1.00  0.00     0.050 C 
HETATM   23  C   UNL     1      39.890 -11.250  -1.400  1.00  0.00     0.080 A 
BRANCH  23  24
HETATM   24  C   UNL     1      39.153 -12.514  -1.366  1.00  0.00     0.296 C 
HETATM   25  O   UNL     1      37.945 -12.580  -1.170  1.00  0.00    -0.259 OA
BRANCH  24  26
HETATM   26  O   UNL     1      39.962 -13.601  -1.517  1.00  0.00    -0.322 OA
HETATM   27  C   UNL     1      39.808 -14.585  -0.495  1.00  0.00     0.213 C 
ENDBRANCH  24  26
ENDBRANCH  23  24
ENDBRANCH  14  17
ENDBRANCH  12  13
ENDBRANCH   2  12
BRANCH   1  28
HETATM   28  C   UNL     1      42.493 -12.417   5.661  1.00  0.00    -0.027 A 
HETATM   29  C   UNL     1      41.595 -11.499   6.216  1.00  0.00     0.011 A 
HETATM   30  C   UNL     1      42.051 -10.417   6.987  1.00  0.00     0.030 A 
HETATM   31  C   UNL     1      43.412 -10.187   7.240  1.00  0.00     0.030 A 
HETATM   32  C   UNL     1      44.295 -11.057   6.585  1.00  0.00     0.030 A 
HETATM   33  C   UNL     1      43.852 -12.156   5.836  1.00  0.00     0.011 A 
BRANCH  31  34
HETATM   34  N   UNL     1      43.867  -9.178   8.086  1.00  0.00    -0.382 N 
BRANCH  34  35
HETATM   35  C   UNL     1      45.289  -9.114   8.470  1.00  0.00     0.118 C 
HETATM   36  C   UNL     1      45.491  -9.699   9.858  1.00  0.00     0.026 C 
ENDBRANCH  34  35
BRANCH  34  37
HETATM   37  C   UNL     1      42.951  -8.402   8.938  1.00  0.00     0.118 C 
HETATM   38  C   UNL     1      43.312  -6.925   8.936  1.00  0.00     0.026 C 
ENDBRANCH  34  37
ENDBRANCH  31  34
ENDBRANCH   1  28
BRANCH   6  39
HETATM   39  O   UNL     1      41.162 -16.436   5.376  1.00  0.00    -0.389 OA
HETATM   40  H   UNL     1      40.345 -16.505   4.844  1.00  0.00     0.210 HD
ENDBRANCH   6  39
TORSDOF 10
ENDMDL
MODEL 8
REMARK VINA RESULT:      -7.1      3.127      7.032
REMARK  10 active torsions:
REMARK  status: ('A' for Active; 'I' for Inactive)
REMARK    1  A    between atoms: C_2  and  N_3 
REMARK    2  A    between atoms: N_3  and  C_4 
REMARK    3  A    between atoms: N_3  and  C_37 
REMARK    4  A    between atoms: C_7  and  C_8 
REMARK    5  A    between atoms: N_9  and  C_11 
REMARK    6  A    between atoms: C_11  and  C_12 
REMARK       I    between atoms: C_12  and  N_13 
REMARK    7  A    between atoms: N_13  and  C_14 
REMARK    8  A    between atoms: C_20  and  C_21 
REMARK    9  A    between atoms: C_21  and  O_22 
REMARK   10  A    between atoms: C_28  and  O_29 
ROOT
HETATM    1  C   UNL     1      42.038 -13.924   4.870  1.00  0.00     0.228 C 
HETATM    2  N   UNL     1      41.434 -13.761   3.472  1.00  0.00    -0.054 N 
HETATM    3  H   UNL     1      40.594 -13.212   3.686  1.00  0.00     0.281 HD
HETATM    4  C   UNL     1      40.874 -15.044   2.911  1.00  0.00     0.239 C 
HETATM    5  C   UNL     1      41.808 -16.237   3.029  1.00  0.00     0.066 C 
HETATM    6  C   UNL     1      42.368 -16.400   4.441  1.00  0.00     0.065 C 
HETATM    7  C   UNL     1      43.041 -15.098   4.926  1.00  0.00     0.055 C 
HETATM    8  C   UNL     1      43.355 -17.581   4.502  1.00  0.00     0.038 C 
HETATM    9  C   UNL     1      43.945 -17.763   5.900  1.00  0.00     0.003 C 
HETATM   10  C   UNL     1      44.579 -16.478   6.412  1.00  0.00     0.001 C 
HETATM   11  C   UNL     1      43.608 -15.302   6.352  1.00  0.00     0.010 C 
ENDROOT
BRANCH   2  12
HETATM   12  C   UNL     1      42.130 -12.856   2.449  1.00  0.00     0.338 C 
BRANCH  12  13
HETATM   13  C   UNL     1      41.287 -12.033   1.471  1.00  0.00     0.248 C 
HETATM   14  N   UNL     1      40.038 -12.588   1.257  1.00  0.00    -0.319 N 
HETATM   15  H   UNL     1      39.892 -13.581   1.404  1.00  0.00     0.169 HD
HETATM   16  O   UNL     1      41.727 -11.041   0.902  1.00  0.00    -0.271 OA
BRANCH  14  17
HETATM   17  C   UNL     1      39.023 -11.970   0.555  1.00  0.00     0.094 A 
HETATM   18  S   UNL     1      38.206 -10.854   1.543  1.00  0.00    -0.076 SA
HETATM   19  C   UNL     1      37.091 -10.469   0.314  1.00  0.00    -0.012 A 
HETATM   20  C   UNL     1      35.998  -9.488   0.599  1.00  0.00     0.057 C 
HETATM   21  C   UNL     1      37.391 -11.112  -0.878  1.00  0.00    -0.030 A 
HETATM   22  C   UNL     1      36.661 -10.871  -2.167  1.00  0.00     0.050 C 
HETATM   23  C   UNL     1      38.534 -12.013  -0.737  1.00  0.00     0.080 A 
BRANCH  23  24
HETATM   24  C   UNL     1      39.148 -12.763  -1.835  1.00  0.00     0.296 C 
HETATM   25  O   UNL     1      39.933 -12.261  -2.632  1.00  0.00    -0.259 OA
BRANCH  24  26
HETATM   26  O   UNL     1      38.706 -14.050  -1.906  1.00  0.00    -0.322 OA
HETATM   27  C   UNL     1      38.658 -14.575  -3.232  1.00  0.00     0.213 C 
ENDBRANCH  24  26
ENDBRANCH  23  24
ENDBRANCH  14  17
ENDBRANCH  12  13
ENDBRANCH   2  12
BRANCH   1  28
HETATM   28  C   UNL     1      42.513 -12.625   5.499  1.00  0.00    -0.027 A 
HETATM   29  C   UNL     1      41.588 -11.721   6.032  1.00  0.00     0.011 A 
HETATM   30  C   UNL     1      42.013 -10.612   6.784  1.00  0.00     0.030 A 
HETATM   31  C   UNL     1      43.366 -10.342   7.038  1.00  0.00     0.030 A 
HETATM   32  C   UNL     1      44.275 -11.201   6.404  1.00  0.00     0.030 A 
HETATM   33  C   UNL     1      43.864 -12.325   5.675  1.00  0.00     0.011 A 
BRANCH  31  34
HETATM   34  N   UNL     1      43.791  -9.306   7.866  1.00  0.00    -0.382 N 
BRANCH  34  35
HETATM   35  C   UNL     1      45.206  -9.208   8.272  1.00  0.00     0.118 C 
HETATM   36  C   UNL     1      45.387  -9.719   9.692  1.00  0.00     0.026 C 
ENDBRANCH  34  35
BRANCH  34  37
HETATM   37  C   UNL     1      42.848  -8.524   8.683  1.00  0.00     0.118 C 
HETATM   38  C   UNL     1      42.525  -7.189   8.031  1.00  0.00     0.026 C 
ENDBRANCH  34  37
ENDBRANCH  31  34
ENDBRANCH   1  28
BRANCH   6  39
HETATM   39  O   UNL     1      41.243 -16.669   5.292  1.00  0.00    -0.389 OA
HETATM   40  H   UNL     1      40.459 -16.210   4.935  1.00  0.00     0.210 HD
ENDBRANCH   6  39
TORSDOF 10
ENDMDL
MODEL 9
REMARK VINA RESULT:      -7.1     15.776     18.306
REMARK  10 active torsions:
REMARK  status: ('A' for Active; 'I' for Inactive)
REMARK    1  A    between atoms: C_2  and  N_3 
REMARK    2  A    between atoms: N_3  and  C_4 
REMARK    3  A    between atoms: N_3  and  C_37 
REMARK    4  A    between atoms: C_7  and  C_8 
REMARK    5  A    between atoms: N_9  and  C_11 
REMARK    6  A    between atoms: C_11  and  C_12 
REMARK       I    between atoms: C_12  and  N_13 
REMARK    7  A    between atoms: N_13  and  C_14 
REMARK    8  A    between atoms: C_20  and  C_21 
REMARK    9  A    between atoms: C_21  and  O_22 
REMARK   10  A    between atoms: C_28  and  O_29 
ROOT
HETATM    1  C   UNL     1      45.717 -30.759   1.282  1.00  0.00     0.228 C 
HETATM    2  N   UNL     1      44.230 -30.924   1.603  1.00  0.00    -0.054 N 
HETATM    3  H   UNL     1      44.178 -31.935   1.770  1.00  0.00     0.281 HD
HETATM    4  C   UNL     1      43.335 -30.727   0.404  1.00  0.00     0.239 C 
HETATM    5  C   UNL     1      43.642 -29.478  -0.406  1.00  0.00     0.066 C 
HETATM    6  C   UNL     1      45.126 -29.355  -0.745  1.00  0.00     0.065 C 
HETATM    7  C   UNL     1      45.996 -29.438   0.528  1.00  0.00     0.055 C 
HETATM    8  C   UNL     1      45.403 -28.048  -1.511  1.00  0.00     0.038 C 
HETATM    9  C   UNL     1      46.884 -27.886  -1.854  1.00  0.00     0.003 C 
HETATM   10  C   UNL     1      47.761 -28.006  -0.616  1.00  0.00     0.001 C 
HETATM   11  C   UNL     1      47.491 -29.297   0.151  1.00  0.00     0.010 C 
ENDROOT
BRANCH   2  12
HETATM   12  C   UNL     1      43.675 -30.374   2.922  1.00  0.00     0.338 C 
BRANCH  12  13
HETATM   13  C   UNL     1      43.161 -31.345   3.990  1.00  0.00     0.248 C 
HETATM   14  N   UNL     1      42.254 -30.750   4.847  1.00  0.00    -0.319 N 
HETATM   15  H   UNL     1      42.266 -29.745   4.982  1.00  0.00     0.169 HD
HETATM   16  O   UNL     1      43.584 -32.490   4.090  1.00  0.00    -0.271 OA
BRANCH  14  17
HETATM   17  C   UNL     1      41.515 -31.433   5.792  1.00  0.00     0.094 A 
HETATM   18  S   UNL     1      40.101 -32.070   5.099  1.00  0.00    -0.076 SA
HETATM   19  C   UNL     1      39.560 -32.690   6.591  1.00  0.00    -0.012 A 
HETATM   20  C   UNL     1      38.240 -33.392   6.656  1.00  0.00     0.057 C 
HETATM   21  C   UNL     1      40.492 -32.501   7.600  1.00  0.00    -0.030 A 
HETATM   22  C   UNL     1      40.349 -33.051   8.988  1.00  0.00     0.050 C 
HETATM   23  C   UNL     1      41.654 -31.745   7.131  1.00  0.00     0.080 A 
BRANCH  23  24
HETATM   24  C   UNL     1      42.846 -31.463   7.934  1.00  0.00     0.296 C 
HETATM   25  O   UNL     1      42.827 -30.757   8.935  1.00  0.00    -0.259 OA
BRANCH  24  26
HETATM   26  O   UNL     1      43.976 -32.020   7.413  1.00  0.00    -0.322 OA
HETATM   27  C   UNL     1      44.153 -33.396   7.750  1.00  0.00     0.213 C 
ENDBRANCH  24  26
ENDBRANCH  23  24
ENDBRANCH  14  17
ENDBRANCH  12  13
ENDBRANCH   2  12
BRANCH   1  28
HETATM   28  C   UNL     1      46.644 -31.055   2.448  1.00  0.00    -0.027 A 
HETATM   29  C   UNL     1      47.293 -32.292   2.535  1.00  0.00     0.011 A 
HETATM   30  C   UNL     1      48.294 -32.517   3.495  1.00  0.00     0.030 A 
HETATM   31  C   UNL     1      48.696 -31.536   4.415  1.00  0.00     0.030 A 
HETATM   32  C   UNL     1      47.956 -30.345   4.378  1.00  0.00     0.030 A 
HETATM   33  C   UNL     1      46.975 -30.099   3.408  1.00  0.00     0.011 A 
BRANCH  31  34
HETATM   34  N   UNL     1      49.755 -31.715   5.301  1.00  0.00    -0.382 N 
BRANCH  34  35
HETATM   35  C   UNL     1      51.038 -31.022   5.078  1.00  0.00     0.118 C 
HETATM   36  C   UNL     1      52.070 -31.473   6.098  1.00  0.00     0.026 C 
ENDBRANCH  34  35
BRANCH  34  37
HETATM   37  C   UNL     1      49.812 -32.856   6.229  1.00  0.00     0.118 C 
HETATM   38  C   UNL     1      48.607 -32.874   7.157  1.00  0.00     0.026 C 
ENDBRANCH  34  37
ENDBRANCH  31  34
ENDBRANCH   1  28
BRANCH   6  39
HETATM   39  O   UNL     1      45.444 -30.478  -1.581  1.00  0.00    -0.389 OA
HETATM   40  H   UNL     1      44.680 -31.086  -1.597  1.00  0.00     0.210 HD
ENDBRANCH   6  39
TORSDOF 10
ENDMDL
MODEL 10
REMARK VINA RESULT:      -7.0      9.743     14.259
REMARK  10 active torsions:
REMARK  status: ('A' for Active; 'I' for Inactive)
REMARK    1  A    between atoms: C_2  and  N_3 
REMARK    2  A    between atoms: N_3  and  C_4 
REMARK    3  A    between atoms: N_3  and  C_37 
REMARK    4  A    between atoms: C_7  and  C_8 
REMARK    5  A    between atoms: N_9  and  C_11 
REMARK    6  A    between atoms: C_11  and  C_12 
REMARK       I    between atoms: C_12  and  N_13 
REMARK    7  A    between atoms: N_13  and  C_14 
REMARK    8  A    between atoms: C_20  and  C_21 
REMARK    9  A    between atoms: C_21  and  O_22 
REMARK   10  A    between atoms: C_28  and  O_29 
ROOT
HETATM    1  C   UNL     1      41.801  -6.003  16.455  1.00  0.00     0.228 C 
HETATM    2  N   UNL     1      41.035  -4.773  15.959  1.00  0.00    -0.054 N 
HETATM    3  H   UNL     1      41.725  -4.359  15.322  1.00  0.00     0.281 HD
HETATM    4  C   UNL     1      40.862  -3.712  17.016  1.00  0.00     0.239 C 
HETATM    5  C   UNL     1      40.360  -4.237  18.351  1.00  0.00     0.066 C 
HETATM    6  C   UNL     1      41.163  -5.440  18.842  1.00  0.00     0.065 C 
HETATM    7  C   UNL     1      41.209  -6.552  17.772  1.00  0.00     0.055 C 
HETATM    8  C   UNL     1      40.584  -5.978  20.164  1.00  0.00     0.038 C 
HETATM    9  C   UNL     1      41.357  -7.192  20.677  1.00  0.00     0.003 C 
HETATM   10  C   UNL     1      41.447  -8.284  19.621  1.00  0.00     0.001 C 
HETATM   11  C   UNL     1      42.017  -7.759  18.307  1.00  0.00     0.010 C 
ENDROOT
BRANCH   2  12
HETATM   12  C   UNL     1      39.836  -4.957  15.023  1.00  0.00     0.338 C 
BRANCH  12  13
HETATM   13  C   UNL     1      39.967  -4.584  13.543  1.00  0.00     0.248 C 
HETATM   14  N   UNL     1      40.121  -5.694  12.733  1.00  0.00    -0.319 N 
HETATM   15  H   UNL     1      40.499  -6.554  13.115  1.00  0.00     0.169 HD
HETATM   16  O   UNL     1      40.002  -3.420  13.162  1.00  0.00    -0.271 OA
BRANCH  14  17
HETATM   17  C   UNL     1      40.096  -5.659  11.353  1.00  0.00     0.094 A 
HETATM   18  S   UNL     1      38.496  -5.707  10.782  1.00  0.00    -0.076 SA
HETATM   19  C   UNL     1      38.999  -5.724   9.154  1.00  0.00    -0.012 A 
HETATM   20  C   UNL     1      37.970  -5.807   8.072  1.00  0.00     0.057 C 
HETATM   21  C   UNL     1      40.375  -5.596   9.035  1.00  0.00    -0.030 A 
HETATM   22  C   UNL     1      41.093  -5.455   7.725  1.00  0.00     0.050 C 
HETATM   23  C   UNL     1      41.033  -5.567  10.341  1.00  0.00     0.080 A 
BRANCH  23  24
HETATM   24  C   UNL     1      42.466  -5.350  10.549  1.00  0.00     0.296 C 
HETATM   25  O   UNL     1      43.331  -6.044  10.026  1.00  0.00    -0.259 OA
BRANCH  24  26
HETATM   26  O   UNL     1      42.725  -4.339  11.426  1.00  0.00    -0.322 OA
HETATM   27  C   UNL     1      43.270  -3.169  10.819  1.00  0.00     0.213 C 
ENDBRANCH  24  26
ENDBRANCH  23  24
ENDBRANCH  14  17
ENDBRANCH  12  13
ENDBRANCH   2  12
BRANCH   1  28
HETATM   28  C   UNL     1      42.080  -7.040  15.380  1.00  0.00    -0.027 A 
HETATM   29  C   UNL     1      41.253  -8.161  15.251  1.00  0.00     0.011 A 
HETATM   30  C   UNL     1      41.377  -9.028  14.153  1.00  0.00     0.030 A 
HETATM   31  C   UNL     1      42.324  -8.833  13.137  1.00  0.00     0.030 A 
HETATM   32  C   UNL     1      43.210  -7.767  13.344  1.00  0.00     0.030 A 
HETATM   33  C   UNL     1      43.080  -6.879  14.421  1.00  0.00     0.011 A 
BRANCH  31  34
HETATM   34  N   UNL     1      42.387  -9.627  11.994  1.00  0.00    -0.382 N 
BRANCH  34  35
HETATM   35  C   UNL     1      43.421 -10.672  11.868  1.00  0.00     0.118 C 
HETATM   36  C   UNL     1      44.178 -10.514  10.560  1.00  0.00     0.026 C 
ENDBRANCH  34  35
BRANCH  34  37
HETATM   37  C   UNL     1      41.736  -9.234  10.734  1.00  0.00     0.118 C 
HETATM   38  C   UNL     1      40.238  -9.492  10.779  1.00  0.00     0.026 C 
ENDBRANCH  34  37
ENDBRANCH  31  34
ENDBRANCH   1  28
BRANCH   6  39
HETATM   39  O   UNL     1      42.502  -4.970  19.060  1.00  0.00    -0.389 OA
HETATM   40  H   UNL     1      43.130  -5.647  18.743  1.00  0.00     0.210 HD
ENDBRANCH   6  39
TORSDOF 10
ENDMDL
