MODEL 1
REMARK VINA RESULT:      -7.7      0.000      0.000
REMARK  7 active torsions:
REMARK  status: ('A' for Active; 'I' for Inactive)
REMARK    1  A    between atoms: C_2  and  C_3 
REMARK    2  A    between atoms: C_3  and  N_4 
REMARK    3  A    between atoms: C_3  and  C_20 
REMARK       I    between atoms: N_4  and  C_5 
REMARK       I    between atoms: C_5  and  N_6 
REMARK    4  A    between atoms: N_6  and  C_7 
REMARK    5  A    between atoms: C_7  and  C_8 
REMARK    6  A    between atoms: C_10  and  O_11 
REMARK    7  A    between atoms: O_11  and  C_12 
ROOT
HETATM    1  N   UNL     1      43.349 -15.466   4.094  1.00  0.00    -0.334 N 
HETATM    2  C   UNL     1      42.650 -14.544   4.824  1.00  0.00     0.316 C 
HETATM    3  N   UNL     1      43.472 -13.876   5.695  1.00  0.00    -0.339 N 
HETATM    4  O   UNL     1      41.452 -14.330   4.707  1.00  0.00    -0.247 OA
HETATM    5  H   UNL     1      44.256 -15.729   4.439  1.00  0.00     0.165 HD
HETATM    6  H   UNL     1      44.449 -13.865   5.452  1.00  0.00     0.164 HD
ENDROOT
BRANCH   3   7
HETATM    7  C   UNL     1      42.991 -12.729   6.435  1.00  0.00     0.163 C 
BRANCH   7   8
HETATM    8  C   UNL     1      44.152 -11.941   6.979  1.00  0.00    -0.035 A 
HETATM    9  C   UNL     1      44.094 -11.392   8.264  1.00  0.00     0.066 A 
HETATM   10  C   UNL     1      45.143 -10.594   8.688  1.00  0.00     0.164 A 
HETATM   11  N   UNL     1      46.234 -10.317   7.944  1.00  0.00    -0.237 NA
HETATM   12  C   UNL     1      46.276 -10.868   6.714  1.00  0.00     0.120 A 
HETATM   13  C   UNL     1      45.273 -11.669   6.189  1.00  0.00     0.028 A 
BRANCH  10  14
HETATM   14  O   UNL     1      45.037 -10.050   9.953  1.00  0.00    -0.329 OA
BRANCH  14  15
HETATM   15  C   UNL     1      43.737 -10.156  10.573  1.00  0.00     0.130 C 
HETATM   16  C   UNL     1      43.653 -11.025  11.857  1.00  0.00     0.032 C 
HETATM   17  C   UNL     1      42.710  -9.962  12.444  1.00  0.00     0.005 C 
HETATM   18  C   UNL     1      43.345  -8.954  11.471  1.00  0.00     0.032 C 
ENDBRANCH  14  15
ENDBRANCH  10  14
ENDBRANCH   7   8
ENDBRANCH   3   7
BRANCH   1  19
HETATM   19  C   UNL     1      42.704 -16.353   3.137  1.00  0.00     0.119 C 
BRANCH  19  20
HETATM   20  C   UNL     1      42.840 -15.791   1.706  1.00  0.00     0.025 C 
HETATM   21  C   UNL     1      41.575 -15.155   1.140  1.00  0.00     0.007 C 
ENDBRANCH  19  20
BRANCH  19  22
HETATM   22  C   UNL     1      43.174 -17.796   3.242  1.00  0.00    -0.033 A 
HETATM   23  C   UNL     1      43.769 -18.234   4.434  1.00  0.00     0.028 A 
HETATM   24  C   UNL     1      44.170 -19.558   4.543  1.00  0.00     0.116 A 
HETATM   25  N   UNL     1      44.021 -20.470   3.562  1.00  0.00    -0.273 NA
HETATM   26  C   UNL     1      43.456 -20.034   2.417  1.00  0.00     0.116 A 
HETATM   27  C   UNL     1      43.022 -18.732   2.213  1.00  0.00     0.028 A 
ENDBRANCH  19  22
ENDBRANCH   1  19
TORSDOF 7
ENDMDL
MODEL 2
REMARK VINA RESULT:      -7.6      5.239      9.116
REMARK  7 active torsions:
REMARK  status: ('A' for Active; 'I' for Inactive)
REMARK    1  A    between atoms: C_2  and  C_3 
REMARK    2  A    between atoms: C_3  and  N_4 
REMARK    3  A    between atoms: C_3  and  C_20 
REMARK       I    between atoms: N_4  and  C_5 
REMARK       I    between atoms: C_5  and  N_6 
REMARK    4  A    between atoms: N_6  and  C_7 
REMARK    5  A    between atoms: C_7  and  C_8 
REMARK    6  A    between atoms: C_10  and  O_11 
REMARK    7  A    between atoms: O_11  and  C_12 
ROOT
HETATM    1  N   UNL     1      41.978 -16.207   2.774  1.00  0.00    -0.334 N 
HETATM    2  C   UNL     1      41.865 -15.011   2.118  1.00  0.00     0.316 C 
HETATM    3  N   UNL     1      40.600 -14.840   1.616  1.00  0.00    -0.339 N 
HETATM    4  O   UNL     1      42.766 -14.193   2.006  1.00  0.00    -0.247 OA
HETATM    5  H   UNL     1      41.268 -16.896   2.593  1.00  0.00     0.165 HD
HETATM    6  H   UNL     1      39.875 -15.373   2.068  1.00  0.00     0.164 HD
ENDROOT
BRANCH   3   7
HETATM    7  C   UNL     1      40.195 -13.573   1.047  1.00  0.00     0.163 C 
BRANCH   7   8
HETATM    8  C   UNL     1      40.130 -13.676  -0.453  1.00  0.00    -0.035 A 
HETATM    9  C   UNL     1      40.681 -12.672  -1.256  1.00  0.00     0.066 A 
HETATM   10  C   UNL     1      40.515 -12.759  -2.628  1.00  0.00     0.164 A 
HETATM   11  N   UNL     1      39.863 -13.763  -3.250  1.00  0.00    -0.237 NA
HETATM   12  C   UNL     1      39.353 -14.728  -2.458  1.00  0.00     0.120 A 
HETATM   13  C   UNL     1      39.451 -14.728  -1.075  1.00  0.00     0.028 A 
BRANCH  10  14
HETATM   14  O   UNL     1      41.051 -11.735  -3.384  1.00  0.00    -0.329 OA
BRANCH  14  15
HETATM   15  C   UNL     1      40.542 -10.414  -3.099  1.00  0.00     0.130 C 
HETATM   16  C   UNL     1      40.854  -9.313  -4.148  1.00  0.00     0.032 C 
HETATM   17  C   UNL     1      39.423  -8.791  -3.941  1.00  0.00     0.005 C 
HETATM   18  C   UNL     1      39.048 -10.203  -3.458  1.00  0.00     0.032 C 
ENDBRANCH  14  15
ENDBRANCH  10  14
ENDBRANCH   7   8
ENDBRANCH   3   7
BRANCH   1  19
HETATM   19  C   UNL     1      43.234 -16.662   3.351  1.00  0.00     0.119 C 
BRANCH  19  20
HETATM   20  C   UNL     1      43.393 -16.122   4.788  1.00  0.00     0.025 C 
HETATM   21  C   UNL     1      42.109 -16.090   5.611  1.00  0.00     0.007 C 
ENDBRANCH  19  20
BRANCH  19  22
HETATM   22  C   UNL     1      43.420 -18.171   3.274  1.00  0.00    -0.033 A 
HETATM   23  C   UNL     1      43.008 -18.850   2.119  1.00  0.00     0.028 A 
HETATM   24  C   UNL     1      43.205 -20.221   2.034  1.00  0.00     0.116 A 
HETATM   25  N   UNL     1      43.780 -20.958   3.006  1.00  0.00    -0.273 NA
HETATM   26  C   UNL     1      44.163 -20.294   4.115  1.00  0.00     0.116 A 
HETATM   27  C   UNL     1      44.010 -18.927   4.293  1.00  0.00     0.028 A 
ENDBRANCH  19  22
ENDBRANCH   1  19
TORSDOF 7
ENDMDL
MODEL 3
REMARK VINA RESULT:      -7.5      2.402      9.800
REMARK  7 active torsions:
REMARK  status: ('A' for Active; 'I' for Inactive)
REMARK    1  A    between atoms: C_2  and  C_3 
REMARK    2  A    between atoms: C_3  and  N_4 
REMARK    3  A    between atoms: C_3  and  C_20 
REMARK       I    between atoms: N_4  and  C_5 
REMARK       I    between atoms: C_5  and  N_6 
REMARK    4  A    between atoms: N_6  and  C_7 
REMARK    5  A    between atoms: C_7  and  C_8 
REMARK    6  A    between atoms: C_10  and  O_11 
REMARK    7  A    between atoms: O_11  and  C_12 
ROOT
HETATM    1  N   UNL     1      43.198 -10.320   8.871  1.00  0.00    -0.334 N 
HETATM    2  C   UNL     1      44.018 -11.161   8.170  1.00  0.00     0.316 C 
HETATM    3  N   UNL     1      43.300 -11.938   7.296  1.00  0.00    -0.339 N 
HETATM    4  O   UNL     1      45.234 -11.208   8.293  1.00  0.00    -0.247 OA
HETATM    5  H   UNL     1      42.216 -10.536   8.873  1.00  0.00     0.165 HD
HETATM    6  H   UNL     1      42.404 -11.570   7.020  1.00  0.00     0.164 HD
ENDROOT
BRANCH   3   7
HETATM    7  C   UNL     1      43.972 -12.768   6.320  1.00  0.00     0.163 C 
BRANCH   7   8
HETATM    8  C   UNL     1      43.380 -14.151   6.322  1.00  0.00    -0.035 A 
HETATM    9  C   UNL     1      43.092 -14.800   5.117  1.00  0.00     0.066 A 
HETATM   10  C   UNL     1      42.460 -16.031   5.165  1.00  0.00     0.164 A 
HETATM   11  N   UNL     1      42.110 -16.660   6.307  1.00  0.00    -0.237 NA
HETATM   12  C   UNL     1      42.410 -16.023   7.458  1.00  0.00     0.120 A 
HETATM   13  C   UNL     1      43.029 -14.783   7.519  1.00  0.00     0.028 A 
BRANCH  10  14
HETATM   14  O   UNL     1      42.170 -16.628   3.954  1.00  0.00    -0.329 OA
BRANCH  14  15
HETATM   15  C   UNL     1      43.280 -17.272   3.293  1.00  0.00     0.130 C 
HETATM   16  C   UNL     1      43.972 -18.424   4.071  1.00  0.00     0.032 C 
HETATM   17  C   UNL     1      44.067 -19.188   2.740  1.00  0.00     0.005 C 
HETATM   18  C   UNL     1      42.879 -18.344   2.246  1.00  0.00     0.032 C 
ENDBRANCH  14  15
ENDBRANCH  10  14
ENDBRANCH   7   8
ENDBRANCH   3   7
BRANCH   1  19
HETATM   19  C   UNL     1      43.699  -9.429   9.907  1.00  0.00     0.119 C 
BRANCH  19  20
HETATM   20  C   UNL     1      44.021  -8.041   9.315  1.00  0.00     0.025 C 
HETATM   21  C   UNL     1      42.885  -7.398   8.525  1.00  0.00     0.007 C 
ENDBRANCH  19  20
BRANCH  19  22
HETATM   22  C   UNL     1      42.786  -9.345  11.121  1.00  0.00    -0.033 A 
HETATM   23  C   UNL     1      43.295  -8.833  12.324  1.00  0.00     0.028 A 
HETATM   24  C   UNL     1      42.456  -8.727  13.423  1.00  0.00     0.116 A 
HETATM   25  N   UNL     1      41.156  -9.086  13.412  1.00  0.00    -0.273 NA
HETATM   26  C   UNL     1      40.681  -9.585  12.252  1.00  0.00     0.116 A 
HETATM   27  C   UNL     1      41.441  -9.729  11.101  1.00  0.00     0.028 A 
ENDBRANCH  19  22
ENDBRANCH   1  19
TORSDOF 7
ENDMDL
MODEL 4
REMARK VINA RESULT:      -7.4      5.020      8.104
REMARK  7 active torsions:
REMARK  status: ('A' for Active; 'I' for Inactive)
REMARK    1  A    between atoms: C_2  and  C_3 
REMARK    2  A    between atoms: C_3  and  N_4 
REMARK    3  A    between atoms: C_3  and  C_20 
REMARK       I    between atoms: N_4  and  C_5 
REMARK       I    between atoms: C_5  and  N_6 
REMARK    4  A    between atoms: N_6  and  C_7 
REMARK    5  A    between atoms: C_7  and  C_8 
REMARK    6  A    between atoms: C_10  and  O_11 
REMARK    7  A    between atoms: O_11  and  C_12 
ROOT
HETATM    1  N   UNL     1      42.284 -16.480   4.161  1.00  0.00    -0.334 N 
HETATM    2  C   UNL     1      42.117 -15.144   3.919  1.00  0.00     0.316 C 
HETATM    3  N   UNL     1      40.798 -14.844   3.686  1.00  0.00    -0.339 N 
HETATM    4  O   UNL     1      43.019 -14.319   3.925  1.00  0.00    -0.247 OA
HETATM    5  H   UNL     1      41.532 -17.091   3.891  1.00  0.00     0.165 HD
HETATM    6  H   UNL     1      40.129 -15.497   4.061  1.00  0.00     0.164 HD
ENDROOT
BRANCH   3   7
HETATM    7  C   UNL     1      40.358 -13.469   3.592  1.00  0.00     0.163 C 
BRANCH   7   8
HETATM    8  C   UNL     1      40.532 -12.966   2.184  1.00  0.00    -0.035 A 
HETATM    9  C   UNL     1      40.252 -13.799   1.095  1.00  0.00     0.066 A 
HETATM   10  C   UNL     1      40.518 -13.329  -0.179  1.00  0.00     0.164 A 
HETATM   11  N   UNL     1      41.021 -12.106  -0.447  1.00  0.00    -0.237 NA
HETATM   12  C   UNL     1      41.269 -11.314   0.616  1.00  0.00     0.120 A 
HETATM   13  C   UNL     1      41.053 -11.694   1.932  1.00  0.00     0.028 A 
BRANCH  10  14
HETATM   14  O   UNL     1      40.252 -14.190  -1.226  1.00  0.00    -0.329 OA
BRANCH  14  15
HETATM   15  C   UNL     1      39.402 -13.664  -2.268  1.00  0.00     0.130 C 
HETATM   16  C   UNL     1      38.572 -14.702  -3.072  1.00  0.00     0.032 C 
HETATM   17  C   UNL     1      37.399 -13.708  -3.032  1.00  0.00     0.005 C 
HETATM   18  C   UNL     1      38.044 -13.097  -1.776  1.00  0.00     0.032 C 
ENDBRANCH  14  15
ENDBRANCH  10  14
ENDBRANCH   7   8
ENDBRANCH   3   7
BRANCH   1  19
HETATM   19  C   UNL     1      43.595 -17.074   4.381  1.00  0.00     0.119 C 
BRANCH  19  20
HETATM   20  C   UNL     1      43.996 -16.957   5.866  1.00  0.00     0.025 C 
HETATM   21  C   UNL     1      42.829 -16.864   6.844  1.00  0.00     0.007 C 
ENDBRANCH  19  20
BRANCH  19  22
HETATM   22  C   UNL     1      43.705 -18.498   3.859  1.00  0.00    -0.033 A 
HETATM   23  C   UNL     1      44.070 -19.523   4.744  1.00  0.00     0.028 A 
HETATM   24  C   UNL     1      44.141 -20.827   4.277  1.00  0.00     0.116 A 
HETATM   25  N   UNL     1      43.873 -21.184   3.005  1.00  0.00    -0.273 NA
HETATM   26  C   UNL     1      43.532 -20.189   2.161  1.00  0.00     0.116 A 
HETATM   27  C   UNL     1      43.434 -18.856   2.533  1.00  0.00     0.028 A 
ENDBRANCH  19  22
ENDBRANCH   1  19
TORSDOF 7
ENDMDL
MODEL 5
REMARK VINA RESULT:      -7.4      5.115      9.142
REMARK  7 active torsions:
REMARK  status: ('A' for Active; 'I' for Inactive)
REMARK    1  A    between atoms: C_2  and  C_3 
REMARK    2  A    between atoms: C_3  and  N_4 
REMARK    3  A    between atoms: C_3  and  C_20 
REMARK       I    between atoms: N_4  and  C_5 
REMARK       I    between atoms: C_5  and  N_6 
REMARK    4  A    between atoms: N_6  and  C_7 
REMARK    5  A    between atoms: C_7  and  C_8 
REMARK    6  A    between atoms: C_10  and  O_11 
REMARK    7  A    between atoms: O_11  and  C_12 
ROOT
HETATM    1  N   UNL     1      42.230 -15.759   2.467  1.00  0.00    -0.334 N 
HETATM    2  C   UNL     1      40.983 -15.282   2.167  1.00  0.00     0.316 C 
HETATM    3  N   UNL     1      41.057 -14.072   1.523  1.00  0.00    -0.339 N 
HETATM    4  O   UNL     1      39.938 -15.862   2.423  1.00  0.00    -0.247 OA
HETATM    5  H   UNL     1      42.990 -15.100   2.437  1.00  0.00     0.165 HD
HETATM    6  H   UNL     1      41.926 -13.881   1.052  1.00  0.00     0.164 HD
ENDROOT
BRANCH   3   7
HETATM    7  C   UNL     1      39.876 -13.468   0.945  1.00  0.00     0.163 C 
BRANCH   7   8
HETATM    8  C   UNL     1      39.944 -13.536  -0.557  1.00  0.00    -0.035 A 
HETATM    9  C   UNL     1      40.578 -12.523  -1.283  1.00  0.00     0.066 A 
HETATM   10  C   UNL     1      40.534 -12.576  -2.666  1.00  0.00     0.164 A 
HETATM   11  N   UNL     1      39.925 -13.554  -3.368  1.00  0.00    -0.237 NA
HETATM   12  C   UNL     1      39.332 -14.528  -2.648  1.00  0.00     0.120 A 
HETATM   13  C   UNL     1      39.307 -14.561  -1.262  1.00  0.00     0.028 A 
BRANCH  10  14
HETATM   14  O   UNL     1      41.150 -11.544  -3.347  1.00  0.00    -0.329 OA
BRANCH  14  15
HETATM   15  C   UNL     1      40.605 -10.228  -3.114  1.00  0.00     0.130 C 
HETATM   16  C   UNL     1      41.486  -9.252  -2.286  1.00  0.00     0.032 C 
HETATM   17  C   UNL     1      41.057  -8.136  -3.254  1.00  0.00     0.005 C 
HETATM   18  C   UNL     1      40.776  -9.235  -4.293  1.00  0.00     0.032 C 
ENDBRANCH  14  15
ENDBRANCH  10  14
ENDBRANCH   7   8
ENDBRANCH   3   7
BRANCH   1  19
HETATM   19  C   UNL     1      42.433 -16.998   3.203  1.00  0.00     0.119 C 
BRANCH  19  20
HETATM   20  C   UNL     1      43.505 -17.866   2.511  1.00  0.00     0.025 C 
HETATM   21  C   UNL     1      43.067 -19.289   2.181  1.00  0.00     0.007 C 
ENDBRANCH  19  20
BRANCH  19  22
HETATM   22  C   UNL     1      42.728 -16.778   4.680  1.00  0.00    -0.033 A 
HETATM   23  C   UNL     1      44.052 -16.874   5.132  1.00  0.00     0.028 A 
HETATM   24  C   UNL     1      44.327 -16.643   6.472  1.00  0.00     0.116 A 
HETATM   25  N   UNL     1      43.389 -16.324   7.387  1.00  0.00    -0.273 NA
HETATM   26  C   UNL     1      42.119 -16.244   6.941  1.00  0.00     0.116 A 
HETATM   27  C   UNL     1      41.745 -16.456   5.622  1.00  0.00     0.028 A 
ENDBRANCH  19  22
ENDBRANCH   1  19
TORSDOF 7
ENDMDL
MODEL 6
REMARK VINA RESULT:      -7.3      2.263      9.515
REMARK  7 active torsions:
REMARK  status: ('A' for Active; 'I' for Inactive)
REMARK    1  A    between atoms: C_2  and  C_3 
REMARK    2  A    between atoms: C_3  and  N_4 
REMARK    3  A    between atoms: C_3  and  C_20 
REMARK       I    between atoms: N_4  and  C_5 
REMARK       I    between atoms: C_5  and  N_6 
REMARK    4  A    between atoms: N_6  and  C_7 
REMARK    5  A    between atoms: C_7  and  C_8 
REMARK    6  A    between atoms: C_10  and  O_11 
REMARK    7  A    between atoms: O_11  and  C_12 
ROOT
HETATM    1  N   UNL     1      43.271 -10.448   8.181  1.00  0.00    -0.334 N 
HETATM    2  C   UNL     1      43.533 -11.403   7.236  1.00  0.00     0.316 C 
HETATM    3  N   UNL     1      42.404 -11.714   6.521  1.00  0.00    -0.339 N 
HETATM    4  O   UNL     1      44.631 -11.905   7.041  1.00  0.00    -0.247 OA
HETATM    5  H   UNL     1      42.306 -10.293   8.417  1.00  0.00     0.165 HD
HETATM    6  H   UNL     1      41.686 -11.008   6.509  1.00  0.00     0.164 HD
ENDROOT
BRANCH   3   7
HETATM    7  C   UNL     1      42.480 -12.560   5.349  1.00  0.00     0.163 C 
BRANCH   7   8
HETATM    8  C   UNL     1      42.041 -13.958   5.691  1.00  0.00    -0.035 A 
HETATM    9  C   UNL     1      42.870 -15.049   5.412  1.00  0.00     0.066 A 
HETATM   10  C   UNL     1      42.388 -16.324   5.654  1.00  0.00     0.164 A 
HETATM   11  N   UNL     1      41.165 -16.588   6.159  1.00  0.00    -0.237 NA
HETATM   12  C   UNL     1      40.387 -15.521   6.434  1.00  0.00     0.120 A 
HETATM   13  C   UNL     1      40.769 -14.206   6.215  1.00  0.00     0.028 A 
BRANCH  10  14
HETATM   14  O   UNL     1      43.228 -17.375   5.342  1.00  0.00    -0.329 OA
BRANCH  14  15
HETATM   15  C   UNL     1      43.612 -17.477   3.954  1.00  0.00     0.130 C 
HETATM   16  C   UNL     1      43.897 -18.908   3.420  1.00  0.00     0.032 C 
HETATM   17  C   UNL     1      43.171 -18.506   2.125  1.00  0.00     0.005 C 
HETATM   18  C   UNL     1      42.432 -17.436   2.948  1.00  0.00     0.032 C 
ENDBRANCH  14  15
ENDBRANCH  10  14
ENDBRANCH   7   8
ENDBRANCH   3   7
BRANCH   1  19
HETATM   19  C   UNL     1      44.284  -9.980   9.115  1.00  0.00     0.119 C 
BRANCH  19  20
HETATM   20  C   UNL     1      45.090  -8.818   8.498  1.00  0.00     0.025 C 
HETATM   21  C   UNL     1      46.498  -9.182   8.039  1.00  0.00     0.007 C 
ENDBRANCH  19  20
BRANCH  19  22
HETATM   22  C   UNL     1      43.722  -9.634  10.486  1.00  0.00    -0.033 A 
HETATM   23  C   UNL     1      43.405 -10.672  11.375  1.00  0.00     0.028 A 
HETATM   24  C   UNL     1      42.922 -10.357  12.637  1.00  0.00     0.116 A 
HETATM   25  N   UNL     1      42.737  -9.096  13.077  1.00  0.00    -0.273 NA
HETATM   26  C   UNL     1      43.037  -8.108  12.210  1.00  0.00     0.116 A 
HETATM   27  C   UNL     1      43.525  -8.321  10.929  1.00  0.00     0.028 A 
ENDBRANCH  19  22
ENDBRANCH   1  19
TORSDOF 7
ENDMDL
MODEL 7
REMARK VINA RESULT:      -7.2      2.979      4.611
REMARK  7 active torsions:
REMARK  status: ('A' for Active; 'I' for Inactive)
REMARK    1  A    between atoms: C_2  and  C_3 
REMARK    2  A    between atoms: C_3  and  N_4 
REMARK    3  A    between atoms: C_3  and  C_20 
REMARK       I    between atoms: N_4  and  C_5 
REMARK       I    between atoms: C_5  and  N_6 
REMARK    4  A    between atoms: N_6  and  C_7 
REMARK    5  A    between atoms: C_7  and  C_8 
REMARK    6  A    between atoms: C_10  and  O_11 
REMARK    7  A    between atoms: O_11  and  C_12 
ROOT
HETATM    1  N   UNL     1      42.366 -16.653   4.417  1.00  0.00    -0.334 N 
HETATM    2  C   UNL     1      41.928 -15.852   3.398  1.00  0.00     0.316 C 
HETATM    3  N   UNL     1      40.603 -15.531   3.555  1.00  0.00    -0.339 N 
HETATM    4  O   UNL     1      42.626 -15.459   2.474  1.00  0.00    -0.247 OA
HETATM    5  H   UNL     1      41.663 -17.110   4.973  1.00  0.00     0.165 HD
HETATM    6  H   UNL     1      40.247 -15.592   4.495  1.00  0.00     0.164 HD
ENDROOT
BRANCH   3   7
HETATM    7  C   UNL     1      39.974 -14.546   2.701  1.00  0.00     0.163 C 
BRANCH   7   8
HETATM    8  C   UNL     1      39.960 -13.205   3.384  1.00  0.00    -0.035 A 
HETATM    9  C   UNL     1      40.745 -12.980   4.519  1.00  0.00     0.066 A 
HETATM   10  C   UNL     1      40.629 -11.765   5.172  1.00  0.00     0.164 A 
HETATM   11  N   UNL     1      39.812 -10.767   4.776  1.00  0.00    -0.237 NA
HETATM   12  C   UNL     1      39.074 -10.999   3.671  1.00  0.00     0.120 A 
HETATM   13  C   UNL     1      39.105 -12.186   2.954  1.00  0.00     0.028 A 
BRANCH  10  14
HETATM   14  O   UNL     1      41.403 -11.591   6.303  1.00  0.00    -0.329 OA
BRANCH  14  15
HETATM   15  C   UNL     1      42.831 -11.651   6.099  1.00  0.00     0.130 C 
HETATM   16  C   UNL     1      43.698 -10.752   7.021  1.00  0.00     0.032 C 
HETATM   17  C   UNL     1      44.698 -11.917   7.119  1.00  0.00     0.005 C 
HETATM   18  C   UNL     1      43.533 -12.860   6.772  1.00  0.00     0.032 C 
ENDBRANCH  14  15
ENDBRANCH  10  14
ENDBRANCH   7   8
ENDBRANCH   3   7
BRANCH   1  19
HETATM   19  C   UNL     1      43.720 -17.186   4.462  1.00  0.00     0.119 C 
BRANCH  19  20
HETATM   20  C   UNL     1      44.325 -17.001   5.869  1.00  0.00     0.025 C 
HETATM   21  C   UNL     1      43.328 -16.603   6.952  1.00  0.00     0.007 C 
ENDBRANCH  19  20
BRANCH  19  22
HETATM   22  C   UNL     1      43.816 -18.623   3.972  1.00  0.00    -0.033 A 
HETATM   23  C   UNL     1      44.070 -19.644   4.899  1.00  0.00     0.028 A 
HETATM   24  C   UNL     1      44.128 -20.958   4.459  1.00  0.00     0.116 A 
HETATM   25  N   UNL     1      43.949 -21.328   3.175  1.00  0.00    -0.273 NA
HETATM   26  C   UNL     1      43.714 -20.337   2.292  1.00  0.00     0.116 A 
HETATM   27  C   UNL     1      43.638 -18.994   2.634  1.00  0.00     0.028 A 
ENDBRANCH  19  22
ENDBRANCH   1  19
TORSDOF 7
ENDMDL
MODEL 8
REMARK VINA RESULT:      -7.2      2.479      9.718
REMARK  7 active torsions:
REMARK  status: ('A' for Active; 'I' for Inactive)
REMARK    1  A    between atoms: C_2  and  C_3 
REMARK    2  A    between atoms: C_3  and  N_4 
REMARK    3  A    between atoms: C_3  and  C_20 
REMARK       I    between atoms: N_4  and  C_5 
REMARK       I    between atoms: C_5  and  N_6 
REMARK    4  A    between atoms: N_6  and  C_7 
REMARK    5  A    between atoms: C_7  and  C_8 
REMARK    6  A    between atoms: C_10  and  O_11 
REMARK    7  A    between atoms: O_11  and  C_12 
ROOT
HETATM    1  N   UNL     1      43.120  -9.959   9.339  1.00  0.00    -0.334 N 
HETATM    2  C   UNL     1      44.073 -10.769   8.782  1.00  0.00     0.316 C 
HETATM    3  N   UNL     1      43.527 -11.597   7.835  1.00  0.00    -0.339 N 
HETATM    4  O   UNL     1      45.260 -10.749   9.077  1.00  0.00    -0.247 OA
HETATM    5  H   UNL     1      42.160 -10.227   9.207  1.00  0.00     0.165 HD
HETATM    6  H   UNL     1      42.663 -11.283   7.426  1.00  0.00     0.164 HD
ENDROOT
BRANCH   3   7
HETATM    7  C   UNL     1      44.373 -12.408   6.985  1.00  0.00     0.163 C 
BRANCH   7   8
HETATM    8  C   UNL     1      43.778 -12.503   5.605  1.00  0.00    -0.035 A 
HETATM    9  C   UNL     1      43.220 -13.705   5.157  1.00  0.00     0.066 A 
HETATM   10  C   UNL     1      42.772 -13.777   3.849  1.00  0.00     0.164 A 
HETATM   11  N   UNL     1      42.825 -12.752   2.972  1.00  0.00    -0.237 NA
HETATM   12  C   UNL     1      43.354 -11.599   3.430  1.00  0.00     0.120 A 
HETATM   13  C   UNL     1      43.844 -11.427   4.716  1.00  0.00     0.028 A 
BRANCH  10  14
HETATM   14  O   UNL     1      42.251 -14.987   3.437  1.00  0.00    -0.329 OA
BRANCH  14  15
HETATM   15  C   UNL     1      43.220 -15.991   3.064  1.00  0.00     0.130 C 
HETATM   16  C   UNL     1      43.401 -17.176   4.052  1.00  0.00     0.032 C 
HETATM   17  C   UNL     1      43.495 -18.104   2.829  1.00  0.00     0.005 C 
HETATM   18  C   UNL     1      42.709 -17.040   2.043  1.00  0.00     0.032 C 
ENDBRANCH  14  15
ENDBRANCH  10  14
ENDBRANCH   7   8
ENDBRANCH   3   7
BRANCH   1  19
HETATM   19  C   UNL     1      43.423  -9.025  10.413  1.00  0.00     0.119 C 
BRANCH  19  20
HETATM   20  C   UNL     1      43.476  -7.581   9.872  1.00  0.00     0.025 C 
HETATM   21  C   UNL     1      42.609  -7.321   8.644  1.00  0.00     0.007 C 
ENDBRANCH  19  20
BRANCH  19  22
HETATM   22  C   UNL     1      42.494  -9.164  11.610  1.00  0.00    -0.033 A 
HETATM   23  C   UNL     1      41.220  -9.719  11.424  1.00  0.00     0.028 A 
HETATM   24  C   UNL     1      40.384  -9.875  12.519  1.00  0.00     0.116 A 
HETATM   25  N   UNL     1      40.721  -9.524  13.777  1.00  0.00    -0.273 NA
HETATM   26  C   UNL     1      41.945  -8.983  13.941  1.00  0.00     0.116 A 
HETATM   27  C   UNL     1      42.852  -8.788  12.910  1.00  0.00     0.028 A 
ENDBRANCH  19  22
ENDBRANCH   1  19
TORSDOF 7
ENDMDL
MODEL 9
REMARK VINA RESULT:      -7.0      4.778      7.493
REMARK  7 active torsions:
REMARK  status: ('A' for Active; 'I' for Inactive)
REMARK    1  A    between atoms: C_2  and  C_3 
REMARK    2  A    between atoms: C_3  and  N_4 
REMARK    3  A    between atoms: C_3  and  C_20 
REMARK       I    between atoms: N_4  and  C_5 
REMARK       I    between atoms: C_5  and  N_6 
REMARK    4  A    between atoms: N_6  and  C_7 
REMARK    5  A    between atoms: C_7  and  C_8 
REMARK    6  A    between atoms: C_10  and  O_11 
REMARK    7  A    between atoms: O_11  and  C_12 
ROOT
HETATM    1  N   UNL     1      42.301 -16.640   4.388  1.00  0.00    -0.334 N 
HETATM    2  C   UNL     1      41.617 -16.226   3.277  1.00  0.00     0.316 C 
HETATM    3  N   UNL     1      40.329 -15.874   3.592  1.00  0.00    -0.339 N 
HETATM    4  O   UNL     1      42.092 -16.162   2.152  1.00  0.00    -0.247 OA
HETATM    5  H   UNL     1      41.754 -16.887   5.195  1.00  0.00     0.165 HD
HETATM    6  H   UNL     1      40.168 -15.618   4.552  1.00  0.00     0.164 HD
ENDROOT
BRANCH   3   7
HETATM    7  C   UNL     1      39.477 -15.231   2.614  1.00  0.00     0.163 C 
BRANCH   7   8
HETATM    8  C   UNL     1      39.764 -13.754   2.571  1.00  0.00    -0.035 A 
HETATM    9  C   UNL     1      40.137 -13.140   1.371  1.00  0.00     0.066 A 
HETATM   10  C   UNL     1      40.485 -11.801   1.395  1.00  0.00     0.164 A 
HETATM   11  N   UNL     1      40.475 -11.035   2.506  1.00  0.00    -0.237 NA
HETATM   12  C   UNL     1      40.098 -11.643   3.650  1.00  0.00     0.120 A 
HETATM   13  C   UNL     1      39.745 -12.982   3.735  1.00  0.00     0.028 A 
BRANCH  10  14
HETATM   14  O   UNL     1      40.872 -11.238   0.195  1.00  0.00    -0.329 OA
BRANCH  14  15
HETATM   15  C   UNL     1      40.520 -11.986  -0.989  1.00  0.00     0.130 C 
HETATM   16  C   UNL     1      39.306 -11.461  -1.802  1.00  0.00     0.032 C 
HETATM   17  C   UNL     1      40.097 -11.784  -3.081  1.00  0.00     0.005 C 
HETATM   18  C   UNL     1      41.379 -11.665  -2.240  1.00  0.00     0.032 C 
ENDBRANCH  14  15
ENDBRANCH  10  14
ENDBRANCH   7   8
ENDBRANCH   3   7
BRANCH   1  19
HETATM   19  C   UNL     1      43.671 -17.125   4.322  1.00  0.00     0.119 C 
BRANCH  19  20
HETATM   20  C   UNL     1      44.444 -16.731   5.598  1.00  0.00     0.025 C 
HETATM   21  C   UNL     1      43.851 -15.560   6.374  1.00  0.00     0.007 C 
ENDBRANCH  19  20
BRANCH  19  22
HETATM   22  C   UNL     1      43.769 -18.613   4.020  1.00  0.00    -0.033 A 
HETATM   23  C   UNL     1      43.649 -19.049   2.692  1.00  0.00     0.028 A 
HETATM   24  C   UNL     1      43.769 -20.402   2.411  1.00  0.00     0.116 A 
HETATM   25  N   UNL     1      44.000 -21.345   3.347  1.00  0.00    -0.273 NA
HETATM   26  C   UNL     1      44.104 -20.915   4.620  1.00  0.00     0.116 A 
HETATM   27  C   UNL     1      44.000 -19.584   5.000  1.00  0.00     0.028 A 
ENDBRANCH  19  22
ENDBRANCH   1  19
TORSDOF 7
ENDMDL
MODEL 10
REMARK VINA RESULT:      -7.0      3.485      5.450
REMARK  7 active torsions:
REMARK  status: ('A' for Active; 'I' for Inactive)
REMARK    1  A    between atoms: C_2  and  C_3 
REMARK    2  A    between atoms: C_3  and  N_4 
REMARK    3  A    between atoms: C_3  and  C_20 
REMARK       I    between atoms: N_4  and  C_5 
REMARK       I    between atoms: C_5  and  N_6 
REMARK    4  A    between atoms: N_6  and  C_7 
REMARK    5  A    between atoms: C_7  and  C_8 
REMARK    6  A    between atoms: C_10  and  O_11 
REMARK    7  A    between atoms: O_11  and  C_12 
ROOT
HETATM    1  N   UNL     1      42.932 -16.419   2.412  1.00  0.00    -0.334 N 
HETATM    2  C   UNL     1      41.821 -15.686   2.092  1.00  0.00     0.316 C 
HETATM    3  N   UNL     1      42.135 -14.659   1.237  1.00  0.00    -0.339 N 
HETATM    4  O   UNL     1      40.693 -15.921   2.499  1.00  0.00    -0.247 OA
HETATM    5  H   UNL     1      43.825 -15.997   2.227  1.00  0.00     0.165 HD
HETATM    6  H   UNL     1      42.976 -14.782   0.698  1.00  0.00     0.164 HD
ENDROOT
BRANCH   3   7
HETATM    7  C   UNL     1      41.094 -13.868   0.618  1.00  0.00     0.163 C 
BRANCH   7   8
HETATM    8  C   UNL     1      40.785 -12.664   1.466  1.00  0.00    -0.035 A 
HETATM    9  C   UNL     1      41.634 -12.303   2.518  1.00  0.00     0.066 A 
HETATM   10  C   UNL     1      41.263 -11.247   3.332  1.00  0.00     0.164 A 
HETATM   11  N   UNL     1      40.133 -10.527   3.172  1.00  0.00    -0.237 NA
HETATM   12  C   UNL     1      39.336 -10.882   2.144  1.00  0.00     0.120 A 
HETATM   13  C   UNL     1      39.609 -11.932   1.279  1.00  0.00     0.028 A 
BRANCH  10  14
HETATM   14  O   UNL     1      42.115 -10.937   4.374  1.00  0.00    -0.329 OA
BRANCH  14  15
HETATM   15  C   UNL     1      42.994 -12.000   4.800  1.00  0.00     0.130 C 
HETATM   16  C   UNL     1      44.291 -11.570   5.539  1.00  0.00     0.032 C 
HETATM   17  C   UNL     1      44.073 -12.758   6.491  1.00  0.00     0.005 C 
HETATM   18  C   UNL     1      42.580 -12.695   6.124  1.00  0.00     0.032 C 
ENDBRANCH  14  15
ENDBRANCH  10  14
ENDBRANCH   7   8
ENDBRANCH   3   7
BRANCH   1  19
HETATM   19  C   UNL     1      42.886 -17.531   3.349  1.00  0.00     0.119 C 
BRANCH  19  20
HETATM   20  C   UNL     1      43.887 -18.628   2.931  1.00  0.00     0.025 C 
HETATM   21  C   UNL     1      43.271 -19.822   2.207  1.00  0.00     0.007 C 
ENDBRANCH  19  20
BRANCH  19  22
HETATM   22  C   UNL     1      43.064 -17.104   4.798  1.00  0.00    -0.033 A 
HETATM   23  C   UNL     1      44.360 -17.005   5.326  1.00  0.00     0.028 A 
HETATM   24  C   UNL     1      44.526 -16.585   6.638  1.00  0.00     0.116 A 
HETATM   25  N   UNL     1      43.505 -16.257   7.455  1.00  0.00    -0.273 NA
HETATM   26  C   UNL     1      42.264 -16.365   6.939  1.00  0.00     0.116 A 
HETATM   27  C   UNL     1      41.997 -16.774   5.641  1.00  0.00     0.028 A 
ENDBRANCH  19  22
ENDBRANCH   1  19
TORSDOF 7
ENDMDL
