MODEL 1
REMARK VINA RESULT:      -9.9      0.000      0.000
REMARK  5 active torsions:
REMARK  status: ('A' for Active; 'I' for Inactive)
REMARK    1  A    between atoms: C_14  and  C_15 
REMARK    2  A    between atoms: C_15  and  C_16 
REMARK    3  A    between atoms: C_16  and  C_17 
REMARK       I    between atoms: C_17  and  N_18 
REMARK    4  A    between atoms: N_21  and  C_22 
REMARK    5  A    between atoms: C_23  and  O_24 
ROOT
HETATM    1  C   UNL     1      42.379 -15.019   1.906  1.00  0.00     0.051 C 
ENDROOT
BRANCH   1   2
HETATM    2  C   UNL     1      42.847 -15.699   3.160  1.00  0.00    -0.017 A 
HETATM    3  C   UNL     1      43.191 -17.095   3.234  1.00  0.00    -0.000 A 
HETATM    4  C   UNL     1      43.202 -18.153   2.298  1.00  0.00     0.021 A 
HETATM    5  C   UNL     1      43.598 -17.362   4.534  1.00  0.00     0.043 A 
HETATM    6  C   UNL     1      43.604 -19.440   2.695  1.00  0.00    -0.061 A 
HETATM    7  C   UNL     1      43.653 -20.560   1.697  1.00  0.00     0.048 C 
HETATM    8  C   UNL     1      44.013 -19.659   4.014  1.00  0.00     0.009 A 
HETATM    9  C   UNL     1      44.014 -18.628   4.958  1.00  0.00     0.031 A 
HETATM   10  N   UNL     1      43.510 -16.182   5.225  1.00  0.00    -0.354 N 
HETATM   11  H   UNL     1      43.755 -16.069   6.198  1.00  0.00     0.166 HD
HETATM   12  C   UNL     1      43.055 -15.155   4.425  1.00  0.00     0.057 A 
HETATM   13  C   UNL     1      42.890 -13.822   4.956  1.00  0.00     0.032 A 
HETATM   14  S   UNL     1      43.664 -13.350   6.425  1.00  0.00    -0.100 SA
HETATM   15  C   UNL     1      42.148 -12.772   4.447  1.00  0.00     0.021 A 
HETATM   16  C   UNL     1      43.019 -11.772   6.352  1.00  0.00     0.050 A 
HETATM   17  C   UNL     1      42.224 -11.592   5.246  1.00  0.00     0.008 A 
ENDBRANCH   1   2
BRANCH   1  18
HETATM   18  C   UNL     1      40.925 -15.361   1.576  1.00  0.00     0.108 C 
BRANCH  18  19
HETATM   19  C   UNL     1      40.035 -14.132   1.627  1.00  0.00     0.220 C 
HETATM   20  N   UNL     1      39.797 -13.478   0.426  1.00  0.00    -0.349 N 
HETATM   21  C   UNL     1      40.455 -13.775  -0.852  1.00  0.00     0.145 C 
HETATM   22  C   UNL     1      39.067 -12.205   0.448  1.00  0.00     0.145 C 
HETATM   23  C   UNL     1      39.510 -13.607  -2.061  1.00  0.00     0.143 C 
HETATM   24  N   UNL     1      38.706 -12.366  -2.030  1.00  0.00    -0.376 N 
HETATM   25  C   UNL     1      38.067 -12.101  -0.712  1.00  0.00     0.143 C 
HETATM   26  O   UNL     1      39.542 -13.747   2.686  1.00  0.00    -0.273 OA
BRANCH  24  27
HETATM   27  C   UNL     1      39.179 -11.220  -2.687  1.00  0.00     0.063 A 
HETATM   28  C   UNL     1      38.271 -10.442  -3.433  1.00  0.00     0.092 A 
HETATM   29  C   UNL     1      38.637  -9.270  -4.088  1.00  0.00     0.039 A 
HETATM   30  C   UNL     1      39.962  -8.855  -4.034  1.00  0.00     0.003 A 
HETATM   31  C   UNL     1      40.897  -9.617  -3.335  1.00  0.00     0.002 A 
HETATM   32  C   UNL     1      40.510 -10.791  -2.673  1.00  0.00     0.032 A 
BRANCH  28  33
HETATM   33  O   UNL     1      36.979 -10.882  -3.580  1.00  0.00    -0.358 OA
HETATM   34  H   UNL     1      36.639 -10.320  -4.305  1.00  0.00     0.218 HD
ENDBRANCH  28  33
ENDBRANCH  24  27
ENDBRANCH  18  19
ENDBRANCH   1  18
TORSDOF 5
ENDMDL
MODEL 2
REMARK VINA RESULT:      -9.4      1.509      4.215
REMARK  5 active torsions:
REMARK  status: ('A' for Active; 'I' for Inactive)
REMARK    1  A    between atoms: C_14  and  C_15 
REMARK    2  A    between atoms: C_15  and  C_16 
REMARK    3  A    between atoms: C_16  and  C_17 
REMARK       I    between atoms: C_17  and  N_18 
REMARK    4  A    between atoms: N_21  and  C_22 
REMARK    5  A    between atoms: C_23  and  O_24 
ROOT
HETATM    1  C   UNL     1      42.377 -15.739   2.089  1.00  0.00     0.051 C 
ENDROOT
BRANCH   1   2
HETATM    2  C   UNL     1      42.972 -15.960   3.450  1.00  0.00    -0.017 A 
HETATM    3  C   UNL     1      43.106 -14.926   4.443  1.00  0.00    -0.000 A 
HETATM    4  C   UNL     1      42.782 -13.551   4.477  1.00  0.00     0.021 A 
HETATM    5  C   UNL     1      43.672 -15.497   5.574  1.00  0.00     0.043 A 
HETATM    6  C   UNL     1      43.047 -12.794   5.631  1.00  0.00    -0.061 A 
HETATM    7  C   UNL     1      42.670 -11.342   5.688  1.00  0.00     0.048 C 
HETATM    8  C   UNL     1      43.611 -13.414   6.750  1.00  0.00     0.009 A 
HETATM    9  C   UNL     1      43.938 -14.774   6.742  1.00  0.00     0.031 A 
HETATM   10  N   UNL     1      43.873 -16.822   5.289  1.00  0.00    -0.354 N 
HETATM   11  H   UNL     1      44.264 -17.493   5.934  1.00  0.00     0.166 HD
HETATM   12  C   UNL     1      43.464 -17.136   4.011  1.00  0.00     0.057 A 
HETATM   13  C   UNL     1      43.585 -18.484   3.506  1.00  0.00     0.032 A 
HETATM   14  S   UNL     1      43.798 -19.818   4.580  1.00  0.00    -0.100 SA
HETATM   15  C   UNL     1      43.563 -18.924   2.196  1.00  0.00     0.021 A 
HETATM   16  C   UNL     1      43.843 -20.946   3.301  1.00  0.00     0.050 A 
HETATM   17  C   UNL     1      43.709 -20.338   2.076  1.00  0.00     0.008 A 
ENDBRANCH   1   2
BRANCH   1  18
HETATM   18  C   UNL     1      40.856 -15.892   2.097  1.00  0.00     0.108 C 
BRANCH  18  19
HETATM   19  C   UNL     1      40.158 -14.549   2.209  1.00  0.00     0.220 C 
HETATM   20  N   UNL     1      39.909 -13.868   1.026  1.00  0.00    -0.349 N 
HETATM   21  C   UNL     1      40.402 -14.257  -0.301  1.00  0.00     0.145 C 
HETATM   22  C   UNL     1      39.372 -12.504   1.095  1.00  0.00     0.145 C 
HETATM   23  C   UNL     1      39.387 -13.957  -1.425  1.00  0.00     0.143 C 
HETATM   24  N   UNL     1      38.773 -12.614  -1.340  1.00  0.00    -0.376 N 
HETATM   25  C   UNL     1      38.298 -12.260   0.025  1.00  0.00     0.143 C 
HETATM   26  O   UNL     1      39.820 -14.097   3.303  1.00  0.00    -0.273 OA
BRANCH  24  27
HETATM   27  C   UNL     1      39.344 -11.548  -2.051  1.00  0.00     0.063 A 
HETATM   28  C   UNL     1      38.568 -10.889  -3.027  1.00  0.00     0.092 A 
HETATM   29  C   UNL     1      39.033  -9.801  -3.757  1.00  0.00     0.039 A 
HETATM   30  C   UNL     1      40.330  -9.350  -3.542  1.00  0.00     0.003 A 
HETATM   31  C   UNL     1      41.140  -9.997  -2.609  1.00  0.00     0.002 A 
HETATM   32  C   UNL     1      40.653 -11.088  -1.875  1.00  0.00     0.032 A 
BRANCH  28  33
HETATM   33  O   UNL     1      37.319 -11.376  -3.325  1.00  0.00    -0.358 OA
HETATM   34  H   UNL     1      37.512 -12.266  -3.681  1.00  0.00     0.218 HD
ENDBRANCH  28  33
ENDBRANCH  24  27
ENDBRANCH  18  19
ENDBRANCH   1  18
TORSDOF 5
ENDMDL
MODEL 3
REMARK VINA RESULT:      -8.8      2.950      4.436
REMARK  5 active torsions:
REMARK  status: ('A' for Active; 'I' for Inactive)
REMARK    1  A    between atoms: C_14  and  C_15 
REMARK    2  A    between atoms: C_15  and  C_16 
REMARK    3  A    between atoms: C_16  and  C_17 
REMARK       I    between atoms: C_17  and  N_18 
REMARK    4  A    between atoms: N_21  and  C_22 
REMARK    5  A    between atoms: C_23  and  O_24 
ROOT
HETATM    1  C   UNL     1      41.269 -10.968   6.251  1.00  0.00     0.051 C 
ENDROOT
BRANCH   1   2
HETATM    2  C   UNL     1      42.386 -11.958   6.418  1.00  0.00    -0.017 A 
HETATM    3  C   UNL     1      42.307 -13.333   5.999  1.00  0.00    -0.000 A 
HETATM    4  C   UNL     1      41.303 -14.115   5.385  1.00  0.00     0.021 A 
HETATM    5  C   UNL     1      43.524 -13.934   6.290  1.00  0.00     0.043 A 
HETATM    6  C   UNL     1      41.544 -15.469   5.096  1.00  0.00    -0.061 A 
HETATM    7  C   UNL     1      40.496 -16.296   4.411  1.00  0.00     0.048 C 
HETATM    8  C   UNL     1      42.788 -16.029   5.400  1.00  0.00     0.009 A 
HETATM    9  C   UNL     1      43.799 -15.276   6.006  1.00  0.00     0.031 A 
HETATM   10  N   UNL     1      44.314 -12.970   6.858  1.00  0.00    -0.354 N 
HETATM   11  H   UNL     1      45.266 -13.116   7.163  1.00  0.00     0.166 HD
HETATM   12  C   UNL     1      43.656 -11.763   6.954  1.00  0.00     0.057 A 
HETATM   13  C   UNL     1      44.311 -10.607   7.523  1.00  0.00     0.032 A 
HETATM   14  S   UNL     1      46.028 -10.545   7.676  1.00  0.00    -0.100 SA
HETATM   15  C   UNL     1      43.745  -9.446   8.015  1.00  0.00     0.021 A 
HETATM   16  C   UNL     1      45.993  -8.988   8.371  1.00  0.00     0.050 A 
HETATM   17  C   UNL     1      44.710  -8.513   8.500  1.00  0.00     0.008 A 
ENDBRANCH   1   2
BRANCH   1  18
HETATM   18  C   UNL     1      41.490 -10.053   5.046  1.00  0.00     0.108 C 
BRANCH  18  19
HETATM   19  C   UNL     1      40.295 -10.060   4.110  1.00  0.00     0.220 C 
HETATM   20  N   UNL     1      40.358 -10.911   3.015  1.00  0.00    -0.349 N 
HETATM   21  C   UNL     1      41.538 -11.680   2.600  1.00  0.00     0.145 C 
HETATM   22  C   UNL     1      39.296 -10.843   2.005  1.00  0.00     0.145 C 
HETATM   23  C   UNL     1      41.174 -13.065   2.024  1.00  0.00     0.143 C 
HETATM   24  N   UNL     1      40.055 -13.040   1.056  1.00  0.00    -0.376 N 
HETATM   25  C   UNL     1      38.887 -12.240   1.514  1.00  0.00     0.143 C 
HETATM   26  O   UNL     1      39.314  -9.349   4.324  1.00  0.00    -0.273 OA
BRANCH  24  27
HETATM   27  C   UNL     1      40.332 -12.930  -0.315  1.00  0.00     0.063 A 
HETATM   28  C   UNL     1      39.844 -13.926  -1.187  1.00  0.00     0.092 A 
HETATM   29  C   UNL     1      40.034 -13.886  -2.564  1.00  0.00     0.039 A 
HETATM   30  C   UNL     1      40.761 -12.836  -3.114  1.00  0.00     0.003 A 
HETATM   31  C   UNL     1      41.290 -11.851  -2.280  1.00  0.00     0.002 A 
HETATM   32  C   UNL     1      41.080 -11.901  -0.894  1.00  0.00     0.032 A 
BRANCH  28  33
HETATM   33  O   UNL     1      39.206 -15.020  -0.659  1.00  0.00    -0.358 OA
HETATM   34  H   UNL     1      38.532 -15.228  -1.337  1.00  0.00     0.218 HD
ENDBRANCH  28  33
ENDBRANCH  24  27
ENDBRANCH  18  19
ENDBRANCH   1  18
TORSDOF 5
ENDMDL
MODEL 4
REMARK VINA RESULT:      -8.7      1.949      2.404
REMARK  5 active torsions:
REMARK  status: ('A' for Active; 'I' for Inactive)
REMARK    1  A    between atoms: C_14  and  C_15 
REMARK    2  A    between atoms: C_15  and  C_16 
REMARK    3  A    between atoms: C_16  and  C_17 
REMARK       I    between atoms: C_17  and  N_18 
REMARK    4  A    between atoms: N_21  and  C_22 
REMARK    5  A    between atoms: C_23  and  O_24 
ROOT
HETATM    1  C   UNL     1      39.866 -14.946   2.600  1.00  0.00     0.051 C 
ENDROOT
BRANCH   1   2
HETATM    2  C   UNL     1      41.058 -15.093   3.501  1.00  0.00    -0.017 A 
HETATM    3  C   UNL     1      41.972 -16.204   3.446  1.00  0.00    -0.000 A 
HETATM    4  C   UNL     1      42.052 -17.370   2.652  1.00  0.00     0.021 A 
HETATM    5  C   UNL     1      42.954 -15.992   4.404  1.00  0.00     0.043 A 
HETATM    6  C   UNL     1      43.099 -18.286   2.850  1.00  0.00    -0.061 A 
HETATM    7  C   UNL     1      43.211 -19.507   1.984  1.00  0.00     0.048 C 
HETATM    8  C   UNL     1      44.070 -18.026   3.821  1.00  0.00     0.009 A 
HETATM    9  C   UNL     1      44.015 -16.878   4.619  1.00  0.00     0.031 A 
HETATM   10  N   UNL     1      42.657 -14.803   5.016  1.00  0.00    -0.354 N 
HETATM   11  H   UNL     1      43.208 -14.384   5.752  1.00  0.00     0.166 HD
HETATM   12  C   UNL     1      41.514 -14.233   4.498  1.00  0.00     0.057 A 
HETATM   13  C   UNL     1      41.022 -12.972   5.001  1.00  0.00     0.032 A 
HETATM   14  S   UNL     1      42.045 -11.919   5.909  1.00  0.00    -0.100 SA
HETATM   15  C   UNL     1      39.761 -12.420   4.873  1.00  0.00     0.021 A 
HETATM   16  C   UNL     1      40.812 -10.755   6.103  1.00  0.00     0.050 A 
HETATM   17  C   UNL     1      39.639 -11.145   5.503  1.00  0.00     0.008 A 
ENDBRANCH   1   2
BRANCH   1  18
HETATM   18  C   UNL     1      40.222 -14.242   1.290  1.00  0.00     0.108 C 
BRANCH  18  19
HETATM   19  C   UNL     1      39.592 -12.864   1.205  1.00  0.00     0.220 C 
HETATM   20  N   UNL     1      40.064 -12.016   0.212  1.00  0.00    -0.349 N 
HETATM   21  C   UNL     1      41.221 -12.278  -0.652  1.00  0.00     0.145 C 
HETATM   22  C   UNL     1      39.592 -10.627   0.186  1.00  0.00     0.145 C 
HETATM   23  C   UNL     1      41.026 -11.740  -2.086  1.00  0.00     0.143 C 
HETATM   24  N   UNL     1      40.481 -10.367  -2.146  1.00  0.00    -0.376 N 
HETATM   25  C   UNL     1      39.317 -10.146  -1.246  1.00  0.00     0.143 C 
HETATM   26  O   UNL     1      38.696 -12.525   1.977  1.00  0.00    -0.273 OA
BRANCH  24  27
HETATM   27  C   UNL     1      41.362  -9.278  -2.234  1.00  0.00     0.063 A 
HETATM   28  C   UNL     1      41.363  -8.499  -3.409  1.00  0.00     0.092 A 
HETATM   29  C   UNL     1      42.173  -7.380  -3.576  1.00  0.00     0.039 A 
HETATM   30  C   UNL     1      43.044  -7.022  -2.554  1.00  0.00     0.003 A 
HETATM   31  C   UNL     1      43.097  -7.788  -1.391  1.00  0.00     0.002 A 
HETATM   32  C   UNL     1      42.267  -8.908  -1.235  1.00  0.00     0.032 A 
BRANCH  28  33
HETATM   33  O   UNL     1      40.581  -8.888  -4.468  1.00  0.00    -0.358 OA
HETATM   34  H   UNL     1      40.891  -8.308  -5.193  1.00  0.00     0.218 HD
ENDBRANCH  28  33
ENDBRANCH  24  27
ENDBRANCH  18  19
ENDBRANCH   1  18
TORSDOF 5
ENDMDL
MODEL 5
REMARK VINA RESULT:      -8.4      3.918      9.381
REMARK  5 active torsions:
REMARK  status: ('A' for Active; 'I' for Inactive)
REMARK    1  A    between atoms: C_14  and  C_15 
REMARK    2  A    between atoms: C_15  and  C_16 
REMARK    3  A    between atoms: C_16  and  C_17 
REMARK       I    between atoms: C_17  and  N_18 
REMARK    4  A    between atoms: N_21  and  C_22 
REMARK    5  A    between atoms: C_23  and  O_24 
ROOT
HETATM    1  C   UNL     1      41.763 -14.168   4.955  1.00  0.00     0.051 C 
ENDROOT
BRANCH   1   2
HETATM    2  C   UNL     1      41.596 -14.842   3.624  1.00  0.00    -0.017 A 
HETATM    3  C   UNL     1      40.884 -14.261   2.516  1.00  0.00    -0.000 A 
HETATM    4  C   UNL     1      40.192 -13.044   2.325  1.00  0.00     0.021 A 
HETATM    5  C   UNL     1      40.955 -15.152   1.454  1.00  0.00     0.043 A 
HETATM    6  C   UNL     1      39.586 -12.766   1.087  1.00  0.00    -0.061 A 
HETATM    7  C   UNL     1      38.882 -11.459   0.866  1.00  0.00     0.048 C 
HETATM    8  C   UNL     1      39.691 -13.690   0.044  1.00  0.00     0.009 A 
HETATM    9  C   UNL     1      40.373 -14.900   0.207  1.00  0.00     0.031 A 
HETATM   10  N   UNL     1      41.682 -16.228   1.890  1.00  0.00    -0.354 N 
HETATM   11  H   UNL     1      41.908 -17.034   1.324  1.00  0.00     0.166 HD
HETATM   12  C   UNL     1      42.083 -16.076   3.200  1.00  0.00     0.057 A 
HETATM   13  C   UNL     1      42.865 -17.098   3.857  1.00  0.00     0.032 A 
HETATM   14  S   UNL     1      43.705 -18.297   2.944  1.00  0.00    -0.100 SA
HETATM   15  C   UNL     1      43.064 -17.299   5.210  1.00  0.00     0.021 A 
HETATM   16  C   UNL     1      44.326 -19.046   4.346  1.00  0.00     0.050 A 
HETATM   17  C   UNL     1      43.907 -18.416   5.493  1.00  0.00     0.008 A 
ENDBRANCH   1   2
BRANCH   1  18
HETATM   18  C   UNL     1      42.679 -12.947   4.869  1.00  0.00     0.108 C 
BRANCH  18  19
HETATM   19  C   UNL     1      41.992 -11.694   5.379  1.00  0.00     0.220 C 
HETATM   20  N   UNL     1      42.538 -11.089   6.503  1.00  0.00    -0.349 N 
HETATM   21  C   UNL     1      43.618 -11.643   7.328  1.00  0.00     0.145 C 
HETATM   22  C   UNL     1      41.823  -9.965   7.119  1.00  0.00     0.145 C 
HETATM   23  C   UNL     1      44.570 -10.556   7.871  1.00  0.00     0.143 C 
HETATM   24  N   UNL     1      43.879  -9.375   8.433  1.00  0.00    -0.376 N 
HETATM   25  C   UNL     1      42.785  -8.856   7.568  1.00  0.00     0.143 C 
HETATM   26  O   UNL     1      41.002 -11.233   4.810  1.00  0.00    -0.273 OA
BRANCH  24  27
HETATM   27  C   UNL     1      43.604  -9.326   9.808  1.00  0.00     0.063 A 
HETATM   28  C   UNL     1      43.377  -8.071  10.410  1.00  0.00     0.092 A 
HETATM   29  C   UNL     1      43.063  -7.922  11.757  1.00  0.00     0.039 A 
HETATM   30  C   UNL     1      42.993  -9.054  12.561  1.00  0.00     0.003 A 
HETATM   31  C   UNL     1      43.245 -10.310  12.010  1.00  0.00     0.002 A 
HETATM   32  C   UNL     1      43.553 -10.443  10.647  1.00  0.00     0.032 A 
BRANCH  28  33
HETATM   33  O   UNL     1      43.534  -6.933   9.659  1.00  0.00    -0.358 OA
HETATM   34  H   UNL     1      43.446  -7.263   8.742  1.00  0.00     0.218 HD
ENDBRANCH  28  33
ENDBRANCH  24  27
ENDBRANCH  18  19
ENDBRANCH   1  18
TORSDOF 5
ENDMDL
MODEL 6
REMARK VINA RESULT:      -8.2      3.503      8.418
REMARK  5 active torsions:
REMARK  status: ('A' for Active; 'I' for Inactive)
REMARK    1  A    between atoms: C_14  and  C_15 
REMARK    2  A    between atoms: C_15  and  C_16 
REMARK    3  A    between atoms: C_16  and  C_17 
REMARK       I    between atoms: C_17  and  N_18 
REMARK    4  A    between atoms: N_21  and  C_22 
REMARK    5  A    between atoms: C_23  and  O_24 
ROOT
HETATM    1  C   UNL     1      39.448 -13.498   3.164  1.00  0.00     0.051 C 
ENDROOT
BRANCH   1   2
HETATM    2  C   UNL     1      40.424 -14.170   2.242  1.00  0.00    -0.017 A 
HETATM    3  C   UNL     1      41.382 -15.155   2.670  1.00  0.00    -0.000 A 
HETATM    4  C   UNL     1      41.696 -15.741   3.917  1.00  0.00     0.021 A 
HETATM    5  C   UNL     1      42.094 -15.567   1.552  1.00  0.00     0.043 A 
HETATM    6  C   UNL     1      42.715 -16.705   4.005  1.00  0.00    -0.061 A 
HETATM    7  C   UNL     1      43.028 -17.359   5.320  1.00  0.00     0.048 C 
HETATM    8  C   UNL     1      43.400 -17.094   2.850  1.00  0.00     0.009 A 
HETATM    9  C   UNL     1      43.106 -16.531   1.604  1.00  0.00     0.031 A 
HETATM   10  N   UNL     1      41.593 -14.867   0.486  1.00  0.00    -0.354 N 
HETATM   11  H   UNL     1      41.912 -14.968  -0.467  1.00  0.00     0.166 HD
HETATM   12  C   UNL     1      40.583 -14.010   0.868  1.00  0.00     0.057 A 
HETATM   13  C   UNL     1      39.913 -13.176  -0.104  1.00  0.00     0.032 A 
HETATM   14  S   UNL     1      40.006 -13.530  -1.790  1.00  0.00    -0.100 SA
HETATM   15  C   UNL     1      39.151 -12.042   0.106  1.00  0.00     0.021 A 
HETATM   16  C   UNL     1      39.031 -12.194  -2.207  1.00  0.00     0.050 A 
HETATM   17  C   UNL     1      38.640 -11.478  -1.101  1.00  0.00     0.008 A 
ENDBRANCH   1   2
BRANCH   1  18
HETATM   18  C   UNL     1      40.012 -13.333   4.576  1.00  0.00     0.108 C 
BRANCH  18  19
HETATM   19  C   UNL     1      39.948 -11.889   5.040  1.00  0.00     0.220 C 
HETATM   20  N   UNL     1      41.011 -11.426   5.804  1.00  0.00    -0.349 N 
HETATM   21  C   UNL     1      42.104 -12.251   6.332  1.00  0.00     0.145 C 
HETATM   22  C   UNL     1      40.923 -10.087   6.398  1.00  0.00     0.145 C 
HETATM   23  C   UNL     1      43.458 -11.511   6.339  1.00  0.00     0.143 C 
HETATM   24  N   UNL     1      43.389 -10.130   6.865  1.00  0.00    -0.376 N 
HETATM   25  C   UNL     1      42.260  -9.336   6.309  1.00  0.00     0.143 C 
HETATM   26  O   UNL     1      39.000 -11.165   4.738  1.00  0.00    -0.273 OA
BRANCH  24  27
HETATM   27  C   UNL     1      43.651  -9.895   8.223  1.00  0.00     0.063 A 
HETATM   28  C   UNL     1      44.991  -9.894   8.665  1.00  0.00     0.092 A 
HETATM   29  C   UNL     1      45.353  -9.636   9.983  1.00  0.00     0.039 A 
HETATM   30  C   UNL     1      44.356  -9.393  10.920  1.00  0.00     0.003 A 
HETATM   31  C   UNL     1      43.018  -9.420  10.529  1.00  0.00     0.002 A 
HETATM   32  C   UNL     1      42.670  -9.673   9.193  1.00  0.00     0.032 A 
BRANCH  28  33
HETATM   33  O   UNL     1      45.985 -10.226   7.779  1.00  0.00    -0.358 OA
HETATM   34  H   UNL     1      46.530  -9.413   7.750  1.00  0.00     0.218 HD
ENDBRANCH  28  33
ENDBRANCH  24  27
ENDBRANCH  18  19
ENDBRANCH   1  18
TORSDOF 5
ENDMDL
MODEL 7
REMARK VINA RESULT:      -8.2      4.947      8.851
REMARK  5 active torsions:
REMARK  status: ('A' for Active; 'I' for Inactive)
REMARK    1  A    between atoms: C_14  and  C_15 
REMARK    2  A    between atoms: C_15  and  C_16 
REMARK    3  A    between atoms: C_16  and  C_17 
REMARK       I    between atoms: C_17  and  N_18 
REMARK    4  A    between atoms: N_21  and  C_22 
REMARK    5  A    between atoms: C_23  and  O_24 
ROOT
HETATM    1  C   UNL     1      41.007  -8.130   7.924  1.00  0.00     0.051 C 
ENDROOT
BRANCH   1   2
HETATM    2  C   UNL     1      41.810  -8.382   9.167  1.00  0.00    -0.017 A 
HETATM    3  C   UNL     1      43.099  -9.023   9.172  1.00  0.00    -0.000 A 
HETATM    4  C   UNL     1      43.930  -9.562   8.164  1.00  0.00     0.021 A 
HETATM    5  C   UNL     1      43.547  -9.064  10.485  1.00  0.00     0.043 A 
HETATM    6  C   UNL     1      45.169 -10.133   8.504  1.00  0.00    -0.061 A 
HETATM    7  C   UNL     1      46.073 -10.674   7.435  1.00  0.00     0.048 C 
HETATM    8  C   UNL     1      45.581 -10.145   9.840  1.00  0.00     0.009 A 
HETATM    9  C   UNL     1      44.778  -9.615  10.855  1.00  0.00     0.031 A 
HETATM   10  N   UNL     1      42.576  -8.472  11.251  1.00  0.00    -0.354 N 
HETATM   11  H   UNL     1      42.633  -8.348  12.252  1.00  0.00     0.166 HD
HETATM   12  C   UNL     1      41.510  -8.051  10.486  1.00  0.00     0.057 A 
HETATM   13  C   UNL     1      40.375  -7.398  11.096  1.00  0.00     0.032 A 
HETATM   14  S   UNL     1      40.489  -6.712  12.676  1.00  0.00    -0.100 SA
HETATM   15  C   UNL     1      39.101  -7.219  10.588  1.00  0.00     0.021 A 
HETATM   16  C   UNL     1      38.867  -6.183  12.652  1.00  0.00     0.050 A 
HETATM   17  C   UNL     1      38.235  -6.518  11.479  1.00  0.00     0.008 A 
ENDBRANCH   1   2
BRANCH   1  18
HETATM   18  C   UNL     1      40.481  -9.428   7.308  1.00  0.00     0.108 C 
BRANCH  18  19
HETATM   19  C   UNL     1      40.933  -9.589   5.869  1.00  0.00     0.220 C 
HETATM   20  N   UNL     1      40.834 -10.858   5.316  1.00  0.00    -0.349 N 
HETATM   21  C   UNL     1      40.483 -12.081   6.048  1.00  0.00     0.145 C 
HETATM   22  C   UNL     1      41.396 -11.094   3.981  1.00  0.00     0.145 C 
HETATM   23  C   UNL     1      39.632 -13.056   5.206  1.00  0.00     0.143 C 
HETATM   24  N   UNL     1      40.133 -13.257   3.828  1.00  0.00    -0.376 N 
HETATM   25  C   UNL     1      40.486 -11.991   3.130  1.00  0.00     0.143 C 
HETATM   26  O   UNL     1      41.356  -8.630   5.223  1.00  0.00    -0.273 OA
BRANCH  24  27
HETATM   27  C   UNL     1      40.996 -14.330   3.557  1.00  0.00     0.063 A 
HETATM   28  C   UNL     1      40.526 -15.395   2.762  1.00  0.00     0.092 A 
HETATM   29  C   UNL     1      41.316 -16.484   2.409  1.00  0.00     0.039 A 
HETATM   30  C   UNL     1      42.623 -16.547   2.880  1.00  0.00     0.003 A 
HETATM   31  C   UNL     1      43.113 -15.530   3.697  1.00  0.00     0.002 A 
HETATM   32  C   UNL     1      42.305 -14.434   4.037  1.00  0.00     0.032 A 
BRANCH  28  33
HETATM   33  O   UNL     1      39.212 -15.401   2.365  1.00  0.00    -0.358 OA
HETATM   34  H   UNL     1      39.215 -14.805   1.589  1.00  0.00     0.218 HD
ENDBRANCH  28  33
ENDBRANCH  24  27
ENDBRANCH  18  19
ENDBRANCH   1  18
TORSDOF 5
ENDMDL
MODEL 8
REMARK VINA RESULT:      -8.1      3.166      8.439
REMARK  5 active torsions:
REMARK  status: ('A' for Active; 'I' for Inactive)
REMARK    1  A    between atoms: C_14  and  C_15 
REMARK    2  A    between atoms: C_15  and  C_16 
REMARK    3  A    between atoms: C_16  and  C_17 
REMARK       I    between atoms: C_17  and  N_18 
REMARK    4  A    between atoms: N_21  and  C_22 
REMARK    5  A    between atoms: C_23  and  O_24 
ROOT
HETATM    1  C   UNL     1      39.316 -10.681   1.410  1.00  0.00     0.051 C 
ENDROOT
BRANCH   1   2
HETATM    2  C   UNL     1      39.947 -10.662   0.048  1.00  0.00    -0.017 A 
HETATM    3  C   UNL     1      39.993 -11.802  -0.829  1.00  0.00    -0.000 A 
HETATM    4  C   UNL     1      39.536 -13.135  -0.729  1.00  0.00     0.021 A 
HETATM    5  C   UNL     1      40.628 -11.410  -2.000  1.00  0.00     0.043 A 
HETATM    6  C   UNL     1      39.741 -14.031  -1.794  1.00  0.00    -0.061 A 
HETATM    7  C   UNL     1      39.225 -15.438  -1.709  1.00  0.00     0.048 C 
HETATM    8  C   UNL     1      40.378 -13.588  -2.956  1.00  0.00     0.009 A 
HETATM    9  C   UNL     1      40.837 -12.273  -3.081  1.00  0.00     0.031 A 
HETATM   10  N   UNL     1      40.953 -10.088  -1.848  1.00  0.00    -0.354 N 
HETATM   11  H   UNL     1      41.417  -9.528  -2.550  1.00  0.00     0.166 HD
HETATM   12  C   UNL     1      40.560  -9.604  -0.619  1.00  0.00     0.057 A 
HETATM   13  C   UNL     1      40.805  -8.228  -0.253  1.00  0.00     0.032 A 
HETATM   14  S   UNL     1      41.163  -7.041  -1.453  1.00  0.00    -0.100 SA
HETATM   15  C   UNL     1      40.810  -7.653   1.005  1.00  0.00     0.021 A 
HETATM   16  C   UNL     1      41.301  -5.794  -0.296  1.00  0.00     0.050 A 
HETATM   17  C   UNL     1      41.091  -6.254   0.981  1.00  0.00     0.008 A 
ENDBRANCH   1   2
BRANCH   1  18
HETATM   18  C   UNL     1      40.313 -11.077   2.499  1.00  0.00     0.108 C 
BRANCH  18  19
HETATM   19  C   UNL     1      39.863 -12.318   3.247  1.00  0.00     0.220 C 
HETATM   20  N   UNL     1      40.813 -13.311   3.448  1.00  0.00    -0.349 N 
HETATM   21  C   UNL     1      42.160 -13.332   2.865  1.00  0.00     0.145 C 
HETATM   22  C   UNL     1      40.388 -14.588   4.032  1.00  0.00     0.145 C 
HETATM   23  C   UNL     1      43.213 -13.931   3.821  1.00  0.00     0.143 C 
HETATM   24  N   UNL     1      42.784 -15.182   4.483  1.00  0.00    -0.376 N 
HETATM   25  C   UNL     1      41.409 -15.117   5.049  1.00  0.00     0.143 C 
HETATM   26  O   UNL     1      38.711 -12.428   3.664  1.00  0.00    -0.273 OA
BRANCH  24  27
HETATM   27  C   UNL     1      43.117 -16.417   3.906  1.00  0.00     0.063 A 
HETATM   28  C   UNL     1      43.976 -17.286   4.611  1.00  0.00     0.092 A 
HETATM   29  C   UNL     1      44.334 -18.544   4.139  1.00  0.00     0.039 A 
HETATM   30  C   UNL     1      43.851 -18.963   2.905  1.00  0.00     0.003 A 
HETATM   31  C   UNL     1      43.027 -18.119   2.163  1.00  0.00     0.002 A 
HETATM   32  C   UNL     1      42.668 -16.855   2.657  1.00  0.00     0.032 A 
BRANCH  28  33
HETATM   33  O   UNL     1      44.542 -16.856   5.785  1.00  0.00    -0.358 OA
HETATM   34  H   UNL     1      43.809 -16.948   6.427  1.00  0.00     0.218 HD
ENDBRANCH  28  33
ENDBRANCH  24  27
ENDBRANCH  18  19
ENDBRANCH   1  18
TORSDOF 5
ENDMDL
MODEL 9
REMARK VINA RESULT:      -8.1      2.733      6.052
REMARK  5 active torsions:
REMARK  status: ('A' for Active; 'I' for Inactive)
REMARK    1  A    between atoms: C_14  and  C_15 
REMARK    2  A    between atoms: C_15  and  C_16 
REMARK    3  A    between atoms: C_16  and  C_17 
REMARK       I    between atoms: C_17  and  N_18 
REMARK    4  A    between atoms: N_21  and  C_22 
REMARK    5  A    between atoms: C_23  and  O_24 
ROOT
HETATM    1  C   UNL     1      41.150 -11.470   6.206  1.00  0.00     0.051 C 
ENDROOT
BRANCH   1   2
HETATM    2  C   UNL     1      42.572 -11.750   6.600  1.00  0.00    -0.017 A 
HETATM    3  C   UNL     1      43.424 -10.794   7.257  1.00  0.00    -0.000 A 
HETATM    4  C   UNL     1      43.251  -9.460   7.689  1.00  0.00     0.021 A 
HETATM    5  C   UNL     1      44.649 -11.405   7.484  1.00  0.00     0.043 A 
HETATM    6  C   UNL     1      44.308  -8.781   8.318  1.00  0.00    -0.061 A 
HETATM    7  C   UNL     1      44.119  -7.376   8.812  1.00  0.00     0.048 C 
HETATM    8  C   UNL     1      45.522  -9.440   8.533  1.00  0.00     0.009 A 
HETATM    9  C   UNL     1      45.717 -10.761   8.117  1.00  0.00     0.031 A 
HETATM   10  N   UNL     1      44.551 -12.680   6.992  1.00  0.00    -0.354 N 
HETATM   11  H   UNL     1      45.291 -13.367   7.028  1.00  0.00     0.166 HD
HETATM   12  C   UNL     1      43.309 -12.921   6.446  1.00  0.00     0.057 A 
HETATM   13  C   UNL     1      42.991 -14.208   5.870  1.00  0.00     0.032 A 
HETATM   14  S   UNL     1      43.939 -15.602   6.237  1.00  0.00    -0.100 SA
HETATM   15  C   UNL     1      41.973 -14.538   4.995  1.00  0.00     0.021 A 
HETATM   16  C   UNL     1      42.983 -16.613   5.249  1.00  0.00     0.050 A 
HETATM   17  C   UNL     1      41.965 -15.920   4.639  1.00  0.00     0.008 A 
ENDBRANCH   1   2
BRANCH   1  18
HETATM   18  C   UNL     1      41.051 -10.331   5.190  1.00  0.00     0.108 C 
BRANCH  18  19
HETATM   19  C   UNL     1      39.854 -10.502   4.272  1.00  0.00     0.220 C 
HETATM   20  N   UNL     1      40.048 -11.248   3.117  1.00  0.00    -0.349 N 
HETATM   21  C   UNL     1      41.340 -11.747   2.632  1.00  0.00     0.145 C 
HETATM   22  C   UNL     1      38.965 -11.315   2.129  1.00  0.00     0.145 C 
HETATM   23  C   UNL     1      41.229 -13.132   1.961  1.00  0.00     0.143 C 
HETATM   24  N   UNL     1      40.101 -13.254   1.012  1.00  0.00    -0.376 N 
HETATM   25  C   UNL     1      38.815 -12.726   1.544  1.00  0.00     0.143 C 
HETATM   26  O   UNL     1      38.762 -10.008   4.551  1.00  0.00    -0.273 OA
BRANCH  24  27
HETATM   27  C   UNL     1      40.314 -13.000  -0.351  1.00  0.00     0.063 A 
HETATM   28  C   UNL     1      39.788 -13.900  -1.300  1.00  0.00     0.092 A 
HETATM   29  C   UNL     1      39.916 -13.715  -2.673  1.00  0.00     0.039 A 
HETATM   30  C   UNL     1      40.616 -12.609  -3.140  1.00  0.00     0.003 A 
HETATM   31  C   UNL     1      41.180 -11.714  -2.233  1.00  0.00     0.002 A 
HETATM   32  C   UNL     1      41.035 -11.911  -0.851  1.00  0.00     0.032 A 
BRANCH  28  33
HETATM   33  O   UNL     1      39.177 -15.048  -0.862  1.00  0.00    -0.358 OA
HETATM   34  H   UNL     1      38.522 -14.714  -0.216  1.00  0.00     0.218 HD
ENDBRANCH  28  33
ENDBRANCH  24  27
ENDBRANCH  18  19
ENDBRANCH   1  18
TORSDOF 5
ENDMDL
MODEL 10
REMARK VINA RESULT:      -7.9     15.890     18.773
REMARK  5 active torsions:
REMARK  status: ('A' for Active; 'I' for Inactive)
REMARK    1  A    between atoms: C_14  and  C_15 
REMARK    2  A    between atoms: C_15  and  C_16 
REMARK    3  A    between atoms: C_16  and  C_17 
REMARK       I    between atoms: C_17  and  N_18 
REMARK    4  A    between atoms: N_21  and  C_22 
REMARK    5  A    between atoms: C_23  and  O_24 
ROOT
HETATM    1  C   UNL     1      45.969 -29.101   2.323  1.00  0.00     0.051 C 
ENDROOT
BRANCH   1   2
HETATM    2  C   UNL     1      47.219 -29.377   1.538  1.00  0.00    -0.017 A 
HETATM    3  C   UNL     1      48.459 -29.805   2.131  1.00  0.00    -0.000 A 
HETATM    4  C   UNL     1      48.873 -30.070   3.456  1.00  0.00     0.021 A 
HETATM    5  C   UNL     1      49.379 -29.982   1.107  1.00  0.00     0.043 A 
HETATM    6  C   UNL     1      50.190 -30.487   3.712  1.00  0.00    -0.061 A 
HETATM    7  C   UNL     1      50.626 -30.805   5.112  1.00  0.00     0.048 C 
HETATM    8  C   UNL     1      51.079 -30.658   2.647  1.00  0.00     0.009 A 
HETATM    9  C   UNL     1      50.693 -30.406   1.327  1.00  0.00     0.031 A 
HETATM   10  N   UNL     1      48.731 -29.678  -0.061  1.00  0.00    -0.354 N 
HETATM   11  H   UNL     1      49.151 -29.728  -0.979  1.00  0.00     0.166 HD
HETATM   12  C   UNL     1      47.423 -29.304   0.163  1.00  0.00     0.057 A 
HETATM   13  C   UNL     1      46.558 -28.943  -0.937  1.00  0.00     0.032 A 
HETATM   14  S   UNL     1      46.948 -29.392  -2.557  1.00  0.00    -0.100 SA
HETATM   15  C   UNL     1      45.373 -28.233  -0.909  1.00  0.00     0.021 A 
HETATM   16  C   UNL     1      45.544 -28.655  -3.186  1.00  0.00     0.050 A 
HETATM   17  C   UNL     1      44.786 -28.069  -2.200  1.00  0.00     0.008 A 
ENDBRANCH   1   2
BRANCH   1  18
HETATM   18  C   UNL     1      45.135 -30.365   2.535  1.00  0.00     0.108 C 
BRANCH  18  19
HETATM   19  C   UNL     1      43.647 -30.070   2.481  1.00  0.00     0.220 C 
HETATM   20  N   UNL     1      42.832 -30.784   3.350  1.00  0.00    -0.349 N 
HETATM   21  C   UNL     1      43.262 -31.904   4.195  1.00  0.00     0.145 C 
HETATM   22  C   UNL     1      41.376 -30.641   3.230  1.00  0.00     0.145 C 
HETATM   23  C   UNL     1      42.546 -31.927   5.562  1.00  0.00     0.143 C 
HETATM   24  N   UNL     1      41.085 -31.712   5.481  1.00  0.00    -0.376 N 
HETATM   25  C   UNL     1      40.696 -30.574   4.605  1.00  0.00     0.143 C 
HETATM   26  O   UNL     1      43.192 -29.227   1.709  1.00  0.00    -0.273 OA
BRANCH  24  27
HETATM   27  C   UNL     1      40.227 -32.821   5.408  1.00  0.00     0.063 A 
HETATM   28  C   UNL     1      39.147 -32.904   6.310  1.00  0.00     0.092 A 
HETATM   29  C   UNL     1      38.223 -33.944   6.292  1.00  0.00     0.039 A 
HETATM   30  C   UNL     1      38.379 -34.967   5.364  1.00  0.00     0.003 A 
HETATM   31  C   UNL     1      39.454 -34.937   4.477  1.00  0.00     0.002 A 
HETATM   32  C   UNL     1      40.372 -33.876   4.503  1.00  0.00     0.032 A 
BRANCH  28  33
HETATM   33  O   UNL     1      39.028 -31.957   7.297  1.00  0.00    -0.358 OA
HETATM   34  H   UNL     1      39.088 -31.117   6.800  1.00  0.00     0.218 HD
ENDBRANCH  28  33
ENDBRANCH  24  27
ENDBRANCH  18  19
ENDBRANCH   1  18
TORSDOF 5
ENDMDL
