MODEL 1
REMARK VINA RESULT:      -9.6      0.000      0.000
REMARK  6 active torsions:
REMARK  status: ('A' for Active; 'I' for Inactive)
REMARK    1  A    between atoms: C_2  and  O_3 
REMARK    2  A    between atoms: C_2  and  C_10 
REMARK    3  A    between atoms: O_3  and  C_4 
REMARK       I    between atoms: C_10  and  N_11 
REMARK    4  A    between atoms: N_11  and  C_12 
REMARK    5  A    between atoms: N_13  and  C_14 
REMARK    6  A    between atoms: C_26  and  C_27 
ROOT
HETATM    1  C   UNL     1      42.397 -13.641   4.695  1.00  0.00     0.152 A 
HETATM    2  N   UNL     1      43.245 -14.499   5.378  1.00  0.00    -0.044 N 
HETATM    3  N   UNL     1      44.022 -13.846   6.293  1.00  0.00    -0.150 NA
HETATM    4  C   UNL     1      43.653 -12.562   6.180  1.00  0.00     0.099 A 
HETATM    5  C   UNL     1      42.644 -12.388   5.206  1.00  0.00     0.086 A 
ENDROOT
BRANCH   1   6
HETATM    6  N   UNL     1      41.534 -14.090   3.707  1.00  0.00    -0.309 N 
HETATM    7  C   UNL     1      41.859 -14.147   2.364  1.00  0.00     0.252 C 
HETATM    8  O   UNL     1      42.923 -13.794   1.864  1.00  0.00    -0.270 OA
HETATM    9  H   UNL     1      40.582 -14.352   3.981  1.00  0.00     0.170 HD
BRANCH   7  10
HETATM   10  C   UNL     1      40.750 -14.784   1.510  1.00  0.00     0.217 C 
HETATM   11  C   UNL     1      39.879 -15.648   2.418  1.00  0.00     0.050 C 
BRANCH  10  12
HETATM   12  O   UNL     1      39.882 -13.815   0.914  1.00  0.00    -0.337 OA
BRANCH  12  13
HETATM   13  C   UNL     1      40.205 -13.398  -0.347  1.00  0.00     0.070 A 
HETATM   14  C   UNL     1      39.765 -14.232  -1.378  1.00  0.00     0.037 A 
HETATM   15  C   UNL     1      40.027 -13.910  -2.710  1.00  0.00     0.003 A 
HETATM   16  C   UNL     1      40.717 -12.740  -3.018  1.00  0.00     0.000 A 
HETATM   17  C   UNL     1      41.139 -11.893  -1.994  1.00  0.00     0.003 A 
HETATM   18  C   UNL     1      40.882 -12.219  -0.659  1.00  0.00     0.037 A 
ENDBRANCH  12  13
ENDBRANCH  10  12
ENDBRANCH   7  10
ENDBRANCH   1   6
BRANCH   2  19
HETATM   19  C   UNL     1      43.383 -15.890   5.212  1.00  0.00     0.732 A 
HETATM   20  N   UNL     1      43.486 -16.455   4.051  1.00  0.00    -0.067 NA
HETATM   21  C   UNL     1      43.623 -17.825   4.052  1.00  0.00     0.065 A 
HETATM   22  C   UNL     1      43.669 -18.581   5.165  1.00  0.00     0.036 A 
HETATM   23  C   UNL     1      43.739 -18.451   2.680  1.00  0.00     0.060 C 
HETATM   24  C   UNL     1      43.814 -20.074   5.174  1.00  0.00     0.046 C 
HETATM   25  C   UNL     1      43.561 -17.895   6.478  1.00  0.00     0.268 A 
HETATM   26  C   UNL     1      43.601 -20.703   3.796  1.00  0.00     0.005 C 
HETATM   27  C   UNL     1      44.278 -19.883   2.704  1.00  0.00     0.006 C 
HETATM   28  O   UNL     1      43.614 -18.500   7.542  1.00  0.00    -0.267 OA
HETATM   29  N   UNL     1      43.404 -16.546   6.409  1.00  0.00    -0.152 N 
HETATM   30  H   UNL     1      43.328 -16.013   7.269  1.00  0.00     0.188 HD
ENDBRANCH   2  19
BRANCH   4  31
HETATM   31  C   UNL     1      44.282 -11.482   7.012  1.00  0.00     0.035 A 
HETATM   32  S   UNL     1      43.408 -10.370   7.972  1.00  0.00    -0.100 SA
HETATM   33  C   UNL     1      44.840  -9.592   8.491  1.00  0.00     0.050 A 
HETATM   34  C   UNL     1      45.967 -10.167   7.946  1.00  0.00     0.008 A 
HETATM   35  C   UNL     1      45.643 -11.263   7.091  1.00  0.00     0.022 A 
ENDBRANCH   4  31
TORSDOF 6
ENDMDL
MODEL 2
REMARK VINA RESULT:      -9.3      2.713      8.486
REMARK  6 active torsions:
REMARK  status: ('A' for Active; 'I' for Inactive)
REMARK    1  A    between atoms: C_2  and  O_3 
REMARK    2  A    between atoms: C_2  and  C_10 
REMARK    3  A    between atoms: O_3  and  C_4 
REMARK       I    between atoms: C_10  and  N_11 
REMARK    4  A    between atoms: N_11  and  C_12 
REMARK    5  A    between atoms: N_13  and  C_14 
REMARK    6  A    between atoms: C_26  and  C_27 
ROOT
HETATM    1  C   UNL     1      42.824 -14.762   3.582  1.00  0.00     0.152 A 
HETATM    2  N   UNL     1      41.922 -15.139   2.598  1.00  0.00    -0.044 N 
HETATM    3  N   UNL     1      41.976 -16.475   2.324  1.00  0.00    -0.150 NA
HETATM    4  C   UNL     1      42.925 -16.941   3.149  1.00  0.00     0.099 A 
HETATM    5  C   UNL     1      43.474 -15.917   3.952  1.00  0.00     0.086 A 
ENDROOT
BRANCH   1   6
HETATM    6  N   UNL     1      42.951 -13.447   4.002  1.00  0.00    -0.309 N 
HETATM    7  C   UNL     1      42.460 -12.968   5.202  1.00  0.00     0.252 C 
HETATM    8  O   UNL     1      41.835 -13.617   6.037  1.00  0.00    -0.270 OA
HETATM    9  H   UNL     1      43.394 -12.778   3.364  1.00  0.00     0.170 HD
BRANCH   7  10
HETATM   10  C   UNL     1      42.836 -11.498   5.456  1.00  0.00     0.217 C 
HETATM   11  C   UNL     1      41.829 -10.612   4.726  1.00  0.00     0.050 C 
BRANCH  10  12
HETATM   12  O   UNL     1      42.769 -11.138   6.838  1.00  0.00    -0.337 OA
BRANCH  12  13
HETATM   13  C   UNL     1      43.852 -10.481   7.353  1.00  0.00     0.070 A 
HETATM   14  C   UNL     1      45.084 -11.101   7.126  1.00  0.00     0.037 A 
HETATM   15  C   UNL     1      46.264 -10.524   7.596  1.00  0.00     0.003 A 
HETATM   16  C   UNL     1      46.219  -9.313   8.283  1.00  0.00     0.000 A 
HETATM   17  C   UNL     1      44.994  -8.680   8.492  1.00  0.00     0.003 A 
HETATM   18  C   UNL     1      43.811  -9.260   8.026  1.00  0.00     0.037 A 
ENDBRANCH  12  13
ENDBRANCH  10  12
ENDBRANCH   7  10
ENDBRANCH   1   6
BRANCH   2  19
HETATM   19  C   UNL     1      41.027 -14.317   1.888  1.00  0.00     0.732 A 
HETATM   20  N   UNL     1      40.279 -13.427   2.461  1.00  0.00    -0.067 NA
HETATM   21  C   UNL     1      39.459 -12.696   1.631  1.00  0.00     0.065 A 
HETATM   22  C   UNL     1      39.410 -12.844   0.293  1.00  0.00     0.036 A 
HETATM   23  C   UNL     1      38.601 -11.669   2.333  1.00  0.00     0.060 C 
HETATM   24  C   UNL     1      38.518 -12.054  -0.617  1.00  0.00     0.046 C 
HETATM   25  C   UNL     1      40.292 -13.865  -0.328  1.00  0.00     0.268 A 
HETATM   26  C   UNL     1      37.442 -11.268   0.135  1.00  0.00     0.005 C 
HETATM   27  C   UNL     1      38.009 -10.618   1.391  1.00  0.00     0.006 C 
HETATM   28  O   UNL     1      40.329 -14.053  -1.538  1.00  0.00    -0.267 OA
HETATM   29  N   UNL     1      41.059 -14.569   0.547  1.00  0.00    -0.152 N 
HETATM   30  H   UNL     1      41.688 -15.280   0.190  1.00  0.00     0.188 HD
ENDBRANCH   2  19
BRANCH   4  31
HETATM   31  C   UNL     1      43.318 -18.390   3.164  1.00  0.00     0.035 A 
HETATM   32  S   UNL     1      44.062 -19.176   4.488  1.00  0.00    -0.100 SA
HETATM   33  C   UNL     1      44.135 -20.665   3.648  1.00  0.00     0.050 A 
HETATM   34  C   UNL     1      43.601 -20.569   2.382  1.00  0.00     0.008 A 
HETATM   35  C   UNL     1      43.126 -19.253   2.102  1.00  0.00     0.022 A 
ENDBRANCH   4  31
TORSDOF 6
ENDMDL
MODEL 3
REMARK VINA RESULT:      -9.2      1.719      6.002
REMARK  6 active torsions:
REMARK  status: ('A' for Active; 'I' for Inactive)
REMARK    1  A    between atoms: C_2  and  O_3 
REMARK    2  A    between atoms: C_2  and  C_10 
REMARK    3  A    between atoms: O_3  and  C_4 
REMARK       I    between atoms: C_10  and  N_11 
REMARK    4  A    between atoms: N_11  and  C_12 
REMARK    5  A    between atoms: N_13  and  C_14 
REMARK    6  A    between atoms: C_26  and  C_27 
ROOT
HETATM    1  C   UNL     1      43.610 -13.139   6.237  1.00  0.00     0.152 A 
HETATM    2  N   UNL     1      43.058 -12.275   5.304  1.00  0.00    -0.044 N 
HETATM    3  N   UNL     1      43.110 -10.970   5.704  1.00  0.00    -0.150 NA
HETATM    4  C   UNL     1      43.706 -11.019   6.905  1.00  0.00     0.099 A 
HETATM    5  C   UNL     1      44.039 -12.342   7.274  1.00  0.00     0.086 A 
ENDROOT
BRANCH   1   6
HETATM    6  N   UNL     1      43.644 -14.511   6.042  1.00  0.00    -0.309 N 
HETATM    7  C   UNL     1      43.414 -15.439   7.041  1.00  0.00     0.252 C 
HETATM    8  O   UNL     1      43.178 -15.187   8.220  1.00  0.00    -0.270 OA
HETATM    9  H   UNL     1      43.899 -14.860   5.113  1.00  0.00     0.170 HD
BRANCH   7  10
HETATM   10  C   UNL     1      43.410 -16.887   6.519  1.00  0.00     0.217 C 
HETATM   11  C   UNL     1      42.047 -17.169   5.895  1.00  0.00     0.050 C 
BRANCH  10  12
HETATM   12  O   UNL     1      44.383 -17.110   5.494  1.00  0.00    -0.337 OA
BRANCH  12  13
HETATM   13  C   UNL     1      44.071 -18.045   4.547  1.00  0.00     0.070 A 
HETATM   14  C   UNL     1      43.578 -17.530   3.346  1.00  0.00     0.037 A 
HETATM   15  C   UNL     1      43.229 -18.384   2.299  1.00  0.00     0.003 A 
HETATM   16  C   UNL     1      43.388 -19.760   2.444  1.00  0.00     0.000 A 
HETATM   17  C   UNL     1      43.902 -20.277   3.633  1.00  0.00     0.003 A 
HETATM   18  C   UNL     1      44.245 -19.422   4.684  1.00  0.00     0.037 A 
ENDBRANCH  12  13
ENDBRANCH  10  12
ENDBRANCH   7  10
ENDBRANCH   1   6
BRANCH   2  19
HETATM   19  C   UNL     1      42.467 -12.602   4.069  1.00  0.00     0.732 A 
HETATM   20  N   UNL     1      41.954 -13.764   3.817  1.00  0.00    -0.067 NA
HETATM   21  C   UNL     1      41.406 -13.929   2.565  1.00  0.00     0.065 A 
HETATM   22  C   UNL     1      41.365 -12.967   1.624  1.00  0.00     0.036 A 
HETATM   23  C   UNL     1      40.818 -15.298   2.306  1.00  0.00     0.060 C 
HETATM   24  C   UNL     1      40.774 -13.141   0.256  1.00  0.00     0.046 C 
HETATM   25  C   UNL     1      41.952 -11.644   1.954  1.00  0.00     0.268 A 
HETATM   26  C   UNL     1      40.488 -14.603  -0.090  1.00  0.00     0.005 C 
HETATM   27  C   UNL     1      39.882 -15.343   1.096  1.00  0.00     0.006 C 
HETATM   28  O   UNL     1      41.940 -10.705   1.167  1.00  0.00    -0.267 OA
HETATM   29  N   UNL     1      42.498 -11.552   3.196  1.00  0.00    -0.152 N 
HETATM   30  H   UNL     1      42.913 -10.675   3.490  1.00  0.00     0.188 HD
ENDBRANCH   2  19
BRANCH   4  31
HETATM   31  C   UNL     1      43.953  -9.781   7.716  1.00  0.00     0.035 A 
HETATM   32  S   UNL     1      42.777  -8.579   8.027  1.00  0.00    -0.100 SA
HETATM   33  C   UNL     1      43.882  -7.640   8.936  1.00  0.00     0.050 A 
HETATM   34  C   UNL     1      45.124  -8.230   9.006  1.00  0.00     0.008 A 
HETATM   35  C   UNL     1      45.165  -9.470   8.301  1.00  0.00     0.022 A 
ENDBRANCH   4  31
TORSDOF 6
ENDMDL
MODEL 4
REMARK VINA RESULT:      -9.2      3.747      7.392
REMARK  6 active torsions:
REMARK  status: ('A' for Active; 'I' for Inactive)
REMARK    1  A    between atoms: C_2  and  O_3 
REMARK    2  A    between atoms: C_2  and  C_10 
REMARK    3  A    between atoms: O_3  and  C_4 
REMARK       I    between atoms: C_10  and  N_11 
REMARK    4  A    between atoms: N_11  and  C_12 
REMARK    5  A    between atoms: N_13  and  C_14 
REMARK    6  A    between atoms: C_26  and  C_27 
ROOT
HETATM    1  C   UNL     1      40.569 -14.698   3.087  1.00  0.00     0.152 A 
HETATM    2  N   UNL     1      40.954 -14.909   1.772  1.00  0.00    -0.044 N 
HETATM    3  N   UNL     1      41.797 -15.975   1.638  1.00  0.00    -0.150 NA
HETATM    4  C   UNL     1      41.939 -16.439   2.889  1.00  0.00     0.099 A 
HETATM    5  C   UNL     1      41.192 -15.682   3.819  1.00  0.00     0.086 A 
ENDROOT
BRANCH   1   6
HETATM    6  N   UNL     1      39.730 -13.656   3.451  1.00  0.00    -0.309 N 
HETATM    7  C   UNL     1      40.175 -12.431   3.913  1.00  0.00     0.252 C 
HETATM    8  O   UNL     1      41.347 -12.108   4.086  1.00  0.00    -0.270 OA
HETATM    9  H   UNL     1      38.719 -13.818   3.421  1.00  0.00     0.170 HD
BRANCH   7  10
HETATM   10  C   UNL     1      39.030 -11.429   4.142  1.00  0.00     0.217 C 
HETATM   11  C   UNL     1      39.056 -10.997   5.606  1.00  0.00     0.050 C 
BRANCH  10  12
HETATM   12  O   UNL     1      39.171 -10.239   3.362  1.00  0.00    -0.337 OA
BRANCH  12  13
HETATM   13  C   UNL     1      38.520 -10.213   2.160  1.00  0.00     0.070 A 
HETATM   14  C   UNL     1      38.690  -9.041   1.419  1.00  0.00     0.037 A 
HETATM   15  C   UNL     1      38.081  -8.897   0.172  1.00  0.00     0.003 A 
HETATM   16  C   UNL     1      37.311  -9.935  -0.348  1.00  0.00     0.000 A 
HETATM   17  C   UNL     1      37.157 -11.116   0.378  1.00  0.00     0.003 A 
HETATM   18  C   UNL     1      37.762 -11.258   1.630  1.00  0.00     0.037 A 
ENDBRANCH  12  13
ENDBRANCH  10  12
ENDBRANCH   7  10
ENDBRANCH   1   6
BRANCH   2  19
HETATM   19  C   UNL     1      40.593 -14.159   0.636  1.00  0.00     0.732 A 
HETATM   20  N   UNL     1      40.983 -12.939   0.442  1.00  0.00    -0.067 NA
HETATM   21  C   UNL     1      40.553 -12.341  -0.721  1.00  0.00     0.065 A 
HETATM   22  C   UNL     1      39.784 -12.947  -1.645  1.00  0.00     0.036 A 
HETATM   23  C   UNL     1      41.026 -10.918  -0.913  1.00  0.00     0.060 C 
HETATM   24  C   UNL     1      39.309 -12.300  -2.912  1.00  0.00     0.046 C 
HETATM   25  C   UNL     1      39.368 -14.350  -1.393  1.00  0.00     0.268 A 
HETATM   26  C   UNL     1      39.521 -10.785  -2.926  1.00  0.00     0.005 C 
HETATM   27  C   UNL     1      40.882 -10.414  -2.351  1.00  0.00     0.006 C 
HETATM   28  O   UNL     1      38.687 -14.986  -2.188  1.00  0.00    -0.267 OA
HETATM   29  N   UNL     1      39.805 -14.876  -0.218  1.00  0.00    -0.152 N 
HETATM   30  H   UNL     1      39.561 -15.833   0.016  1.00  0.00     0.188 HD
ENDBRANCH   2  19
BRANCH   4  31
HETATM   31  C   UNL     1      42.812 -17.620   3.200  1.00  0.00     0.035 A 
HETATM   32  S   UNL     1      43.678 -17.824   4.659  1.00  0.00    -0.100 SA
HETATM   33  C   UNL     1      44.332 -19.317   4.140  1.00  0.00     0.050 A 
HETATM   34  C   UNL     1      43.898 -19.659   2.879  1.00  0.00     0.008 A 
HETATM   35  C   UNL     1      43.017 -18.677   2.335  1.00  0.00     0.022 A 
ENDBRANCH   4  31
TORSDOF 6
ENDMDL
MODEL 5
REMARK VINA RESULT:      -9.1      1.517      2.031
REMARK  6 active torsions:
REMARK  status: ('A' for Active; 'I' for Inactive)
REMARK    1  A    between atoms: C_2  and  O_3 
REMARK    2  A    between atoms: C_2  and  C_10 
REMARK    3  A    between atoms: O_3  and  C_4 
REMARK       I    between atoms: C_10  and  N_11 
REMARK    4  A    between atoms: N_11  and  C_12 
REMARK    5  A    between atoms: N_13  and  C_14 
REMARK    6  A    between atoms: C_26  and  C_27 
ROOT
HETATM    1  C   UNL     1      42.201 -12.019   5.150  1.00  0.00     0.152 A 
HETATM    2  N   UNL     1      43.022 -12.997   5.691  1.00  0.00    -0.044 N 
HETATM    3  N   UNL     1      43.725 -12.550   6.773  1.00  0.00    -0.150 NA
HETATM    4  C   UNL     1      43.336 -11.274   6.912  1.00  0.00     0.099 A 
HETATM    5  C   UNL     1      42.388 -10.902   5.932  1.00  0.00     0.086 A 
ENDROOT
BRANCH   1   6
HETATM    6  N   UNL     1      41.413 -12.253   4.034  1.00  0.00    -0.309 N 
HETATM    7  C   UNL     1      41.743 -11.842   2.756  1.00  0.00     0.252 C 
HETATM    8  O   UNL     1      42.744 -11.206   2.438  1.00  0.00    -0.270 OA
HETATM    9  H   UNL     1      40.510 -12.717   4.170  1.00  0.00     0.170 HD
BRANCH   7  10
HETATM   10  C   UNL     1      40.739 -12.328   1.696  1.00  0.00     0.217 C 
HETATM   11  C   UNL     1      39.524 -11.405   1.726  1.00  0.00     0.050 C 
BRANCH  10  12
HETATM   12  O   UNL     1      41.263 -12.271   0.367  1.00  0.00    -0.337 OA
BRANCH  12  13
HETATM   13  C   UNL     1      40.578 -12.964  -0.593  1.00  0.00     0.070 A 
HETATM   14  C   UNL     1      40.550 -12.360  -1.852  1.00  0.00     0.037 A 
HETATM   15  C   UNL     1      39.887 -12.973  -2.916  1.00  0.00     0.003 A 
HETATM   16  C   UNL     1      39.262 -14.203  -2.728  1.00  0.00     0.000 A 
HETATM   17  C   UNL     1      39.307 -14.820  -1.478  1.00  0.00     0.003 A 
HETATM   18  C   UNL     1      39.965 -14.204  -0.410  1.00  0.00     0.037 A 
ENDBRANCH  12  13
ENDBRANCH  10  12
ENDBRANCH   7  10
ENDBRANCH   1   6
BRANCH   2  19
HETATM   19  C   UNL     1      43.199 -14.320   5.243  1.00  0.00     0.732 A 
HETATM   20  N   UNL     1      42.978 -14.686   4.020  1.00  0.00    -0.067 NA
HETATM   21  C   UNL     1      43.204 -16.014   3.733  1.00  0.00     0.065 A 
HETATM   22  C   UNL     1      43.646 -16.918   4.628  1.00  0.00     0.036 A 
HETATM   23  C   UNL     1      42.934 -16.406   2.298  1.00  0.00     0.060 C 
HETATM   24  C   UNL     1      43.891 -18.365   4.323  1.00  0.00     0.046 C 
HETATM   25  C   UNL     1      43.901 -16.456   6.016  1.00  0.00     0.268 A 
HETATM   26  C   UNL     1      43.307 -18.800   2.978  1.00  0.00     0.005 C 
HETATM   27  C   UNL     1      43.554 -17.748   1.903  1.00  0.00     0.006 C 
HETATM   28  O   UNL     1      44.324 -17.203   6.890  1.00  0.00    -0.267 OA
HETATM   29  N   UNL     1      43.636 -15.141   6.242  1.00  0.00    -0.152 N 
HETATM   30  H   UNL     1      43.792 -14.758   7.168  1.00  0.00     0.188 HD
ENDBRANCH   2  19
BRANCH   4  31
HETATM   31  C   UNL     1      43.888 -10.392   7.995  1.00  0.00     0.035 A 
HETATM   32  S   UNL     1      43.004  -9.155   8.777  1.00  0.00    -0.100 SA
HETATM   33  C   UNL     1      44.340  -8.730   9.758  1.00  0.00     0.050 A 
HETATM   34  C   UNL     1      45.441  -9.516   9.498  1.00  0.00     0.008 A 
HETATM   35  C   UNL     1      45.179 -10.479   8.478  1.00  0.00     0.022 A 
ENDBRANCH   4  31
TORSDOF 6
ENDMDL
MODEL 6
REMARK VINA RESULT:      -9.0      3.156      6.639
REMARK  6 active torsions:
REMARK  status: ('A' for Active; 'I' for Inactive)
REMARK    1  A    between atoms: C_2  and  O_3 
REMARK    2  A    between atoms: C_2  and  C_10 
REMARK    3  A    between atoms: O_3  and  C_4 
REMARK       I    between atoms: C_10  and  N_11 
REMARK    4  A    between atoms: N_11  and  C_12 
REMARK    5  A    between atoms: N_13  and  C_14 
REMARK    6  A    between atoms: C_26  and  C_27 
ROOT
HETATM    1  C   UNL     1      42.329 -15.532   1.909  1.00  0.00     0.152 A 
HETATM    2  N   UNL     1      42.436 -15.225   3.257  1.00  0.00    -0.044 N 
HETATM    3  N   UNL     1      42.877 -16.283   4.001  1.00  0.00    -0.150 NA
HETATM    4  C   UNL     1      43.051 -17.264   3.104  1.00  0.00     0.099 A 
HETATM    5  C   UNL     1      42.730 -16.843   1.793  1.00  0.00     0.086 A 
ENDROOT
BRANCH   1   6
HETATM    6  N   UNL     1      41.881 -14.610   0.977  1.00  0.00    -0.309 N 
HETATM    7  C   UNL     1      40.633 -14.654   0.384  1.00  0.00     0.252 C 
HETATM    8  O   UNL     1      39.773 -15.509   0.576  1.00  0.00    -0.270 OA
HETATM    9  H   UNL     1      42.530 -13.877   0.673  1.00  0.00     0.170 HD
BRANCH   7  10
HETATM   10  C   UNL     1      40.365 -13.447  -0.532  1.00  0.00     0.217 C 
HETATM   11  C   UNL     1      40.124 -13.963  -1.948  1.00  0.00     0.050 C 
BRANCH  10  12
HETATM   12  O   UNL     1      39.193 -12.716  -0.158  1.00  0.00    -0.337 OA
BRANCH  12  13
HETATM   13  C   UNL     1      39.363 -11.712   0.754  1.00  0.00     0.070 A 
HETATM   14  C   UNL     1      38.262 -11.468   1.578  1.00  0.00     0.037 A 
HETATM   15  C   UNL     1      38.313 -10.472   2.554  1.00  0.00     0.003 A 
HETATM   16  C   UNL     1      39.477  -9.725   2.721  1.00  0.00     0.000 A 
HETATM   17  C   UNL     1      40.587  -9.979   1.916  1.00  0.00     0.003 A 
HETATM   18  C   UNL     1      40.533 -10.973   0.934  1.00  0.00     0.037 A 
ENDBRANCH  12  13
ENDBRANCH  10  12
ENDBRANCH   7  10
ENDBRANCH   1   6
BRANCH   2  19
HETATM   19  C   UNL     1      42.130 -14.006   3.892  1.00  0.00     0.732 A 
HETATM   20  N   UNL     1      40.982 -13.764   4.440  1.00  0.00    -0.067 NA
HETATM   21  C   UNL     1      40.838 -12.527   5.027  1.00  0.00     0.065 A 
HETATM   22  C   UNL     1      41.806 -11.592   5.073  1.00  0.00     0.036 A 
HETATM   23  C   UNL     1      39.485 -12.278   5.656  1.00  0.00     0.060 C 
HETATM   24  C   UNL     1      41.655 -10.242   5.707  1.00  0.00     0.046 C 
HETATM   25  C   UNL     1      43.113 -11.913   4.444  1.00  0.00     0.268 A 
HETATM   26  C   UNL     1      40.202  -9.896   6.038  1.00  0.00     0.005 C 
HETATM   27  C   UNL     1      39.469 -11.096   6.627  1.00  0.00     0.006 C 
HETATM   28  O   UNL     1      44.057 -11.132   4.457  1.00  0.00    -0.267 OA
HETATM   29  N   UNL     1      43.184 -13.139   3.861  1.00  0.00    -0.152 N 
HETATM   30  H   UNL     1      44.050 -13.425   3.417  1.00  0.00     0.188 HD
ENDBRANCH   2  19
BRANCH   4  31
HETATM   31  C   UNL     1      43.524 -18.630   3.508  1.00  0.00     0.035 A 
HETATM   32  S   UNL     1      43.513 -19.999   2.484  1.00  0.00    -0.100 SA
HETATM   33  C   UNL     1      44.163 -21.002   3.707  1.00  0.00     0.050 A 
HETATM   34  C   UNL     1      44.388 -20.310   4.876  1.00  0.00     0.008 A 
HETATM   35  C   UNL     1      44.020 -18.936   4.761  1.00  0.00     0.022 A 
ENDBRANCH   4  31
TORSDOF 6
ENDMDL
MODEL 7
REMARK VINA RESULT:      -8.9      2.711      6.273
REMARK  6 active torsions:
REMARK  status: ('A' for Active; 'I' for Inactive)
REMARK    1  A    between atoms: C_2  and  O_3 
REMARK    2  A    between atoms: C_2  and  C_10 
REMARK    3  A    between atoms: O_3  and  C_4 
REMARK       I    between atoms: C_10  and  N_11 
REMARK    4  A    between atoms: N_11  and  C_12 
REMARK    5  A    between atoms: N_13  and  C_14 
REMARK    6  A    between atoms: C_26  and  C_27 
ROOT
HETATM    1  C   UNL     1      42.536 -14.832   2.727  1.00  0.00     0.152 A 
HETATM    2  N   UNL     1      42.831 -14.643   4.068  1.00  0.00    -0.044 N 
HETATM    3  N   UNL     1      43.246 -15.792   4.679  1.00  0.00    -0.150 NA
HETATM    4  C   UNL     1      43.210 -16.712   3.704  1.00  0.00     0.099 A 
HETATM    5  C   UNL     1      42.782 -16.162   2.475  1.00  0.00     0.086 A 
ENDROOT
BRANCH   1   6
HETATM    6  N   UNL     1      42.078 -13.801   1.920  1.00  0.00    -0.309 N 
HETATM    7  C   UNL     1      40.761 -13.652   1.530  1.00  0.00     0.252 C 
HETATM    8  O   UNL     1      39.834 -14.407   1.814  1.00  0.00    -0.270 OA
HETATM    9  H   UNL     1      42.765 -13.135   1.553  1.00  0.00     0.170 HD
BRANCH   7  10
HETATM   10  C   UNL     1      40.520 -12.363   0.725  1.00  0.00     0.217 C 
HETATM   11  C   UNL     1      41.494 -11.298   1.222  1.00  0.00     0.050 C 
BRANCH  10  12
HETATM   12  O   UNL     1      40.771 -12.526  -0.673  1.00  0.00    -0.337 OA
BRANCH  12  13
HETATM   13  C   UNL     1      39.722 -12.958  -1.437  1.00  0.00     0.070 A 
HETATM   14  C   UNL     1      39.961 -14.128  -2.163  1.00  0.00     0.037 A 
HETATM   15  C   UNL     1      38.966 -14.672  -2.975  1.00  0.00     0.003 A 
HETATM   16  C   UNL     1      37.719 -14.056  -3.053  1.00  0.00     0.000 A 
HETATM   17  C   UNL     1      37.469 -12.901  -2.313  1.00  0.00     0.003 A 
HETATM   18  C   UNL     1      38.468 -12.351  -1.503  1.00  0.00     0.037 A 
ENDBRANCH  12  13
ENDBRANCH  10  12
ENDBRANCH   7  10
ENDBRANCH   1   6
BRANCH   2  19
HETATM   19  C   UNL     1      42.731 -13.454   4.815  1.00  0.00     0.732 A 
HETATM   20  N   UNL     1      41.839 -12.545   4.577  1.00  0.00    -0.067 NA
HETATM   21  C   UNL     1      41.863 -11.440   5.399  1.00  0.00     0.065 A 
HETATM   22  C   UNL     1      42.730 -11.272   6.416  1.00  0.00     0.036 A 
HETATM   23  C   UNL     1      40.810 -10.399   5.093  1.00  0.00     0.060 C 
HETATM   24  C   UNL     1      42.765 -10.070   7.313  1.00  0.00     0.046 C 
HETATM   25  C   UNL     1      43.729 -12.342   6.664  1.00  0.00     0.268 A 
HETATM   26  C   UNL     1      41.923  -8.906   6.786  1.00  0.00     0.005 C 
HETATM   27  C   UNL     1      40.592  -9.396   6.228  1.00  0.00     0.006 C 
HETATM   28  O   UNL     1      44.541 -12.283   7.579  1.00  0.00    -0.267 OA
HETATM   29  N   UNL     1      43.669 -13.394   5.805  1.00  0.00    -0.152 N 
HETATM   30  H   UNL     1      44.319 -14.163   5.920  1.00  0.00     0.188 HD
ENDBRANCH   2  19
BRANCH   4  31
HETATM   31  C   UNL     1      43.584 -18.145   3.955  1.00  0.00     0.035 A 
HETATM   32  S   UNL     1      43.703 -19.339   2.737  1.00  0.00    -0.100 SA
HETATM   33  C   UNL     1      44.131 -20.546   3.871  1.00  0.00     0.050 A 
HETATM   34  C   UNL     1      44.186 -20.051   5.155  1.00  0.00     0.008 A 
HETATM   35  C   UNL     1      43.871 -18.661   5.204  1.00  0.00     0.022 A 
ENDBRANCH   4  31
TORSDOF 6
ENDMDL
MODEL 8
REMARK VINA RESULT:      -8.5      3.541      9.074
REMARK  6 active torsions:
REMARK  status: ('A' for Active; 'I' for Inactive)
REMARK    1  A    between atoms: C_2  and  O_3 
REMARK    2  A    between atoms: C_2  and  C_10 
REMARK    3  A    between atoms: O_3  and  C_4 
REMARK       I    between atoms: C_10  and  N_11 
REMARK    4  A    between atoms: N_11  and  C_12 
REMARK    5  A    between atoms: N_13  and  C_14 
REMARK    6  A    between atoms: C_26  and  C_27 
ROOT
HETATM    1  C   UNL     1      43.258 -14.006   6.372  1.00  0.00     0.152 A 
HETATM    2  N   UNL     1      42.263 -13.921   5.411  1.00  0.00    -0.044 N 
HETATM    3  N   UNL     1      42.223 -15.019   4.600  1.00  0.00    -0.150 NA
HETATM    4  C   UNL     1      43.208 -15.803   5.062  1.00  0.00     0.099 A 
HETATM    5  C   UNL     1      43.874 -15.219   6.164  1.00  0.00     0.086 A 
ENDROOT
BRANCH   1   6
HETATM    6  N   UNL     1      43.488 -12.992   7.288  1.00  0.00    -0.309 N 
HETATM    7  C   UNL     1      44.482 -12.040   7.155  1.00  0.00     0.252 C 
HETATM    8  O   UNL     1      45.299 -11.974   6.241  1.00  0.00    -0.270 OA
HETATM    9  H   UNL     1      42.917 -12.972   8.139  1.00  0.00     0.170 HD
BRANCH   7  10
HETATM   10  C   UNL     1      44.439 -10.974   8.264  1.00  0.00     0.217 C 
HETATM   11  C   UNL     1      45.774 -10.235   8.271  1.00  0.00     0.050 C 
BRANCH  10  12
HETATM   12  O   UNL     1      43.427  -9.987   8.047  1.00  0.00    -0.337 OA
BRANCH  12  13
HETATM   13  C   UNL     1      43.187  -9.119   9.076  1.00  0.00     0.070 A 
HETATM   14  C   UNL     1      42.962  -9.720  10.317  1.00  0.00     0.037 A 
HETATM   15  C   UNL     1      42.711  -8.940  11.446  1.00  0.00     0.003 A 
HETATM   16  C   UNL     1      42.703  -7.551  11.341  1.00  0.00     0.000 A 
HETATM   17  C   UNL     1      42.950  -6.946  10.110  1.00  0.00     0.003 A 
HETATM   18  C   UNL     1      43.195  -7.728   8.976  1.00  0.00     0.037 A 
ENDBRANCH  12  13
ENDBRANCH  10  12
ENDBRANCH   7  10
ENDBRANCH   1   6
BRANCH   2  19
HETATM   19  C   UNL     1      41.358 -12.863   5.197  1.00  0.00     0.732 A 
HETATM   20  N   UNL     1      41.280 -11.833   5.978  1.00  0.00    -0.067 NA
HETATM   21  C   UNL     1      40.351 -10.877   5.632  1.00  0.00     0.065 A 
HETATM   22  C   UNL     1      39.556 -10.951   4.548  1.00  0.00     0.036 A 
HETATM   23  C   UNL     1      40.286  -9.690   6.566  1.00  0.00     0.060 C 
HETATM   24  C   UNL     1      38.539  -9.917   4.167  1.00  0.00     0.046 C 
HETATM   25  C   UNL     1      39.685 -12.142   3.670  1.00  0.00     0.268 A 
HETATM   26  C   UNL     1      38.266  -8.907   5.284  1.00  0.00     0.005 C 
HETATM   27  C   UNL     1      39.558  -8.482   5.971  1.00  0.00     0.006 C 
HETATM   28  O   UNL     1      39.018 -12.283   2.652  1.00  0.00    -0.267 OA
HETATM   29  N   UNL     1      40.601 -13.060   4.078  1.00  0.00    -0.152 N 
HETATM   30  H   UNL     1      40.744 -13.896   3.523  1.00  0.00     0.188 HD
ENDBRANCH   2  19
BRANCH   4  31
HETATM   31  C   UNL     1      43.523 -17.130   4.434  1.00  0.00     0.035 A 
HETATM   32  S   UNL     1      43.132 -17.554   2.825  1.00  0.00    -0.100 SA
HETATM   33  C   UNL     1      43.810 -19.115   3.001  1.00  0.00     0.050 A 
HETATM   34  C   UNL     1      44.328 -19.312   4.262  1.00  0.00     0.008 A 
HETATM   35  C   UNL     1      44.164 -18.162   5.091  1.00  0.00     0.022 A 
ENDBRANCH   4  31
TORSDOF 6
ENDMDL
MODEL 9
REMARK VINA RESULT:      -8.4     15.855     18.560
REMARK  6 active torsions:
REMARK  status: ('A' for Active; 'I' for Inactive)
REMARK    1  A    between atoms: C_2  and  O_3 
REMARK    2  A    between atoms: C_2  and  C_10 
REMARK    3  A    between atoms: O_3  and  C_4 
REMARK       I    between atoms: C_10  and  N_11 
REMARK    4  A    between atoms: N_11  and  C_12 
REMARK    5  A    between atoms: N_13  and  C_14 
REMARK    6  A    between atoms: C_26  and  C_27 
ROOT
HETATM    1  C   UNL     1      45.269 -30.122  -1.975  1.00  0.00     0.152 A 
HETATM    2  N   UNL     1      46.498 -30.711  -2.234  1.00  0.00    -0.044 N 
HETATM    3  N   UNL     1      46.607 -31.150  -3.522  1.00  0.00    -0.150 NA
HETATM    4  C   UNL     1      45.429 -30.830  -4.078  1.00  0.00     0.099 A 
HETATM    5  C   UNL     1      44.570 -30.186  -3.159  1.00  0.00     0.086 A 
ENDROOT
BRANCH   1   6
HETATM    6  N   UNL     1      44.938 -29.624  -0.725  1.00  0.00    -0.309 N 
HETATM    7  C   UNL     1      44.226 -30.332   0.225  1.00  0.00     0.252 C 
HETATM    8  O   UNL     1      43.775 -31.467   0.091  1.00  0.00    -0.270 OA
HETATM    9  H   UNL     1      45.196 -28.656  -0.508  1.00  0.00     0.170 HD
BRANCH   7  10
HETATM   10  C   UNL     1      44.095 -29.575   1.558  1.00  0.00     0.217 C 
HETATM   11  C   UNL     1      42.616 -29.511   1.930  1.00  0.00     0.050 C 
BRANCH  10  12
HETATM   12  O   UNL     1      44.760 -30.234   2.639  1.00  0.00    -0.337 OA
BRANCH  12  13
HETATM   13  C   UNL     1      46.013 -29.786   2.951  1.00  0.00     0.070 A 
HETATM   14  C   UNL     1      46.598 -30.392   4.067  1.00  0.00     0.037 A 
HETATM   15  C   UNL     1      47.878 -30.024   4.482  1.00  0.00     0.003 A 
HETATM   16  C   UNL     1      48.588 -29.059   3.772  1.00  0.00     0.000 A 
HETATM   17  C   UNL     1      48.018 -28.468   2.645  1.00  0.00     0.003 A 
HETATM   18  C   UNL     1      46.732 -28.832   2.232  1.00  0.00     0.037 A 
ENDBRANCH  12  13
ENDBRANCH  10  12
ENDBRANCH   7  10
ENDBRANCH   1   6
BRANCH   2  19
HETATM   19  C   UNL     1      47.568 -30.902  -1.339  1.00  0.00     0.732 A 
HETATM   20  N   UNL     1      47.449 -31.550  -0.224  1.00  0.00    -0.067 NA
HETATM   21  C   UNL     1      48.588 -31.658   0.541  1.00  0.00     0.065 A 
HETATM   22  C   UNL     1      49.787 -31.154   0.191  1.00  0.00     0.036 A 
HETATM   23  C   UNL     1      48.412 -32.420   1.836  1.00  0.00     0.060 C 
HETATM   24  C   UNL     1      51.031 -31.265   1.020  1.00  0.00     0.046 C 
HETATM   25  C   UNL     1      49.886 -30.428  -1.101  1.00  0.00     0.268 A 
HETATM   26  C   UNL     1      50.757 -31.742   2.448  1.00  0.00     0.005 C 
HETATM   27  C   UNL     1      49.732 -32.869   2.466  1.00  0.00     0.006 C 
HETATM   28  O   UNL     1      50.939 -29.955  -1.510  1.00  0.00    -0.267 OA
HETATM   29  N   UNL     1      48.722 -30.335  -1.798  1.00  0.00    -0.152 N 
HETATM   30  H   UNL     1      48.719 -29.856  -2.692  1.00  0.00     0.188 HD
ENDBRANCH   2  19
BRANCH   4  31
HETATM   31  C   UNL     1      45.117 -31.153  -5.511  1.00  0.00     0.035 A 
HETATM   32  S   UNL     1      46.107 -32.112  -6.522  1.00  0.00    -0.100 SA
HETATM   33  C   UNL     1      45.042 -31.929  -7.849  1.00  0.00     0.050 A 
HETATM   34  C   UNL     1      43.950 -31.153  -7.530  1.00  0.00     0.008 A 
HETATM   35  C   UNL     1      43.992 -30.705  -6.176  1.00  0.00     0.022 A 
ENDBRANCH   4  31
TORSDOF 6
ENDMDL
MODEL 10
REMARK VINA RESULT:      -8.3     15.789     18.680
REMARK  6 active torsions:
REMARK  status: ('A' for Active; 'I' for Inactive)
REMARK    1  A    between atoms: C_2  and  O_3 
REMARK    2  A    between atoms: C_2  and  C_10 
REMARK    3  A    between atoms: O_3  and  C_4 
REMARK       I    between atoms: C_10  and  N_11 
REMARK    4  A    between atoms: N_11  and  C_12 
REMARK    5  A    between atoms: N_13  and  C_14 
REMARK    6  A    between atoms: C_26  and  C_27 
ROOT
HETATM    1  C   UNL     1      50.033 -30.640  -0.281  1.00  0.00     0.152 A 
HETATM    2  N   UNL     1      49.550 -31.022  -1.523  1.00  0.00    -0.044 N 
HETATM    3  N   UNL     1      50.499 -31.646  -2.283  1.00  0.00    -0.150 NA
HETATM    4  C   UNL     1      51.590 -31.654  -1.504  1.00  0.00     0.099 A 
HETATM    5  C   UNL     1      51.347 -31.046  -0.251  1.00  0.00     0.086 A 
ENDROOT
BRANCH   1   6
HETATM    6  N   UNL     1      49.244 -29.973   0.644  1.00  0.00    -0.309 N 
HETATM    7  C   UNL     1      48.522 -30.603   1.641  1.00  0.00     0.252 C 
HETATM    8  O   UNL     1      48.459 -31.815   1.830  1.00  0.00    -0.270 OA
HETATM    9  H   UNL     1      49.152 -28.956   0.555  1.00  0.00     0.170 HD
BRANCH   7  10
HETATM   10  C   UNL     1      47.822 -29.612   2.586  1.00  0.00     0.217 C 
HETATM   11  C   UNL     1      48.892 -28.867   3.379  1.00  0.00     0.050 C 
BRANCH  10  12
HETATM   12  O   UNL     1      47.065 -28.619   1.888  1.00  0.00    -0.337 OA
BRANCH  12  13
HETATM   13  C   UNL     1      45.771 -28.938   1.583  1.00  0.00     0.070 A 
HETATM   14  C   UNL     1      44.954 -29.212   2.683  1.00  0.00     0.037 A 
HETATM   15  C   UNL     1      43.611 -29.544   2.502  1.00  0.00     0.003 A 
HETATM   16  C   UNL     1      43.074 -29.587   1.218  1.00  0.00     0.000 A 
HETATM   17  C   UNL     1      43.879 -29.291   0.119  1.00  0.00     0.003 A 
HETATM   18  C   UNL     1      45.227 -28.965   0.299  1.00  0.00     0.037 A 
ENDBRANCH  12  13
ENDBRANCH  10  12
ENDBRANCH   7  10
ENDBRANCH   1   6
BRANCH   2  19
HETATM   19  C   UNL     1      48.259 -30.822  -2.046  1.00  0.00     0.732 A 
HETATM   20  N   UNL     1      47.767 -29.647  -2.282  1.00  0.00    -0.067 NA
HETATM   21  C   UNL     1      46.492 -29.615  -2.800  1.00  0.00     0.065 A 
HETATM   22  C   UNL     1      45.760 -30.710  -3.080  1.00  0.00     0.036 A 
HETATM   23  C   UNL     1      45.950 -28.227  -3.062  1.00  0.00     0.060 C 
HETATM   24  C   UNL     1      44.370 -30.682  -3.642  1.00  0.00     0.046 C 
HETATM   25  C   UNL     1      46.363 -32.039  -2.808  1.00  0.00     0.268 A 
HETATM   26  C   UNL     1      43.731 -29.292  -3.589  1.00  0.00     0.005 C 
HETATM   27  C   UNL     1      44.729 -28.211  -3.985  1.00  0.00     0.006 C 
HETATM   28  O   UNL     1      45.779 -33.088  -3.052  1.00  0.00    -0.267 OA
HETATM   29  N   UNL     1      47.614 -32.003  -2.275  1.00  0.00    -0.152 N 
HETATM   30  H   UNL     1      48.087 -32.876  -2.068  1.00  0.00     0.188 HD
ENDBRANCH   2  19
BRANCH   4  31
HETATM   31  C   UNL     1      52.889 -32.245  -1.968  1.00  0.00     0.035 A 
HETATM   32  S   UNL     1      53.338 -32.421  -3.608  1.00  0.00    -0.100 SA
HETATM   33  C   UNL     1      54.836 -33.134  -3.190  1.00  0.00     0.050 A 
HETATM   34  C   UNL     1      54.996 -33.236  -1.826  1.00  0.00     0.008 A 
HETATM   35  C   UNL     1      53.869 -32.720  -1.118  1.00  0.00     0.022 A 
ENDBRANCH   4  31
TORSDOF 6
ENDMDL
