MODEL 1
REMARK VINA RESULT:      -8.6      0.000      0.000
REMARK  5 active torsions:
REMARK  status: ('A' for Active; 'I' for Inactive)
REMARK    1  A    between atoms: C_4  and  C_5 
REMARK    2  A    between atoms: C_5  and  C_6 
REMARK    3  A    between atoms: C_6  and  C_7 
REMARK       I    between atoms: C_7  and  N_8 
REMARK    4  A    between atoms: N_8  and  C_9 
REMARK    5  A    between atoms: C_16  and  C_17 
REMARK       I    between atoms: C_17  and  N_18 
ROOT
HETATM    1  C   UNL     1      41.915 -12.940   5.037  1.00  0.00     0.035 A 
HETATM    2  C   UNL     1      43.048 -12.501   5.734  1.00  0.00     0.046 A 
HETATM    3  C   UNL     1      43.002 -11.277   6.438  1.00  0.00     0.030 A 
HETATM    4  C   UNL     1      41.828 -10.535   6.417  1.00  0.00     0.063 A 
HETATM    5  N   UNL     1      42.089  -9.420   7.163  1.00  0.00    -0.277 N 
HETATM    6  H   UNL     1      41.458  -8.652   7.360  1.00  0.00     0.189 HD
HETATM    7  N   UNL     1      43.328  -9.372   7.678  1.00  0.00    -0.168 NA
HETATM    8  C   UNL     1      43.906 -10.515   7.239  1.00  0.00     0.156 A 
HETATM    9  C   UNL     1      40.679 -10.944   5.738  1.00  0.00     0.034 A 
HETATM   10  C   UNL     1      40.748 -12.163   5.052  1.00  0.00     0.032 A 
ENDROOT
BRANCH   1  11
HETATM   11  N   UNL     1      41.870 -14.133   4.286  1.00  0.00    -0.326 N 
HETATM   12  C   UNL     1      42.539 -14.417   3.115  1.00  0.00     0.231 C 
HETATM   13  O   UNL     1      43.360 -13.725   2.534  1.00  0.00    -0.272 OA
HETATM   14  H   UNL     1      41.248 -14.854   4.626  1.00  0.00     0.169 HD
BRANCH  12  15
HETATM   15  C   UNL     1      42.158 -15.763   2.540  1.00  0.00     0.045 A 
HETATM   16  C   UNL     1      40.844 -15.799   1.753  1.00  0.00     0.020 A 
HETATM   17  C   UNL     1      40.915 -16.454   3.096  1.00  0.00     0.020 A 
BRANCH  15  18
HETATM   18  C   UNL     1      43.296 -16.647   2.039  1.00  0.00     0.057 C 
BRANCH  18  19
HETATM   19  C   UNL     1      43.494 -17.938   2.804  1.00  0.00    -0.057 A 
HETATM   20  C   UNL     1      43.932 -17.975   4.133  1.00  0.00     0.007 A 
HETATM   21  C   UNL     1      44.159 -19.195   4.779  1.00  0.00     0.001 A 
HETATM   22  C   UNL     1      43.971 -20.394   4.099  1.00  0.00     0.000 A 
HETATM   23  C   UNL     1      43.555 -20.376   2.771  1.00  0.00     0.001 A 
HETATM   24  C   UNL     1      43.321 -19.159   2.128  1.00  0.00     0.007 A 
ENDBRANCH  18  19
ENDBRANCH  15  18
ENDBRANCH  12  15
ENDBRANCH   1  11
BRANCH   8  25
HETATM   25  C   UNL     1      45.293 -10.847   7.592  1.00  0.00     0.270 C 
HETATM   26  N   UNL     1      46.140 -10.926   6.519  1.00  0.00    -0.365 N 
HETATM   27  H   UNL     1      45.766 -10.752   5.594  1.00  0.00     0.159 HD
HETATM   28  H   UNL     1      47.112 -11.142   6.666  1.00  0.00     0.159 HD
HETATM   29  O   UNL     1      45.697 -11.043   8.733  1.00  0.00    -0.266 OA
ENDBRANCH   8  25
TORSDOF 5
ENDMDL
MODEL 2
REMARK VINA RESULT:      -8.5      4.296      7.233
REMARK  5 active torsions:
REMARK  status: ('A' for Active; 'I' for Inactive)
REMARK    1  A    between atoms: C_4  and  C_5 
REMARK    2  A    between atoms: C_5  and  C_6 
REMARK    3  A    between atoms: C_6  and  C_7 
REMARK       I    between atoms: C_7  and  N_8 
REMARK    4  A    between atoms: N_8  and  C_9 
REMARK    5  A    between atoms: C_16  and  C_17 
REMARK       I    between atoms: C_17  and  N_18 
ROOT
HETATM    1  C   UNL     1      40.438 -13.644   0.703  1.00  0.00     0.035 A 
HETATM    2  C   UNL     1      39.906 -14.219  -0.459  1.00  0.00     0.046 A 
HETATM    3  C   UNL     1      38.924 -13.518  -1.196  1.00  0.00     0.030 A 
HETATM    4  C   UNL     1      38.508 -12.272  -0.743  1.00  0.00     0.063 A 
HETATM    5  N   UNL     1      37.564 -11.857  -1.640  1.00  0.00    -0.277 N 
HETATM    6  H   UNL     1      37.039 -10.990  -1.621  1.00  0.00     0.189 HD
HETATM    7  N   UNL     1      37.334 -12.718  -2.645  1.00  0.00    -0.168 NA
HETATM    8  C   UNL     1      38.169 -13.751  -2.384  1.00  0.00     0.156 A 
HETATM    9  C   UNL     1      39.019 -11.669   0.407  1.00  0.00     0.034 A 
HETATM   10  C   UNL     1      39.994 -12.380   1.116  1.00  0.00     0.032 A 
ENDROOT
BRANCH   1  11
HETATM   11  N   UNL     1      41.401 -14.273   1.519  1.00  0.00    -0.326 N 
HETATM   12  C   UNL     1      41.299 -15.491   2.156  1.00  0.00     0.231 C 
HETATM   13  O   UNL     1      40.389 -16.302   2.082  1.00  0.00    -0.272 OA
HETATM   14  H   UNL     1      42.254 -13.758   1.685  1.00  0.00     0.169 HD
BRANCH  12  15
HETATM   15  C   UNL     1      42.494 -15.790   3.033  1.00  0.00     0.045 A 
HETATM   16  C   UNL     1      42.190 -15.990   4.521  1.00  0.00     0.020 A 
HETATM   17  C   UNL     1      42.895 -14.749   4.076  1.00  0.00     0.020 A 
BRANCH  15  18
HETATM   18  C   UNL     1      43.601 -16.647   2.425  1.00  0.00     0.057 C 
BRANCH  18  19
HETATM   19  C   UNL     1      43.636 -18.084   2.899  1.00  0.00    -0.057 A 
HETATM   20  C   UNL     1      44.218 -18.471   4.112  1.00  0.00     0.007 A 
HETATM   21  C   UNL     1      44.281 -19.820   4.478  1.00  0.00     0.001 A 
HETATM   22  C   UNL     1      43.781 -20.801   3.628  1.00  0.00     0.000 A 
HETATM   23  C   UNL     1      43.217 -20.437   2.409  1.00  0.00     0.001 A 
HETATM   24  C   UNL     1      43.148 -19.090   2.046  1.00  0.00     0.007 A 
ENDBRANCH  18  19
ENDBRANCH  15  18
ENDBRANCH  12  15
ENDBRANCH   1  11
BRANCH   8  25
HETATM   25  C   UNL     1      38.224 -14.923  -3.270  1.00  0.00     0.270 C 
HETATM   26  N   UNL     1      38.317 -16.118  -2.609  1.00  0.00    -0.365 N 
HETATM   27  H   UNL     1      38.337 -16.111  -1.596  1.00  0.00     0.159 HD
HETATM   28  H   UNL     1      38.353 -16.977  -3.134  1.00  0.00     0.159 HD
HETATM   29  O   UNL     1      38.190 -14.877  -4.494  1.00  0.00    -0.266 OA
ENDBRANCH   8  25
TORSDOF 5
ENDMDL
MODEL 3
REMARK VINA RESULT:      -8.5      2.368      3.346
REMARK  5 active torsions:
REMARK  status: ('A' for Active; 'I' for Inactive)
REMARK    1  A    between atoms: C_4  and  C_5 
REMARK    2  A    between atoms: C_5  and  C_6 
REMARK    3  A    between atoms: C_6  and  C_7 
REMARK       I    between atoms: C_7  and  N_8 
REMARK    4  A    between atoms: N_8  and  C_9 
REMARK    5  A    between atoms: C_16  and  C_17 
REMARK       I    between atoms: C_17  and  N_18 
ROOT
HETATM    1  C   UNL     1      43.958 -12.255   6.634  1.00  0.00     0.035 A 
HETATM    2  C   UNL     1      43.578 -11.867   7.926  1.00  0.00     0.046 A 
HETATM    3  C   UNL     1      44.382 -10.952   8.643  1.00  0.00     0.030 A 
HETATM    4  C   UNL     1      45.535 -10.461   8.045  1.00  0.00     0.063 A 
HETATM    5  N   UNL     1      46.095  -9.624   8.969  1.00  0.00    -0.277 N 
HETATM    6  H   UNL     1      46.953  -9.092   8.875  1.00  0.00     0.189 HD
HETATM    7  N   UNL     1      45.403  -9.517  10.115  1.00  0.00    -0.168 NA
HETATM    8  C   UNL     1      44.339 -10.332   9.928  1.00  0.00     0.156 A 
HETATM    9  C   UNL     1      45.941 -10.822   6.759  1.00  0.00     0.034 A 
HETATM   10  C   UNL     1      45.125 -11.726   6.067  1.00  0.00     0.032 A 
ENDROOT
BRANCH   1  11
HETATM   11  N   UNL     1      43.237 -13.179   5.850  1.00  0.00    -0.326 N 
HETATM   12  C   UNL     1      43.125 -14.539   6.041  1.00  0.00     0.231 C 
HETATM   13  O   UNL     1      43.562 -15.204   6.967  1.00  0.00    -0.272 OA
HETATM   14  H   UNL     1      42.776 -12.808   5.030  1.00  0.00     0.169 HD
BRANCH  12  15
HETATM   15  C   UNL     1      42.356 -15.221   4.931  1.00  0.00     0.045 A 
HETATM   16  C   UNL     1      40.897 -14.782   4.770  1.00  0.00     0.020 A 
HETATM   17  C   UNL     1      41.200 -16.139   5.319  1.00  0.00     0.020 A 
BRANCH  15  18
HETATM   18  C   UNL     1      43.130 -15.554   3.659  1.00  0.00     0.057 C 
BRANCH  18  19
HETATM   19  C   UNL     1      43.405 -17.026   3.439  1.00  0.00    -0.057 A 
HETATM   20  C   UNL     1      42.893 -17.742   2.350  1.00  0.00     0.007 A 
HETATM   21  C   UNL     1      43.123 -19.116   2.224  1.00  0.00     0.001 A 
HETATM   22  C   UNL     1      43.852 -19.797   3.194  1.00  0.00     0.000 A 
HETATM   23  C   UNL     1      44.352 -19.105   4.293  1.00  0.00     0.001 A 
HETATM   24  C   UNL     1      44.128 -17.733   4.417  1.00  0.00     0.007 A 
ENDBRANCH  18  19
ENDBRANCH  15  18
ENDBRANCH  12  15
ENDBRANCH   1  11
BRANCH   8  25
HETATM   25  C   UNL     1      43.318 -10.497  10.972  1.00  0.00     0.270 C 
HETATM   26  N   UNL     1      43.652 -11.404  11.942  1.00  0.00    -0.365 N 
HETATM   27  H   UNL     1      44.546 -11.876  11.876  1.00  0.00     0.159 HD
HETATM   28  H   UNL     1      43.015 -11.577  12.703  1.00  0.00     0.159 HD
HETATM   29  O   UNL     1      42.251  -9.895  11.009  1.00  0.00    -0.266 OA
ENDBRANCH   8  25
TORSDOF 5
ENDMDL
MODEL 4
REMARK VINA RESULT:      -8.4      1.716      2.462
REMARK  5 active torsions:
REMARK  status: ('A' for Active; 'I' for Inactive)
REMARK    1  A    between atoms: C_4  and  C_5 
REMARK    2  A    between atoms: C_5  and  C_6 
REMARK    3  A    between atoms: C_6  and  C_7 
REMARK       I    between atoms: C_7  and  N_8 
REMARK    4  A    between atoms: N_8  and  C_9 
REMARK    5  A    between atoms: C_16  and  C_17 
REMARK       I    between atoms: C_17  and  N_18 
ROOT
HETATM    1  C   UNL     1      42.759 -13.290   5.254  1.00  0.00     0.035 A 
HETATM    2  C   UNL     1      42.130 -12.049   5.090  1.00  0.00     0.046 A 
HETATM    3  C   UNL     1      42.440 -10.989   5.972  1.00  0.00     0.030 A 
HETATM    4  C   UNL     1      43.363 -11.209   6.986  1.00  0.00     0.063 A 
HETATM    5  N   UNL     1      43.444 -10.027   7.667  1.00  0.00    -0.277 N 
HETATM    6  H   UNL     1      44.019  -9.822   8.476  1.00  0.00     0.189 HD
HETATM    7  N   UNL     1      42.661  -9.050   7.180  1.00  0.00    -0.168 NA
HETATM    8  C   UNL     1      42.034  -9.630   6.131  1.00  0.00     0.156 A 
HETATM    9  C   UNL     1      44.012 -12.430   7.176  1.00  0.00     0.034 A 
HETATM   10  C   UNL     1      43.691 -13.463   6.286  1.00  0.00     0.032 A 
ENDROOT
BRANCH   1  11
HETATM   11  N   UNL     1      42.499 -14.414   4.443  1.00  0.00    -0.326 N 
HETATM   12  C   UNL     1      42.850 -14.600   3.123  1.00  0.00     0.231 C 
HETATM   13  O   UNL     1      43.520 -13.864   2.416  1.00  0.00    -0.272 OA
HETATM   14  H   UNL     1      41.962 -15.158   4.866  1.00  0.00     0.169 HD
BRANCH  12  15
HETATM   15  C   UNL     1      42.304 -15.889   2.552  1.00  0.00     0.045 A 
HETATM   16  C   UNL     1      40.960 -15.776   1.826  1.00  0.00     0.020 A 
HETATM   17  C   UNL     1      41.021 -16.454   3.157  1.00  0.00     0.020 A 
BRANCH  15  18
HETATM   18  C   UNL     1      43.320 -16.881   1.991  1.00  0.00     0.057 C 
BRANCH  18  19
HETATM   19  C   UNL     1      43.522 -18.133   2.818  1.00  0.00    -0.057 A 
HETATM   20  C   UNL     1      43.965 -18.104   4.145  1.00  0.00     0.007 A 
HETATM   21  C   UNL     1      44.197 -19.291   4.849  1.00  0.00     0.001 A 
HETATM   22  C   UNL     1      44.007 -20.522   4.229  1.00  0.00     0.000 A 
HETATM   23  C   UNL     1      43.585 -20.570   2.903  1.00  0.00     0.001 A 
HETATM   24  C   UNL     1      43.348 -19.385   2.203  1.00  0.00     0.007 A 
ENDBRANCH  18  19
ENDBRANCH  15  18
ENDBRANCH  12  15
ENDBRANCH   1  11
BRANCH   8  25
HETATM   25  C   UNL     1      41.072  -8.878   5.312  1.00  0.00     0.270 C 
HETATM   26  N   UNL     1      41.536  -8.547   4.068  1.00  0.00    -0.365 N 
HETATM   27  H   UNL     1      42.471  -8.835   3.807  1.00  0.00     0.159 HD
HETATM   28  H   UNL     1      40.943  -8.036   3.434  1.00  0.00     0.159 HD
HETATM   29  O   UNL     1      39.945  -8.557   5.674  1.00  0.00    -0.266 OA
ENDBRANCH   8  25
TORSDOF 5
ENDMDL
MODEL 5
REMARK VINA RESULT:      -8.2      4.707      7.345
REMARK  5 active torsions:
REMARK  status: ('A' for Active; 'I' for Inactive)
REMARK    1  A    between atoms: C_4  and  C_5 
REMARK    2  A    between atoms: C_5  and  C_6 
REMARK    3  A    between atoms: C_6  and  C_7 
REMARK       I    between atoms: C_7  and  N_8 
REMARK    4  A    between atoms: N_8  and  C_9 
REMARK    5  A    between atoms: C_16  and  C_17 
REMARK       I    between atoms: C_17  and  N_18 
ROOT
HETATM    1  C   UNL     1      39.998 -14.035  -0.480  1.00  0.00     0.035 A 
HETATM    2  C   UNL     1      39.304 -12.821  -0.399  1.00  0.00     0.046 A 
HETATM    3  C   UNL     1      38.323 -12.514  -1.369  1.00  0.00     0.030 A 
HETATM    4  C   UNL     1      38.073 -13.429  -2.384  1.00  0.00     0.063 A 
HETATM    5  N   UNL     1      37.101 -12.859  -3.157  1.00  0.00    -0.277 N 
HETATM    6  H   UNL     1      36.677 -13.244  -3.993  1.00  0.00     0.189 HD
HETATM    7  N   UNL     1      36.687 -11.654  -2.731  1.00  0.00    -0.168 NA
HETATM    8  C   UNL     1      37.432 -11.427  -1.625  1.00  0.00     0.156 A 
HETATM    9  C   UNL     1      38.742 -14.649  -2.492  1.00  0.00     0.034 A 
HETATM   10  C   UNL     1      39.706 -14.932  -1.516  1.00  0.00     0.032 A 
ENDROOT
BRANCH   1  11
HETATM   11  N   UNL     1      41.010 -14.421   0.423  1.00  0.00    -0.326 N 
HETATM   12  C   UNL     1      40.855 -14.959   1.682  1.00  0.00     0.231 C 
HETATM   13  O   UNL     1      39.816 -15.280   2.237  1.00  0.00    -0.272 OA
HETATM   14  H   UNL     1      41.962 -14.252   0.129  1.00  0.00     0.169 HD
BRANCH  12  15
HETATM   15  C   UNL     1      42.173 -15.145   2.401  1.00  0.00     0.045 A 
HETATM   16  C   UNL     1      43.066 -13.903   2.479  1.00  0.00     0.020 A 
HETATM   17  C   UNL     1      43.457 -15.033   1.583  1.00  0.00     0.020 A 
BRANCH  15  18
HETATM   18  C   UNL     1      42.178 -16.086   3.603  1.00  0.00     0.057 C 
BRANCH  18  19
HETATM   19  C   UNL     1      42.835 -17.429   3.367  1.00  0.00    -0.057 A 
HETATM   20  C   UNL     1      42.555 -18.227   2.250  1.00  0.00     0.007 A 
HETATM   21  C   UNL     1      43.141 -19.489   2.108  1.00  0.00     0.001 A 
HETATM   22  C   UNL     1      43.999 -19.979   3.087  1.00  0.00     0.000 A 
HETATM   23  C   UNL     1      44.273 -19.208   4.213  1.00  0.00     0.001 A 
HETATM   24  C   UNL     1      43.693 -17.945   4.353  1.00  0.00     0.007 A 
ENDBRANCH  18  19
ENDBRANCH  15  18
ENDBRANCH  12  15
ENDBRANCH   1  11
BRANCH   8  25
HETATM   25  C   UNL     1      37.277 -10.190  -0.847  1.00  0.00     0.270 C 
HETATM   26  N   UNL     1      36.641 -10.362   0.353  1.00  0.00    -0.365 N 
HETATM   27  H   UNL     1      36.337 -11.293   0.612  1.00  0.00     0.159 HD
HETATM   28  H   UNL     1      36.495  -9.569   0.958  1.00  0.00     0.159 HD
HETATM   29  O   UNL     1      37.669  -9.085  -1.203  1.00  0.00    -0.266 OA
ENDBRANCH   8  25
TORSDOF 5
ENDMDL
MODEL 6
REMARK VINA RESULT:      -8.2      3.921      5.653
REMARK  5 active torsions:
REMARK  status: ('A' for Active; 'I' for Inactive)
REMARK    1  A    between atoms: C_4  and  C_5 
REMARK    2  A    between atoms: C_5  and  C_6 
REMARK    3  A    between atoms: C_6  and  C_7 
REMARK       I    between atoms: C_7  and  N_8 
REMARK    4  A    between atoms: N_8  and  C_9 
REMARK    5  A    between atoms: C_16  and  C_17 
REMARK       I    between atoms: C_17  and  N_18 
ROOT
HETATM    1  C   UNL     1      41.682 -15.067   2.522  1.00  0.00     0.035 A 
HETATM    2  C   UNL     1      41.722 -13.794   1.938  1.00  0.00     0.046 A 
HETATM    3  C   UNL     1      40.862 -13.498   0.855  1.00  0.00     0.030 A 
HETATM    4  C   UNL     1      39.999 -14.484   0.396  1.00  0.00     0.063 A 
HETATM    5  N   UNL     1      39.317 -13.914  -0.643  1.00  0.00    -0.277 N 
HETATM    6  H   UNL     1      38.605 -14.347  -1.221  1.00  0.00     0.189 HD
HETATM    7  N   UNL     1      39.653 -12.639  -0.897  1.00  0.00    -0.168 NA
HETATM    8  C   UNL     1      40.608 -12.366   0.023  1.00  0.00     0.156 A 
HETATM    9  C   UNL     1      39.930 -15.759   0.957  1.00  0.00     0.034 A 
HETATM   10  C   UNL     1      40.787 -16.027   2.031  1.00  0.00     0.032 A 
ENDROOT
BRANCH   1  11
HETATM   11  N   UNL     1      42.515 -15.466   3.588  1.00  0.00    -0.326 N 
HETATM   12  C   UNL     1      42.153 -16.141   4.733  1.00  0.00     0.231 C 
HETATM   13  O   UNL     1      41.057 -16.595   5.020  1.00  0.00    -0.272 OA
HETATM   14  H   UNL     1      43.487 -15.196   3.522  1.00  0.00     0.169 HD
BRANCH  12  15
HETATM   15  C   UNL     1      43.303 -16.300   5.702  1.00  0.00     0.045 A 
HETATM   16  C   UNL     1      42.912 -16.444   7.176  1.00  0.00     0.020 A 
HETATM   17  C   UNL     1      43.555 -15.178   6.706  1.00  0.00     0.020 A 
BRANCH  15  18
HETATM   18  C   UNL     1      44.509 -17.102   5.218  1.00  0.00     0.057 C 
BRANCH  18  19
HETATM   19  C   UNL     1      44.183 -18.444   4.599  1.00  0.00    -0.057 A 
HETATM   20  C   UNL     1      44.060 -19.619   5.351  1.00  0.00     0.007 A 
HETATM   21  C   UNL     1      43.820 -20.847   4.726  1.00  0.00     0.001 A 
HETATM   22  C   UNL     1      43.717 -20.921   3.341  1.00  0.00     0.000 A 
HETATM   23  C   UNL     1      43.856 -19.767   2.576  1.00  0.00     0.001 A 
HETATM   24  C   UNL     1      44.090 -18.539   3.199  1.00  0.00     0.007 A 
ENDBRANCH  18  19
ENDBRANCH  15  18
ENDBRANCH  12  15
ENDBRANCH   1  11
BRANCH   8  25
HETATM   25  C   UNL     1      41.247 -11.044   0.083  1.00  0.00     0.270 C 
HETATM   26  N   UNL     1      41.414 -10.448  -1.138  1.00  0.00    -0.365 N 
HETATM   27  H   UNL     1      41.096 -10.940  -1.964  1.00  0.00     0.159 HD
HETATM   28  H   UNL     1      41.838  -9.536  -1.194  1.00  0.00     0.159 HD
HETATM   29  O   UNL     1      41.610 -10.488   1.114  1.00  0.00    -0.266 OA
ENDBRANCH   8  25
TORSDOF 5
ENDMDL
MODEL 7
REMARK VINA RESULT:      -8.0      3.772      6.619
REMARK  5 active torsions:
REMARK  status: ('A' for Active; 'I' for Inactive)
REMARK    1  A    between atoms: C_4  and  C_5 
REMARK    2  A    between atoms: C_5  and  C_6 
REMARK    3  A    between atoms: C_6  and  C_7 
REMARK       I    between atoms: C_7  and  N_8 
REMARK    4  A    between atoms: N_8  and  C_9 
REMARK    5  A    between atoms: C_16  and  C_17 
REMARK       I    between atoms: C_17  and  N_18 
ROOT
HETATM    1  C   UNL     1      39.752 -13.099   2.256  1.00  0.00     0.035 A 
HETATM    2  C   UNL     1      39.798 -13.605   0.951  1.00  0.00     0.046 A 
HETATM    3  C   UNL     1      39.110 -12.929  -0.082  1.00  0.00     0.030 A 
HETATM    4  C   UNL     1      38.400 -11.776   0.227  1.00  0.00     0.063 A 
HETATM    5  N   UNL     1      37.845 -11.363  -0.951  1.00  0.00    -0.277 N 
HETATM    6  H   UNL     1      37.254 -10.554  -1.101  1.00  0.00     0.189 HD
HETATM    7  N   UNL     1      38.137 -12.141  -2.007  1.00  0.00    -0.168 NA
HETATM    8  C   UNL     1      38.920 -13.114  -1.485  1.00  0.00     0.156 A 
HETATM    9  C   UNL     1      38.337 -11.242   1.515  1.00  0.00     0.034 A 
HETATM   10  C   UNL     1      39.031 -11.927   2.520  1.00  0.00     0.032 A 
ENDROOT
BRANCH   1  11
HETATM   11  N   UNL     1      40.384 -13.714   3.357  1.00  0.00    -0.326 N 
HETATM   12  C   UNL     1      41.681 -13.541   3.789  1.00  0.00     0.231 C 
HETATM   13  O   UNL     1      42.519 -12.768   3.354  1.00  0.00    -0.272 OA
HETATM   14  H   UNL     1      39.833 -14.388   3.872  1.00  0.00     0.169 HD
BRANCH  12  15
HETATM   15  C   UNL     1      42.036 -14.453   4.942  1.00  0.00     0.045 A 
HETATM   16  C   UNL     1      42.065 -13.793   6.324  1.00  0.00     0.020 A 
HETATM   17  C   UNL     1      43.350 -14.201   5.678  1.00  0.00     0.020 A 
BRANCH  15  18
HETATM   18  C   UNL     1      41.532 -15.892   4.866  1.00  0.00     0.057 C 
BRANCH  18  19
HETATM   19  C   UNL     1      42.450 -16.859   4.151  1.00  0.00    -0.057 A 
HETATM   20  C   UNL     1      42.341 -17.142   2.783  1.00  0.00     0.007 A 
HETATM   21  C   UNL     1      43.173 -18.091   2.180  1.00  0.00     0.001 A 
HETATM   22  C   UNL     1      44.112 -18.783   2.938  1.00  0.00     0.000 A 
HETATM   23  C   UNL     1      44.222 -18.529   4.302  1.00  0.00     0.001 A 
HETATM   24  C   UNL     1      43.395 -17.578   4.904  1.00  0.00     0.007 A 
ENDBRANCH  18  19
ENDBRANCH  15  18
ENDBRANCH  12  15
ENDBRANCH   1  11
BRANCH   8  25
HETATM   25  C   UNL     1      39.464 -14.185  -2.333  1.00  0.00     0.270 C 
HETATM   26  N   UNL     1      38.742 -15.348  -2.294  1.00  0.00    -0.365 N 
HETATM   27  H   UNL     1      37.915 -15.385  -1.711  1.00  0.00     0.159 HD
HETATM   28  H   UNL     1      39.035 -16.135  -2.849  1.00  0.00     0.159 HD
HETATM   29  O   UNL     1      40.469 -14.087  -3.027  1.00  0.00    -0.266 OA
ENDBRANCH   8  25
TORSDOF 5
ENDMDL
MODEL 8
REMARK VINA RESULT:      -7.8      4.037      6.973
REMARK  5 active torsions:
REMARK  status: ('A' for Active; 'I' for Inactive)
REMARK    1  A    between atoms: C_4  and  C_5 
REMARK    2  A    between atoms: C_5  and  C_6 
REMARK    3  A    between atoms: C_6  and  C_7 
REMARK       I    between atoms: C_7  and  N_8 
REMARK    4  A    between atoms: N_8  and  C_9 
REMARK    5  A    between atoms: C_16  and  C_17 
REMARK       I    between atoms: C_17  and  N_18 
ROOT
HETATM    1  C   UNL     1      41.730 -15.308   2.704  1.00  0.00     0.035 A 
HETATM    2  C   UNL     1      41.900 -15.543   4.075  1.00  0.00     0.046 A 
HETATM    3  C   UNL     1      42.728 -16.607   4.501  1.00  0.00     0.030 A 
HETATM    4  C   UNL     1      43.352 -17.396   3.543  1.00  0.00     0.063 A 
HETATM    5  N   UNL     1      44.062 -18.328   4.247  1.00  0.00    -0.277 N 
HETATM    6  H   UNL     1      44.636 -19.074   3.872  1.00  0.00     0.189 HD
HETATM    7  N   UNL     1      43.964 -18.211   5.582  1.00  0.00    -0.168 NA
HETATM    8  C   UNL     1      43.143 -17.150   5.755  1.00  0.00     0.156 A 
HETATM    9  C   UNL     1      43.208 -17.187   2.171  1.00  0.00     0.034 A 
HETATM   10  C   UNL     1      42.387 -16.124   1.774  1.00  0.00     0.032 A 
ENDROOT
BRANCH   1  11
HETATM   11  N   UNL     1      40.907 -14.289   2.181  1.00  0.00    -0.326 N 
HETATM   12  C   UNL     1      41.226 -12.962   1.992  1.00  0.00     0.231 C 
HETATM   13  O   UNL     1      42.304 -12.418   2.168  1.00  0.00    -0.272 OA
HETATM   14  H   UNL     1      39.960 -14.554   1.948  1.00  0.00     0.169 HD
BRANCH  12  15
HETATM   15  C   UNL     1      40.048 -12.145   1.509  1.00  0.00     0.045 A 
HETATM   16  C   UNL     1      39.454 -11.171   2.531  1.00  0.00     0.020 A 
HETATM   17  C   UNL     1      38.688 -12.398   2.153  1.00  0.00     0.020 A 
BRANCH  15  18
HETATM   18  C   UNL     1      40.070 -11.698   0.049  1.00  0.00     0.057 C 
BRANCH  18  19
HETATM   19  C   UNL     1      39.352 -12.617  -0.916  1.00  0.00    -0.057 A 
HETATM   20  C   UNL     1      39.884 -13.841  -1.339  1.00  0.00     0.007 A 
HETATM   21  C   UNL     1      39.212 -14.627  -2.281  1.00  0.00     0.001 A 
HETATM   22  C   UNL     1      38.009 -14.192  -2.827  1.00  0.00     0.000 A 
HETATM   23  C   UNL     1      37.475 -12.968  -2.432  1.00  0.00     0.001 A 
HETATM   24  C   UNL     1      38.142 -12.186  -1.488  1.00  0.00     0.007 A 
ENDBRANCH  18  19
ENDBRANCH  15  18
ENDBRANCH  12  15
ENDBRANCH   1  11
BRANCH   8  25
HETATM   25  C   UNL     1      42.779 -16.684   7.101  1.00  0.00     0.270 C 
HETATM   26  N   UNL     1      43.744 -16.903   8.047  1.00  0.00    -0.365 N 
HETATM   27  H   UNL     1      44.608 -17.349   7.763  1.00  0.00     0.159 HD
HETATM   28  H   UNL     1      43.585 -16.610   8.997  1.00  0.00     0.159 HD
HETATM   29  O   UNL     1      41.718 -16.143   7.391  1.00  0.00    -0.266 OA
ENDBRANCH   8  25
TORSDOF 5
ENDMDL
MODEL 9
REMARK VINA RESULT:      -7.7      3.505      5.981
REMARK  5 active torsions:
REMARK  status: ('A' for Active; 'I' for Inactive)
REMARK    1  A    between atoms: C_4  and  C_5 
REMARK    2  A    between atoms: C_5  and  C_6 
REMARK    3  A    between atoms: C_6  and  C_7 
REMARK       I    between atoms: C_7  and  N_8 
REMARK    4  A    between atoms: N_8  and  C_9 
REMARK    5  A    between atoms: C_16  and  C_17 
REMARK       I    between atoms: C_17  and  N_18 
ROOT
HETATM    1  C   UNL     1      42.045 -12.807   2.616  1.00  0.00     0.035 A 
HETATM    2  C   UNL     1      41.488 -13.273   1.418  1.00  0.00     0.046 A 
HETATM    3  C   UNL     1      41.087 -12.346   0.430  1.00  0.00     0.030 A 
HETATM    4  C   UNL     1      41.253 -10.989   0.676  1.00  0.00     0.063 A 
HETATM    5  N   UNL     1      40.772 -10.356  -0.435  1.00  0.00    -0.277 N 
HETATM    6  H   UNL     1      40.730  -9.357  -0.603  1.00  0.00     0.189 HD
HETATM    7  N   UNL     1      40.314 -11.181  -1.391  1.00  0.00    -0.168 NA
HETATM    8  C   UNL     1      40.503 -12.416  -0.871  1.00  0.00     0.156 A 
HETATM    9  C   UNL     1      41.808 -10.490   1.856  1.00  0.00     0.034 A 
HETATM   10  C   UNL     1      42.203 -11.429   2.817  1.00  0.00     0.032 A 
ENDROOT
BRANCH   1  11
HETATM   11  N   UNL     1      42.453 -13.650   3.671  1.00  0.00    -0.326 N 
HETATM   12  C   UNL     1      41.718 -14.042   4.769  1.00  0.00     0.231 C 
HETATM   13  O   UNL     1      40.547 -13.800   5.011  1.00  0.00    -0.272 OA
HETATM   14  H   UNL     1      43.408 -13.981   3.637  1.00  0.00     0.169 HD
BRANCH  12  15
HETATM   15  C   UNL     1      42.527 -14.865   5.746  1.00  0.00     0.045 A 
HETATM   16  C   UNL     1      42.888 -14.166   7.061  1.00  0.00     0.020 A 
HETATM   17  C   UNL     1      43.956 -14.420   6.046  1.00  0.00     0.020 A 
BRANCH  15  18
HETATM   18  C   UNL     1      42.221 -16.359   5.810  1.00  0.00     0.057 C 
BRANCH  18  19
HETATM   19  C   UNL     1      42.907 -17.202   4.756  1.00  0.00    -0.057 A 
HETATM   20  C   UNL     1      42.538 -17.179   3.405  1.00  0.00     0.007 A 
HETATM   21  C   UNL     1      43.160 -18.022   2.479  1.00  0.00     0.001 A 
HETATM   22  C   UNL     1      44.144 -18.914   2.893  1.00  0.00     0.000 A 
HETATM   23  C   UNL     1      44.509 -18.965   4.235  1.00  0.00     0.001 A 
HETATM   24  C   UNL     1      43.894 -18.119   5.159  1.00  0.00     0.007 A 
ENDBRANCH  18  19
ENDBRANCH  15  18
ENDBRANCH  12  15
ENDBRANCH   1  11
BRANCH   8  25
HETATM   25  C   UNL     1      40.125 -13.621  -1.623  1.00  0.00     0.270 C 
HETATM   26  N   UNL     1      40.881 -13.840  -2.743  1.00  0.00    -0.365 N 
HETATM   27  H   UNL     1      41.621 -13.184  -2.964  1.00  0.00     0.159 HD
HETATM   28  H   UNL     1      40.699 -14.647  -3.318  1.00  0.00     0.159 HD
HETATM   29  O   UNL     1      39.222 -14.388  -1.309  1.00  0.00    -0.266 OA
ENDBRANCH   8  25
TORSDOF 5
ENDMDL
MODEL 10
REMARK VINA RESULT:      -7.6      3.982      7.720
REMARK  5 active torsions:
REMARK  status: ('A' for Active; 'I' for Inactive)
REMARK    1  A    between atoms: C_4  and  C_5 
REMARK    2  A    between atoms: C_5  and  C_6 
REMARK    3  A    between atoms: C_6  and  C_7 
REMARK       I    between atoms: C_7  and  N_8 
REMARK    4  A    between atoms: N_8  and  C_9 
REMARK    5  A    between atoms: C_16  and  C_17 
REMARK       I    between atoms: C_17  and  N_18 
ROOT
HETATM    1  C   UNL     1      42.629 -15.731   3.270  1.00  0.00     0.035 A 
HETATM    2  C   UNL     1      42.773 -17.015   2.726  1.00  0.00     0.046 A 
HETATM    3  C   UNL     1      43.383 -18.032   3.495  1.00  0.00     0.030 A 
HETATM    4  C   UNL     1      43.830 -17.729   4.775  1.00  0.00     0.063 A 
HETATM    5  N   UNL     1      44.372 -18.889   5.254  1.00  0.00    -0.277 N 
HETATM    6  H   UNL     1      44.801 -19.036   6.160  1.00  0.00     0.189 HD
HETATM    7  N   UNL     1      44.311 -19.925   4.403  1.00  0.00    -0.168 NA
HETATM    8  C   UNL     1      43.701 -19.412   3.310  1.00  0.00     0.156 A 
HETATM    9  C   UNL     1      43.699 -16.464   5.349  1.00  0.00     0.034 A 
HETATM   10  C   UNL     1      43.086 -15.475   4.570  1.00  0.00     0.032 A 
ENDROOT
BRANCH   1  11
HETATM   11  N   UNL     1      42.058 -14.646   2.575  1.00  0.00    -0.326 N 
HETATM   12  C   UNL     1      40.852 -14.026   2.825  1.00  0.00     0.231 C 
HETATM   13  O   UNL     1      40.074 -14.243   3.740  1.00  0.00    -0.272 OA
HETATM   14  H   UNL     1      42.575 -14.300   1.779  1.00  0.00     0.169 HD
BRANCH  12  15
HETATM   15  C   UNL     1      40.521 -12.965   1.800  1.00  0.00     0.045 A 
HETATM   16  C   UNL     1      40.242 -11.567   2.361  1.00  0.00     0.020 A 
HETATM   17  C   UNL     1      39.113 -12.375   1.807  1.00  0.00     0.020 A 
BRANCH  15  18
HETATM   18  C   UNL     1      41.247 -13.048   0.460  1.00  0.00     0.057 C 
BRANCH  18  19
HETATM   19  C   UNL     1      40.379 -13.424  -0.721  1.00  0.00    -0.057 A 
HETATM   20  C   UNL     1      39.712 -14.652  -0.815  1.00  0.00     0.007 A 
HETATM   21  C   UNL     1      38.971 -14.980  -1.955  1.00  0.00     0.001 A 
HETATM   22  C   UNL     1      38.902 -14.093  -3.025  1.00  0.00     0.000 A 
HETATM   23  C   UNL     1      39.575 -12.876  -2.958  1.00  0.00     0.001 A 
HETATM   24  C   UNL     1      40.309 -12.546  -1.817  1.00  0.00     0.007 A 
ENDBRANCH  18  19
ENDBRANCH  15  18
ENDBRANCH  12  15
ENDBRANCH   1  11
BRANCH   8  25
HETATM   25  C   UNL     1      43.438 -20.244   2.127  1.00  0.00     0.270 C 
HETATM   26  N   UNL     1      42.128 -20.252   1.730  1.00  0.00    -0.365 N 
HETATM   27  H   UNL     1      41.459 -19.703   2.257  1.00  0.00     0.159 HD
HETATM   28  H   UNL     1      41.854 -20.790   0.924  1.00  0.00     0.159 HD
HETATM   29  O   UNL     1      44.287 -20.886   1.520  1.00  0.00    -0.266 OA
ENDBRANCH   8  25
TORSDOF 5
ENDMDL
