MODEL 1
REMARK VINA RESULT:      -9.3      0.000      0.000
REMARK  3 active torsions:
REMARK  status: ('A' for Active; 'I' for Inactive)
REMARK    1  A    between atoms: N_7  and  N_8 
REMARK       I    between atoms: N_8  and  C_9 
REMARK    2  A    between atoms: C_9  and  C_10 
REMARK    3  A    between atoms: C_14  and  C_15 
ROOT
HETATM    1  N   UNL     1      41.895 -12.665   5.475  1.00  0.00    -0.241 N 
HETATM    2  C   UNL     1      42.199 -12.688   4.120  1.00  0.00     0.289 C 
HETATM    3  O   UNL     1      42.134 -11.716   3.373  1.00  0.00    -0.264 OA
HETATM    4  H   UNL     1      41.760 -13.541   5.954  1.00  0.00     0.192 HD
ENDROOT
BRANCH   2   5
HETATM    5  C   UNL     1      42.600 -13.980   3.622  1.00  0.00     0.121 A 
HETATM    6  N   UNL     1      43.146 -14.123   2.378  1.00  0.00    -0.272 N 
HETATM    7  H   UNL     1      43.317 -13.383   1.701  1.00  0.00     0.189 HD
HETATM    8  N   UNL     1      43.463 -15.386   2.057  1.00  0.00    -0.174 NA
HETATM    9  C   UNL     1      43.162 -16.100   3.153  1.00  0.00     0.089 A 
HETATM   10  C   UNL     1      42.601 -15.255   4.152  1.00  0.00     0.071 A 
BRANCH   9  11
HETATM   11  C   UNL     1      43.413 -17.543   3.223  1.00  0.00    -0.005 A 
HETATM   12  C   UNL     1      44.033 -18.116   4.346  1.00  0.00     0.017 A 
HETATM   13  C   UNL     1      44.272 -19.493   4.399  1.00  0.00     0.043 A 
HETATM   14  C   UNL     1      43.892 -20.299   3.332  1.00  0.00     0.116 A 
HETATM   15  F   UNL     1      44.123 -21.616   3.387  1.00  0.00    -0.206 F 
HETATM   16  C   UNL     1      43.281 -19.755   2.211  1.00  0.00     0.043 A 
HETATM   17  C   UNL     1      43.045 -18.379   2.155  1.00  0.00     0.017 A 
ENDBRANCH   9  11
ENDBRANCH   2   5
BRANCH   1  18
HETATM   18  N   UNL     1      41.422 -11.524   6.045  1.00  0.00    -0.165 NA
HETATM   19  C   UNL     1      42.217 -10.741   6.703  1.00  0.00     0.157 A 
HETATM   20  C   UNL     1      43.669 -10.727   6.948  1.00  0.00     0.027 A 
HETATM   21  C   UNL     1      41.657  -9.519   7.466  1.00  0.00     0.277 A 
HETATM   22  C   UNL     1      44.720 -11.492   6.473  1.00  0.00     0.016 A 
HETATM   23  C   UNL     1      43.904  -9.656   7.816  1.00  0.00     0.048 A 
HETATM   24  C   UNL     1      46.008 -11.190   6.931  1.00  0.00     0.001 A 
HETATM   25  C   UNL     1      46.230 -10.129   7.828  1.00  0.00     0.002 A 
HETATM   26  C   UNL     1      45.168  -9.339   8.273  1.00  0.00     0.030 A 
HETATM   27  N   UNL     1      42.735  -8.967   8.114  1.00  0.00    -0.321 N 
HETATM   28  H   UNL     1      42.657  -8.143   8.691  1.00  0.00     0.169 HD
HETATM   29  O   UNL     1      40.506  -9.143   7.489  1.00  0.00    -0.266 OA
ENDBRANCH   1  18
TORSDOF 3
ENDMDL
MODEL 2
REMARK VINA RESULT:      -9.1      1.943      2.196
REMARK  3 active torsions:
REMARK  status: ('A' for Active; 'I' for Inactive)
REMARK    1  A    between atoms: N_7  and  N_8 
REMARK       I    between atoms: N_8  and  C_9 
REMARK    2  A    between atoms: C_9  and  C_10 
REMARK    3  A    between atoms: C_14  and  C_15 
ROOT
HETATM    1  N   UNL     1      41.314 -11.684   6.398  1.00  0.00    -0.241 N 
HETATM    2  C   UNL     1      40.260 -12.550   6.136  1.00  0.00     0.289 C 
HETATM    3  O   UNL     1      39.073 -12.251   6.218  1.00  0.00    -0.264 OA
HETATM    4  H   UNL     1      42.235 -12.070   6.524  1.00  0.00     0.192 HD
ENDROOT
BRANCH   2   5
HETATM    5  C   UNL     1      40.665 -13.881   5.757  1.00  0.00     0.121 A 
HETATM    6  N   UNL     1      39.961 -14.979   6.164  1.00  0.00    -0.272 N 
HETATM    7  H   UNL     1      39.127 -14.985   6.746  1.00  0.00     0.189 HD
HETATM    8  N   UNL     1      40.465 -16.145   5.734  1.00  0.00    -0.174 NA
HETATM    9  C   UNL     1      41.513 -15.802   4.970  1.00  0.00     0.089 A 
HETATM   10  C   UNL     1      41.682 -14.389   4.973  1.00  0.00     0.071 A 
BRANCH   9  11
HETATM   11  C   UNL     1      42.313 -16.809   4.266  1.00  0.00    -0.005 A 
HETATM   12  C   UNL     1      43.333 -17.514   4.927  1.00  0.00     0.017 A 
HETATM   13  C   UNL     1      44.093 -18.469   4.244  1.00  0.00     0.043 A 
HETATM   14  C   UNL     1      43.836 -18.721   2.902  1.00  0.00     0.116 A 
HETATM   15  F   UNL     1      44.566 -19.636   2.252  1.00  0.00    -0.206 F 
HETATM   16  C   UNL     1      42.835 -18.035   2.227  1.00  0.00     0.043 A 
HETATM   17  C   UNL     1      42.078 -17.079   2.907  1.00  0.00     0.017 A 
ENDBRANCH   9  11
ENDBRANCH   2   5
BRANCH   1  18
HETATM   18  N   UNL     1      41.061 -10.425   6.847  1.00  0.00    -0.165 NA
HETATM   19  C   UNL     1      42.013  -9.704   7.349  1.00  0.00     0.157 A 
HETATM   20  C   UNL     1      43.466  -9.887   7.498  1.00  0.00     0.027 A 
HETATM   21  C   UNL     1      41.702  -8.330   7.984  1.00  0.00     0.277 A 
HETATM   22  C   UNL     1      44.352 -10.856   7.059  1.00  0.00     0.016 A 
HETATM   23  C   UNL     1      43.926  -8.772   8.206  1.00  0.00     0.048 A 
HETATM   24  C   UNL     1      45.704 -10.706   7.392  1.00  0.00     0.001 A 
HETATM   25  C   UNL     1      46.150  -9.596   8.130  1.00  0.00     0.002 A 
HETATM   26  C   UNL     1      45.255  -8.605   8.538  1.00  0.00     0.030 A 
HETATM   27  N   UNL     1      42.899  -7.880   8.487  1.00  0.00    -0.321 N 
HETATM   28  H   UNL     1      42.989  -6.993   8.959  1.00  0.00     0.169 HD
HETATM   29  O   UNL     1      40.624  -7.780   8.032  1.00  0.00    -0.266 OA
ENDBRANCH   1  18
TORSDOF 3
ENDMDL
MODEL 3
REMARK VINA RESULT:      -9.1      4.812      7.269
REMARK  3 active torsions:
REMARK  status: ('A' for Active; 'I' for Inactive)
REMARK    1  A    between atoms: N_7  and  N_8 
REMARK       I    between atoms: N_8  and  C_9 
REMARK    2  A    between atoms: C_9  and  C_10 
REMARK    3  A    between atoms: C_14  and  C_15 
ROOT
HETATM    1  N   UNL     1      42.036 -14.324   4.325  1.00  0.00    -0.241 N 
HETATM    2  C   UNL     1      40.836 -13.665   4.090  1.00  0.00     0.289 C 
HETATM    3  O   UNL     1      40.061 -13.292   4.965  1.00  0.00    -0.264 OA
HETATM    4  H   UNL     1      42.491 -14.786   3.554  1.00  0.00     0.192 HD
ENDROOT
BRANCH   2   5
HETATM    5  C   UNL     1      40.539 -13.448   2.696  1.00  0.00     0.121 A 
HETATM    6  N   UNL     1      41.077 -12.395   2.012  1.00  0.00    -0.272 N 
HETATM    7  H   UNL     1      41.705 -11.686   2.384  1.00  0.00     0.189 HD
HETATM    8  N   UNL     1      40.703 -12.325   0.726  1.00  0.00    -0.174 NA
HETATM    9  C   UNL     1      39.928 -13.405   0.539  1.00  0.00     0.089 A 
HETATM   10  C   UNL     1      39.787 -14.127   1.758  1.00  0.00     0.071 A 
BRANCH   9  11
HETATM   11  C   UNL     1      39.353 -13.720  -0.773  1.00  0.00    -0.005 A 
HETATM   12  C   UNL     1      38.715 -12.730  -1.539  1.00  0.00     0.017 A 
HETATM   13  C   UNL     1      38.166 -13.043  -2.787  1.00  0.00     0.043 A 
HETATM   14  C   UNL     1      38.252 -14.344  -3.270  1.00  0.00     0.116 A 
HETATM   15  F   UNL     1      37.725 -14.639  -4.464  1.00  0.00    -0.206 F 
HETATM   16  C   UNL     1      38.875 -15.339  -2.529  1.00  0.00     0.043 A 
HETATM   17  C   UNL     1      39.422 -15.028  -1.282  1.00  0.00     0.017 A 
ENDBRANCH   9  11
ENDBRANCH   2   5
BRANCH   1  18
HETATM   18  N   UNL     1      42.387 -14.662   5.595  1.00  0.00    -0.165 NA
HETATM   19  C   UNL     1      42.847 -15.845   5.855  1.00  0.00     0.157 A 
HETATM   20  C   UNL     1      43.202 -17.010   5.029  1.00  0.00     0.027 A 
HETATM   21  C   UNL     1      43.116 -16.275   7.315  1.00  0.00     0.277 A 
HETATM   22  C   UNL     1      43.267 -17.222   3.663  1.00  0.00     0.016 A 
HETATM   23  C   UNL     1      43.565 -18.022   5.923  1.00  0.00     0.048 A 
HETATM   24  C   UNL     1      43.655 -18.491   3.214  1.00  0.00     0.001 A 
HETATM   25  C   UNL     1      43.989 -19.510   4.123  1.00  0.00     0.002 A 
HETATM   26  C   UNL     1      43.955 -19.277   5.500  1.00  0.00     0.030 A 
HETATM   27  N   UNL     1      43.507 -17.591   7.242  1.00  0.00    -0.321 N 
HETATM   28  H   UNL     1      43.752 -18.130   8.059  1.00  0.00     0.169 HD
HETATM   29  O   UNL     1      42.994 -15.593   8.307  1.00  0.00    -0.266 OA
ENDBRANCH   1  18
TORSDOF 3
ENDMDL
MODEL 4
REMARK VINA RESULT:      -8.8      3.919      8.787
REMARK  3 active torsions:
REMARK  status: ('A' for Active; 'I' for Inactive)
REMARK    1  A    between atoms: N_7  and  N_8 
REMARK       I    between atoms: N_8  and  C_9 
REMARK    2  A    between atoms: C_9  and  C_10 
REMARK    3  A    between atoms: C_14  and  C_15 
ROOT
HETATM    1  N   UNL     1      42.753 -13.087   4.632  1.00  0.00    -0.241 N 
HETATM    2  C   UNL     1      43.602 -11.990   4.696  1.00  0.00     0.289 C 
HETATM    3  O   UNL     1      44.068 -11.409   3.721  1.00  0.00    -0.264 OA
HETATM    4  H   UNL     1      42.603 -13.630   5.466  1.00  0.00     0.192 HD
ENDROOT
BRANCH   2   5
HETATM    5  C   UNL     1      43.924 -11.565   6.036  1.00  0.00     0.121 A 
HETATM    6  N   UNL     1      45.160 -11.790   6.573  1.00  0.00    -0.272 N 
HETATM    7  H   UNL     1      45.943 -12.256   6.122  1.00  0.00     0.189 HD
HETATM    8  N   UNL     1      45.304 -11.342   7.829  1.00  0.00    -0.174 NA
HETATM    9  C   UNL     1      44.134 -10.750   8.115  1.00  0.00     0.089 A 
HETATM   10  C   UNL     1      43.234 -10.885   7.020  1.00  0.00     0.071 A 
BRANCH   9  11
HETATM   11  C   UNL     1      43.904 -10.082   9.399  1.00  0.00    -0.005 A 
HETATM   12  C   UNL     1      43.738 -10.823  10.581  1.00  0.00     0.017 A 
HETATM   13  C   UNL     1      43.515 -10.174  11.800  1.00  0.00     0.043 A 
HETATM   14  C   UNL     1      43.457  -8.786  11.840  1.00  0.00     0.116 A 
HETATM   15  F   UNL     1      43.243  -8.169  13.009  1.00  0.00    -0.206 F 
HETATM   16  C   UNL     1      43.616  -8.033  10.685  1.00  0.00     0.043 A 
HETATM   17  C   UNL     1      43.836  -8.679   9.467  1.00  0.00     0.017 A 
ENDBRANCH   9  11
ENDBRANCH   2   5
BRANCH   1  18
HETATM   18  N   UNL     1      42.444 -13.635   3.426  1.00  0.00    -0.165 NA
HETATM   19  C   UNL     1      42.708 -14.880   3.183  1.00  0.00     0.157 A 
HETATM   20  C   UNL     1      43.238 -15.990   3.991  1.00  0.00     0.027 A 
HETATM   21  C   UNL     1      42.483 -15.466   1.770  1.00  0.00     0.277 A 
HETATM   22  C   UNL     1      43.547 -16.126   5.333  1.00  0.00     0.016 A 
HETATM   23  C   UNL     1      43.371 -17.074   3.118  1.00  0.00     0.048 A 
HETATM   24  C   UNL     1      44.044 -17.360   5.769  1.00  0.00     0.001 A 
HETATM   25  C   UNL     1      44.202 -18.435   4.876  1.00  0.00     0.002 A 
HETATM   26  C   UNL     1      43.853 -18.300   3.531  1.00  0.00     0.030 A 
HETATM   27  N   UNL     1      42.937 -16.761   1.836  1.00  0.00    -0.321 N 
HETATM   28  H   UNL     1      42.907 -17.386   1.045  1.00  0.00     0.169 HD
HETATM   29  O   UNL     1      42.015 -14.892   0.813  1.00  0.00    -0.266 OA
ENDBRANCH   1  18
TORSDOF 3
ENDMDL
MODEL 5
REMARK VINA RESULT:      -8.7      5.282      8.392
REMARK  3 active torsions:
REMARK  status: ('A' for Active; 'I' for Inactive)
REMARK    1  A    between atoms: N_7  and  N_8 
REMARK       I    between atoms: N_8  and  C_9 
REMARK    2  A    between atoms: C_9  and  C_10 
REMARK    3  A    between atoms: C_14  and  C_15 
ROOT
HETATM    1  N   UNL     1      42.673 -15.082   3.446  1.00  0.00    -0.241 N 
HETATM    2  C   UNL     1      41.354 -14.647   3.427  1.00  0.00     0.289 C 
HETATM    3  O   UNL     1      40.625 -14.581   4.412  1.00  0.00    -0.264 OA
HETATM    4  H   UNL     1      43.117 -15.315   2.573  1.00  0.00     0.192 HD
ENDROOT
BRANCH   2   5
HETATM    5  C   UNL     1      40.870 -14.274   2.121  1.00  0.00     0.121 A 
HETATM    6  N   UNL     1      41.485 -14.717   0.983  1.00  0.00    -0.272 N 
HETATM    7  H   UNL     1      42.304 -15.318   0.930  1.00  0.00     0.189 HD
HETATM    8  N   UNL     1      40.921 -14.280  -0.152  1.00  0.00    -0.174 NA
HETATM    9  C   UNL     1      39.861 -13.562   0.249  1.00  0.00     0.089 A 
HETATM   10  C   UNL     1      39.804 -13.520   1.671  1.00  0.00     0.071 A 
BRANCH   9  11
HETATM   11  C   UNL     1      38.942 -12.946  -0.713  1.00  0.00    -0.005 A 
HETATM   12  C   UNL     1      38.464 -11.639  -0.522  1.00  0.00     0.017 A 
HETATM   13  C   UNL     1      37.584 -11.063  -1.444  1.00  0.00     0.043 A 
HETATM   14  C   UNL     1      37.179 -11.792  -2.556  1.00  0.00     0.116 A 
HETATM   15  F   UNL     1      36.336 -11.237  -3.436  1.00  0.00    -0.206 F 
HETATM   16  C   UNL     1      37.636 -13.086  -2.765  1.00  0.00     0.043 A 
HETATM   17  C   UNL     1      38.512 -13.663  -1.843  1.00  0.00     0.017 A 
ENDBRANCH   9  11
ENDBRANCH   2   5
BRANCH   1  18
HETATM   18  N   UNL     1      43.218 -15.542   4.604  1.00  0.00    -0.165 NA
HETATM   19  C   UNL     1      43.505 -16.798   4.741  1.00  0.00     0.157 A 
HETATM   20  C   UNL     1      43.464 -17.962   3.841  1.00  0.00     0.027 A 
HETATM   21  C   UNL     1      43.995 -17.345   6.101  1.00  0.00     0.277 A 
HETATM   22  C   UNL     1      43.200 -18.109   2.490  1.00  0.00     0.016 A 
HETATM   23  C   UNL     1      43.821 -19.067   4.619  1.00  0.00     0.048 A 
HETATM   24  C   UNL     1      43.252 -19.400   1.949  1.00  0.00     0.001 A 
HETATM   25  C   UNL     1      43.584 -20.508   2.749  1.00  0.00     0.002 A 
HETATM   26  C   UNL     1      43.884 -20.346   4.103  1.00  0.00     0.030 A 
HETATM   27  N   UNL     1      44.122 -18.702   5.925  1.00  0.00    -0.321 N 
HETATM   28  H   UNL     1      44.433 -19.317   6.662  1.00  0.00     0.169 HD
HETATM   29  O   UNL     1      44.209 -16.705   7.106  1.00  0.00    -0.266 OA
ENDBRANCH   1  18
TORSDOF 3
ENDMDL
MODEL 6
REMARK VINA RESULT:      -8.5      3.973      4.888
REMARK  3 active torsions:
REMARK  status: ('A' for Active; 'I' for Inactive)
REMARK    1  A    between atoms: N_7  and  N_8 
REMARK       I    between atoms: N_8  and  C_9 
REMARK    2  A    between atoms: C_9  and  C_10 
REMARK    3  A    between atoms: C_14  and  C_15 
ROOT
HETATM    1  N   UNL     1      40.066 -13.337   1.401  1.00  0.00    -0.241 N 
HETATM    2  C   UNL     1      40.385 -14.436   0.613  1.00  0.00     0.289 C 
HETATM    3  O   UNL     1      39.869 -14.692  -0.470  1.00  0.00    -0.264 OA
HETATM    4  H   UNL     1      40.369 -13.327   2.361  1.00  0.00     0.192 HD
ENDROOT
BRANCH   2   5
HETATM    5  C   UNL     1      41.392 -15.300   1.178  1.00  0.00     0.121 A 
HETATM    6  N   UNL     1      42.723 -15.038   1.015  1.00  0.00    -0.272 N 
HETATM    7  H   UNL     1      43.131 -14.257   0.507  1.00  0.00     0.189 HD
HETATM    8  N   UNL     1      43.534 -15.935   1.594  1.00  0.00    -0.174 NA
HETATM    9  C   UNL     1      42.707 -16.795   2.208  1.00  0.00     0.089 A 
HETATM   10  C   UNL     1      41.352 -16.440   1.955  1.00  0.00     0.071 A 
BRANCH   9  11
HETATM   11  C   UNL     1      43.217 -17.914   3.007  1.00  0.00    -0.005 A 
HETATM   12  C   UNL     1      43.348 -19.198   2.453  1.00  0.00     0.017 A 
HETATM   13  C   UNL     1      43.832 -20.258   3.226  1.00  0.00     0.043 A 
HETATM   14  C   UNL     1      44.183 -20.038   4.553  1.00  0.00     0.116 A 
HETATM   15  F   UNL     1      44.645 -21.057   5.290  1.00  0.00    -0.206 F 
HETATM   16  C   UNL     1      44.059 -18.779   5.123  1.00  0.00     0.043 A 
HETATM   17  C   UNL     1      43.574 -17.720   4.353  1.00  0.00     0.017 A 
ENDBRANCH   9  11
ENDBRANCH   2   5
BRANCH   1  18
HETATM   18  N   UNL     1      39.070 -12.493   1.017  1.00  0.00    -0.165 NA
HETATM   19  C   UNL     1      38.744 -11.483   1.759  1.00  0.00     0.157 A 
HETATM   20  C   UNL     1      39.286 -10.907   3.000  1.00  0.00     0.027 A 
HETATM   21  C   UNL     1      37.524 -10.606   1.394  1.00  0.00     0.277 A 
HETATM   22  C   UNL     1      40.407 -11.180   3.764  1.00  0.00     0.016 A 
HETATM   23  C   UNL     1      38.428  -9.859   3.348  1.00  0.00     0.048 A 
HETATM   24  C   UNL     1      40.619 -10.411   4.915  1.00  0.00     0.001 A 
HETATM   25  C   UNL     1      39.733  -9.379   5.271  1.00  0.00     0.002 A 
HETATM   26  C   UNL     1      38.624  -9.086   4.475  1.00  0.00     0.030 A 
HETATM   27  N   UNL     1      37.410  -9.696   2.417  1.00  0.00    -0.321 N 
HETATM   28  H   UNL     1      36.690  -8.989   2.435  1.00  0.00     0.169 HD
HETATM   29  O   UNL     1      36.819 -10.714   0.416  1.00  0.00    -0.266 OA
ENDBRANCH   1  18
TORSDOF 3
ENDMDL
MODEL 7
REMARK VINA RESULT:      -8.3      3.888      6.075
REMARK  3 active torsions:
REMARK  status: ('A' for Active; 'I' for Inactive)
REMARK    1  A    between atoms: N_7  and  N_8 
REMARK       I    between atoms: N_8  and  C_9 
REMARK    2  A    between atoms: C_9  and  C_10 
REMARK    3  A    between atoms: C_14  and  C_15 
ROOT
HETATM    1  N   UNL     1      41.270 -11.925   2.358  1.00  0.00    -0.241 N 
HETATM    2  C   UNL     1      42.505 -12.391   2.789  1.00  0.00     0.289 C 
HETATM    3  O   UNL     1      43.530 -11.717   2.830  1.00  0.00    -0.264 OA
HETATM    4  H   UNL     1      40.549 -12.595   2.147  1.00  0.00     0.192 HD
ENDROOT
BRANCH   2   5
HETATM    5  C   UNL     1      42.512 -13.776   3.188  1.00  0.00     0.121 A 
HETATM    6  N   UNL     1      41.650 -14.244   4.140  1.00  0.00    -0.272 N 
HETATM    7  H   UNL     1      40.953 -13.703   4.646  1.00  0.00     0.189 HD
HETATM    8  N   UNL     1      41.783 -15.551   4.406  1.00  0.00    -0.174 NA
HETATM    9  C   UNL     1      42.733 -15.976   3.560  1.00  0.00     0.089 A 
HETATM   10  C   UNL     1      43.229 -14.886   2.790  1.00  0.00     0.071 A 
BRANCH   9  11
HETATM   11  C   UNL     1      43.139 -17.384   3.504  1.00  0.00    -0.005 A 
HETATM   12  C   UNL     1      42.960 -18.142   2.335  1.00  0.00     0.017 A 
HETATM   13  C   UNL     1      43.347 -19.486   2.295  1.00  0.00     0.043 A 
HETATM   14  C   UNL     1      43.911 -20.074   3.421  1.00  0.00     0.116 A 
HETATM   15  F   UNL     1      44.280 -21.360   3.378  1.00  0.00    -0.206 F 
HETATM   16  C   UNL     1      44.096 -19.345   4.588  1.00  0.00     0.043 A 
HETATM   17  C   UNL     1      43.707 -18.004   4.630  1.00  0.00     0.017 A 
ENDBRANCH   9  11
ENDBRANCH   2   5
BRANCH   1  18
HETATM   18  N   UNL     1      41.153 -10.659   1.875  1.00  0.00    -0.165 NA
HETATM   19  C   UNL     1      41.036 -10.451   0.602  1.00  0.00     0.157 A 
HETATM   20  C   UNL     1      40.900 -11.330  -0.571  1.00  0.00     0.027 A 
HETATM   21  C   UNL     1      41.041  -9.010   0.041  1.00  0.00     0.277 A 
HETATM   22  C   UNL     1      40.745 -12.697  -0.721  1.00  0.00     0.016 A 
HETATM   23  C   UNL     1      40.902 -10.488  -1.688  1.00  0.00     0.048 A 
HETATM   24  C   UNL     1      40.644 -13.206  -2.022  1.00  0.00     0.001 A 
HETATM   25  C   UNL     1      40.677 -12.352  -3.139  1.00  0.00     0.002 A 
HETATM   26  C   UNL     1      40.797 -10.971  -2.977  1.00  0.00     0.030 A 
HETATM   27  N   UNL     1      40.988  -9.150  -1.325  1.00  0.00    -0.321 N 
HETATM   28  H   UNL     1      40.976  -8.359  -1.951  1.00  0.00     0.169 HD
HETATM   29  O   UNL     1      41.093  -7.983   0.679  1.00  0.00    -0.266 OA
ENDBRANCH   1  18
TORSDOF 3
ENDMDL
MODEL 8
REMARK VINA RESULT:      -8.0      2.420      3.542
REMARK  3 active torsions:
REMARK  status: ('A' for Active; 'I' for Inactive)
REMARK    1  A    between atoms: N_7  and  N_8 
REMARK       I    between atoms: N_8  and  C_9 
REMARK    2  A    between atoms: C_9  and  C_10 
REMARK    3  A    between atoms: C_14  and  C_15 
ROOT
HETATM    1  N   UNL     1      41.103 -10.580   7.406  1.00  0.00    -0.241 N 
HETATM    2  C   UNL     1      41.739 -10.694   6.177  1.00  0.00     0.289 C 
HETATM    3  O   UNL     1      41.875  -9.776   5.373  1.00  0.00    -0.264 OA
HETATM    4  H   UNL     1      40.843 -11.422   7.894  1.00  0.00     0.192 HD
ENDROOT
BRANCH   2   5
HETATM    5  C   UNL     1      42.242 -12.013   5.887  1.00  0.00     0.121 A 
HETATM    6  N   UNL     1      42.915 -12.739   6.829  1.00  0.00    -0.272 N 
HETATM    7  H   UNL     1      43.129 -12.449   7.780  1.00  0.00     0.189 HD
HETATM    8  N   UNL     1      43.323 -13.944   6.406  1.00  0.00    -0.174 NA
HETATM    9  C   UNL     1      42.856 -14.041   5.152  1.00  0.00     0.089 A 
HETATM   10  C   UNL     1      42.185 -12.841   4.783  1.00  0.00     0.071 A 
BRANCH   9  11
HETATM   11  C   UNL     1      43.053 -15.253   4.350  1.00  0.00    -0.005 A 
HETATM   12  C   UNL     1      43.016 -15.205   2.946  1.00  0.00     0.017 A 
HETATM   13  C   UNL     1      43.201 -16.367   2.192  1.00  0.00     0.043 A 
HETATM   14  C   UNL     1      43.422 -17.579   2.837  1.00  0.00     0.116 A 
HETATM   15  F   UNL     1      43.598 -18.689   2.110  1.00  0.00    -0.206 F 
HETATM   16  C   UNL     1      43.459 -17.651   4.222  1.00  0.00     0.043 A 
HETATM   17  C   UNL     1      43.272 -16.491   4.977  1.00  0.00     0.017 A 
ENDBRANCH   9  11
ENDBRANCH   2   5
BRANCH   1  18
HETATM   18  N   UNL     1      40.511  -9.407   7.758  1.00  0.00    -0.165 NA
HETATM   19  C   UNL     1      40.913  -8.757   8.804  1.00  0.00     0.157 A 
HETATM   20  C   UNL     1      42.015  -8.941   9.762  1.00  0.00     0.027 A 
HETATM   21  C   UNL     1      40.155  -7.499   9.282  1.00  0.00     0.277 A 
HETATM   22  C   UNL     1      43.082  -9.821   9.826  1.00  0.00     0.016 A 
HETATM   23  C   UNL     1      41.861  -7.940  10.726  1.00  0.00     0.048 A 
HETATM   24  C   UNL     1      43.962  -9.706  10.910  1.00  0.00     0.001 A 
HETATM   25  C   UNL     1      43.779  -8.714  11.890  1.00  0.00     0.002 A 
HETATM   26  C   UNL     1      42.721  -7.808  11.798  1.00  0.00     0.030 A 
HETATM   27  N   UNL     1      40.781  -7.115  10.444  1.00  0.00    -0.321 N 
HETATM   28  H   UNL     1      40.489  -6.308  10.975  1.00  0.00     0.169 HD
HETATM   29  O   UNL     1      39.204  -6.977   8.746  1.00  0.00    -0.266 OA
ENDBRANCH   1  18
TORSDOF 3
ENDMDL
MODEL 9
REMARK VINA RESULT:      -8.0      5.910     10.357
REMARK  3 active torsions:
REMARK  status: ('A' for Active; 'I' for Inactive)
REMARK    1  A    between atoms: N_7  and  N_8 
REMARK       I    between atoms: N_8  and  C_9 
REMARK    2  A    between atoms: C_9  and  C_10 
REMARK    3  A    between atoms: C_14  and  C_15 
ROOT
HETATM    1  N   UNL     1      43.653 -10.281   7.852  1.00  0.00    -0.241 N 
HETATM    2  C   UNL     1      44.512 -10.504   8.921  1.00  0.00     0.289 C 
HETATM    3  O   UNL     1      45.666 -10.910   8.818  1.00  0.00    -0.264 OA
HETATM    4  H   UNL     1      42.670 -10.168   8.039  1.00  0.00     0.192 HD
ENDROOT
BRANCH   2   5
HETATM    5  C   UNL     1      43.936 -10.230  10.214  1.00  0.00     0.121 A 
HETATM    6  N   UNL     1      43.507 -11.240  11.028  1.00  0.00    -0.272 N 
HETATM    7  H   UNL     1      43.538 -12.236  10.827  1.00  0.00     0.189 HD
HETATM    8  N   UNL     1      42.991 -10.825  12.194  1.00  0.00    -0.174 NA
HETATM    9  C   UNL     1      43.132  -9.491  12.173  1.00  0.00     0.089 A 
HETATM   10  C   UNL     1      43.706  -9.076  10.937  1.00  0.00     0.071 A 
BRANCH   9  11
HETATM   11  C   UNL     1      42.726  -8.656  13.308  1.00  0.00    -0.005 A 
HETATM   12  C   UNL     1      43.367  -7.435  13.573  1.00  0.00     0.017 A 
HETATM   13  C   UNL     1      42.974  -6.649  14.662  1.00  0.00     0.043 A 
HETATM   14  C   UNL     1      41.943  -7.083  15.487  1.00  0.00     0.116 A 
HETATM   15  F   UNL     1      41.571  -6.328  16.528  1.00  0.00    -0.206 F 
HETATM   16  C   UNL     1      41.297  -8.288  15.247  1.00  0.00     0.043 A 
HETATM   17  C   UNL     1      41.690  -9.075  14.162  1.00  0.00     0.017 A 
ENDBRANCH   9  11
ENDBRANCH   2   5
BRANCH   1  18
HETATM   18  N   UNL     1      44.052 -10.585   6.588  1.00  0.00    -0.165 NA
HETATM   19  C   UNL     1      43.195 -11.008   5.713  1.00  0.00     0.157 A 
HETATM   20  C   UNL     1      41.734 -11.185   5.715  1.00  0.00     0.027 A 
HETATM   21  C   UNL     1      43.668 -11.482   4.320  1.00  0.00     0.277 A 
HETATM   22  C   UNL     1      40.738 -10.863   6.621  1.00  0.00     0.016 A 
HETATM   23  C   UNL     1      41.413 -11.766   4.484  1.00  0.00     0.048 A 
HETATM   24  C   UNL     1      39.418 -11.186   6.285  1.00  0.00     0.001 A 
HETATM   25  C   UNL     1      39.110 -11.798   5.057  1.00  0.00     0.002 A 
HETATM   26  C   UNL     1      40.117 -12.086   4.133  1.00  0.00     0.030 A 
HETATM   27  N   UNL     1      42.537 -11.939   3.687  1.00  0.00    -0.321 N 
HETATM   28  H   UNL     1      42.554 -12.309   2.748  1.00  0.00     0.169 HD
HETATM   29  O   UNL     1      44.800 -11.462   3.893  1.00  0.00    -0.266 OA
ENDBRANCH   1  18
TORSDOF 3
ENDMDL
MODEL 10
REMARK VINA RESULT:      -7.9      4.465      9.014
REMARK  3 active torsions:
REMARK  status: ('A' for Active; 'I' for Inactive)
REMARK    1  A    between atoms: N_7  and  N_8 
REMARK       I    between atoms: N_8  and  C_9 
REMARK    2  A    between atoms: C_9  and  C_10 
REMARK    3  A    between atoms: C_14  and  C_15 
ROOT
HETATM    1  N   UNL     1      42.331 -11.113   5.363  1.00  0.00    -0.241 N 
HETATM    2  C   UNL     1      43.654 -11.053   5.783  1.00  0.00     0.289 C 
HETATM    3  O   UNL     1      44.626 -11.225   5.055  1.00  0.00    -0.264 OA
HETATM    4  H   UNL     1      41.607 -11.182   6.059  1.00  0.00     0.192 HD
ENDROOT
BRANCH   2   5
HETATM    5  C   UNL     1      43.819 -10.776   7.188  1.00  0.00     0.121 A 
HETATM    6  N   UNL     1      44.962 -11.125   7.850  1.00  0.00    -0.272 N 
HETATM    7  H   UNL     1      45.774 -11.594   7.455  1.00  0.00     0.189 HD
HETATM    8  N   UNL     1      44.963 -10.805   9.152  1.00  0.00    -0.174 NA
HETATM    9  C   UNL     1      43.796 -10.173   9.348  1.00  0.00     0.089 A 
HETATM   10  C   UNL     1      43.041 -10.149   8.141  1.00  0.00     0.071 A 
BRANCH   9  11
HETATM   11  C   UNL     1      43.435  -9.614  10.654  1.00  0.00    -0.005 A 
HETATM   12  C   UNL     1      43.450  -8.227  10.877  1.00  0.00     0.017 A 
HETATM   13  C   UNL     1      43.107  -7.706  12.129  1.00  0.00     0.043 A 
HETATM   14  C   UNL     1      42.749  -8.568  13.159  1.00  0.00     0.116 A 
HETATM   15  F   UNL     1      42.422  -8.065  14.356  1.00  0.00    -0.206 F 
HETATM   16  C   UNL     1      42.730  -9.942  12.963  1.00  0.00     0.043 A 
HETATM   17  C   UNL     1      43.075 -10.464  11.715  1.00  0.00     0.017 A 
ENDBRANCH   9  11
ENDBRANCH   2   5
BRANCH   1  18
HETATM   18  N   UNL     1      42.042 -11.451   4.077  1.00  0.00    -0.165 NA
HETATM   19  C   UNL     1      41.632 -12.646   3.789  1.00  0.00     0.157 A 
HETATM   20  C   UNL     1      41.284 -13.830   4.592  1.00  0.00     0.027 A 
HETATM   21  C   UNL     1      41.436 -13.071   2.316  1.00  0.00     0.277 A 
HETATM   22  C   UNL     1      41.171 -14.056   5.953  1.00  0.00     0.016 A 
HETATM   23  C   UNL     1      40.990 -14.845   3.676  1.00  0.00     0.048 A 
HETATM   24  C   UNL     1      40.808 -15.341   6.375  1.00  0.00     0.001 A 
HETATM   25  C   UNL     1      40.544 -16.363   5.446  1.00  0.00     0.002 A 
HETATM   26  C   UNL     1      40.625 -16.116   4.074  1.00  0.00     0.030 A 
HETATM   27  N   UNL     1      41.086 -14.400   2.364  1.00  0.00    -0.321 N 
HETATM   28  H   UNL     1      40.892 -14.939   1.533  1.00  0.00     0.169 HD
HETATM   29  O   UNL     1      41.575 -12.376   1.335  1.00  0.00    -0.266 OA
ENDBRANCH   1  18
TORSDOF 3
ENDMDL
