MODEL 1
REMARK VINA RESULT:      -8.8      0.000      0.000
REMARK  8 active torsions:
REMARK  status: ('A' for Active; 'I' for Inactive)
REMARK    1  A    between atoms: C_3  and  N_4 
REMARK       I    between atoms: N_4  and  C_5 
REMARK    2  A    between atoms: C_5  and  C_6 
REMARK    3  A    between atoms: C_6  and  N_7 
REMARK    4  A    between atoms: C_10  and  C_11 
REMARK       I    between atoms: C_11  and  N_12 
REMARK    5  A    between atoms: N_12  and  C_13 
REMARK    6  A    between atoms: C_13  and  C_14 
REMARK    7  A    between atoms: C_17  and  O_18 
REMARK    8  A    between atoms: C_23  and  N_24 
ROOT
HETATM    1  N   UNL     1      42.848 -13.549   4.947  1.00  0.00    -0.248 N 
HETATM    2  N   UNL     1      42.766 -14.198   6.128  1.00  0.00     0.007 NA
HETATM    3  N   UNL     1      43.447 -13.490   7.017  1.00  0.00    -0.150 NA
HETATM    4  C   UNL     1      43.962 -12.376   6.383  1.00  0.00     0.186 A 
HETATM    5  C   UNL     1      43.597 -12.406   5.046  1.00  0.00     0.151 A 
ENDROOT
BRANCH   1   6
HETATM    6  C   UNL     1      42.193 -14.110   3.790  1.00  0.00     0.251 C 
BRANCH   6   7
HETATM    7  C   UNL     1      42.055 -15.612   3.909  1.00  0.00     0.241 C 
HETATM    8  N   UNL     1      43.253 -16.269   4.126  1.00  0.00    -0.325 N 
HETATM    9  H   UNL     1      44.041 -15.670   4.366  1.00  0.00     0.169 HD
HETATM   10  O   UNL     1      40.938 -16.123   3.914  1.00  0.00    -0.271 OA
BRANCH   8  11
HETATM   11  C   UNL     1      43.494 -17.655   4.264  1.00  0.00     0.042 A 
HETATM   12  C   UNL     1      43.650 -18.359   5.472  1.00  0.00    -0.035 A 
HETATM   13  C   UNL     1      43.476 -17.766   6.843  1.00  0.00     0.050 C 
HETATM   14  C   UNL     1      43.938 -19.741   5.421  1.00  0.00     0.011 A 
HETATM   15  C   UNL     1      44.009 -20.426   4.209  1.00  0.00     0.024 A 
HETATM   16  C   UNL     1      43.786 -19.736   3.028  1.00  0.00     0.036 A 
HETATM   17  C   UNL     1      43.522 -18.368   3.051  1.00  0.00     0.053 A 
HETATM   18 CL   UNL     1      43.846 -20.570   1.523  1.00  0.00    -0.084 Cl
ENDBRANCH   8  11
ENDBRANCH   6   7
ENDBRANCH   1   6
BRANCH   5  19
HETATM   19  N   UNL     1      43.845 -11.570   4.013  1.00  0.00    -0.382 N 
HETATM   20  H   UNL     1      43.379 -11.749   3.118  1.00  0.00     0.157 HD
HETATM   21  H   UNL     1      44.131 -10.600   4.118  1.00  0.00     0.157 HD
ENDBRANCH   5  19
BRANCH   4  22
HETATM   22  C   UNL     1      44.754 -11.365   7.069  1.00  0.00     0.275 C 
HETATM   23  N   UNL     1      44.385 -11.172   8.382  1.00  0.00    -0.351 N 
HETATM   24  H   UNL     1      43.616 -11.724   8.744  1.00  0.00     0.163 HD
HETATM   25  O   UNL     1      45.655 -10.739   6.518  1.00  0.00    -0.266 OA
BRANCH  23  26
HETATM   26  C   UNL     1      44.952 -10.130   9.203  1.00  0.00     0.161 C 
BRANCH  26  27
HETATM   27  C   UNL     1      44.164  -9.798  10.448  1.00  0.00    -0.040 A 
HETATM   28  C   UNL     1      43.804  -8.498  10.820  1.00  0.00     0.011 A 
HETATM   29  C   UNL     1      43.069  -8.272  11.990  1.00  0.00     0.037 A 
HETATM   30  C   UNL     1      42.675  -9.334  12.806  1.00  0.00     0.068 A 
HETATM   31  C   UNL     1      43.029 -10.631  12.446  1.00  0.00     0.037 A 
HETATM   32  C   UNL     1      43.767 -10.858  11.279  1.00  0.00     0.011 A 
BRANCH  30  33
HETATM   33  O   UNL     1      41.957  -8.974  13.914  1.00  0.00    -0.356 OA
HETATM   34  C   UNL     1      40.974  -7.962  13.739  1.00  0.00     0.210 C 
ENDBRANCH  30  33
ENDBRANCH  26  27
ENDBRANCH  23  26
ENDBRANCH   4  22
TORSDOF 8
ENDMDL
MODEL 2
REMARK VINA RESULT:      -8.5      4.006     10.472
REMARK  8 active torsions:
REMARK  status: ('A' for Active; 'I' for Inactive)
REMARK    1  A    between atoms: C_3  and  N_4 
REMARK       I    between atoms: N_4  and  C_5 
REMARK    2  A    between atoms: C_5  and  C_6 
REMARK    3  A    between atoms: C_6  and  N_7 
REMARK    4  A    between atoms: C_10  and  C_11 
REMARK       I    between atoms: C_11  and  N_12 
REMARK    5  A    between atoms: N_12  and  C_13 
REMARK    6  A    between atoms: C_13  and  C_14 
REMARK    7  A    between atoms: C_17  and  O_18 
REMARK    8  A    between atoms: C_23  and  N_24 
ROOT
HETATM    1  N   UNL     1      44.440 -10.693   7.669  1.00  0.00    -0.248 N 
HETATM    2  N   UNL     1      43.092 -10.615   7.630  1.00  0.00     0.007 NA
HETATM    3  N   UNL     1      42.708 -11.006   6.425  1.00  0.00    -0.150 NA
HETATM    4  C   UNL     1      43.832 -11.340   5.696  1.00  0.00     0.186 A 
HETATM    5  C   UNL     1      44.957 -11.130   6.477  1.00  0.00     0.151 A 
ENDROOT
BRANCH   1   6
HETATM    6  C   UNL     1      45.132 -10.314   8.877  1.00  0.00     0.251 C 
BRANCH   6   7
HETATM    7  C   UNL     1      44.183 -10.228  10.052  1.00  0.00     0.241 C 
HETATM    8  N   UNL     1      43.518  -9.018  10.147  1.00  0.00    -0.325 N 
HETATM    9  H   UNL     1      43.596  -8.414   9.331  1.00  0.00     0.169 HD
HETATM   10  O   UNL     1      43.987 -11.218  10.751  1.00  0.00    -0.271 OA
BRANCH   8  11
HETATM   11  C   UNL     1      42.585  -8.592  11.119  1.00  0.00     0.042 A 
HETATM   12  C   UNL     1      41.183  -8.652  11.015  1.00  0.00    -0.035 A 
HETATM   13  C   UNL     1      40.431  -9.290   9.880  1.00  0.00     0.050 C 
HETATM   14  C   UNL     1      40.400  -8.130  12.067  1.00  0.00     0.011 A 
HETATM   15  C   UNL     1      40.984  -7.617  13.224  1.00  0.00     0.024 A 
HETATM   16  C   UNL     1      42.365  -7.624  13.346  1.00  0.00     0.036 A 
HETATM   17  C   UNL     1      43.159  -8.114  12.311  1.00  0.00     0.053 A 
HETATM   18 CL   UNL     1      43.103  -7.016  14.777  1.00  0.00    -0.084 Cl
ENDBRANCH   8  11
ENDBRANCH   6   7
ENDBRANCH   1   6
BRANCH   5  19
HETATM   19  N   UNL     1      46.278 -11.295   6.240  1.00  0.00    -0.382 N 
HETATM   20  H   UNL     1      46.928 -10.579   6.578  1.00  0.00     0.157 HD
HETATM   21  H   UNL     1      46.727 -12.198   6.103  1.00  0.00     0.157 HD
ENDBRANCH   5  19
BRANCH   4  22
HETATM   22  C   UNL     1      43.776 -11.830   4.326  1.00  0.00     0.275 C 
HETATM   23  N   UNL     1      42.822 -12.803   4.126  1.00  0.00    -0.351 N 
HETATM   24  H   UNL     1      42.265 -13.091   4.924  1.00  0.00     0.163 HD
HETATM   25  O   UNL     1      44.522 -11.419   3.441  1.00  0.00    -0.266 OA
BRANCH  23  26
HETATM   26  C   UNL     1      42.686 -13.515   2.879  1.00  0.00     0.161 C 
BRANCH  26  27
HETATM   27  C   UNL     1      42.966 -14.996   2.956  1.00  0.00    -0.040 A 
HETATM   28  C   UNL     1      43.102 -15.824   1.835  1.00  0.00     0.011 A 
HETATM   29  C   UNL     1      43.364 -17.190   1.989  1.00  0.00     0.037 A 
HETATM   30  C   UNL     1      43.502 -17.757   3.257  1.00  0.00     0.068 A 
HETATM   31  C   UNL     1      43.367 -16.943   4.378  1.00  0.00     0.037 A 
HETATM   32  C   UNL     1      43.101 -15.578   4.227  1.00  0.00     0.011 A 
BRANCH  30  33
HETATM   33  O   UNL     1      43.763 -19.100   3.264  1.00  0.00    -0.356 OA
HETATM   34  C   UNL     1      43.242 -19.859   2.180  1.00  0.00     0.210 C 
ENDBRANCH  30  33
ENDBRANCH  26  27
ENDBRANCH  23  26
ENDBRANCH   4  22
TORSDOF 8
ENDMDL
MODEL 3
REMARK VINA RESULT:      -8.2      3.972      9.630
REMARK  8 active torsions:
REMARK  status: ('A' for Active; 'I' for Inactive)
REMARK    1  A    between atoms: C_3  and  N_4 
REMARK       I    between atoms: N_4  and  C_5 
REMARK    2  A    between atoms: C_5  and  C_6 
REMARK    3  A    between atoms: C_6  and  N_7 
REMARK    4  A    between atoms: C_10  and  C_11 
REMARK       I    between atoms: C_11  and  N_12 
REMARK    5  A    between atoms: N_12  and  C_13 
REMARK    6  A    between atoms: C_13  and  C_14 
REMARK    7  A    between atoms: C_17  and  O_18 
REMARK    8  A    between atoms: C_23  and  N_24 
ROOT
HETATM    1  N   UNL     1      39.832 -10.936   5.983  1.00  0.00    -0.248 N 
HETATM    2  N   UNL     1      39.406 -11.997   6.702  1.00  0.00     0.007 NA
HETATM    3  N   UNL     1      39.612 -13.081   5.968  1.00  0.00    -0.150 NA
HETATM    4  C   UNL     1      40.181 -12.694   4.771  1.00  0.00     0.186 A 
HETATM    5  C   UNL     1      40.317 -11.315   4.758  1.00  0.00     0.151 A 
ENDROOT
BRANCH   1   6
HETATM    6  C   UNL     1      39.718  -9.613   6.547  1.00  0.00     0.251 C 
BRANCH   6   7
HETATM    7  C   UNL     1      41.034  -9.145   7.127  1.00  0.00     0.241 C 
HETATM    8  N   UNL     1      41.649 -10.077   7.944  1.00  0.00    -0.325 N 
HETATM    9  H   UNL     1      41.254 -11.015   7.909  1.00  0.00     0.169 HD
HETATM   10  O   UNL     1      41.508  -8.069   6.773  1.00  0.00    -0.271 OA
BRANCH   8  11
HETATM   11  C   UNL     1      42.864  -9.968   8.657  1.00  0.00     0.042 A 
HETATM   12  C   UNL     1      44.132 -10.395   8.219  1.00  0.00    -0.035 A 
HETATM   13  C   UNL     1      44.428 -10.948   6.852  1.00  0.00     0.050 C 
HETATM   14  C   UNL     1      45.236 -10.254   9.088  1.00  0.00     0.011 A 
HETATM   15  C   UNL     1      45.106  -9.649  10.337  1.00  0.00     0.024 A 
HETATM   16  C   UNL     1      43.866  -9.170  10.732  1.00  0.00     0.036 A 
HETATM   17  C   UNL     1      42.758  -9.318   9.900  1.00  0.00     0.053 A 
HETATM   18 CL   UNL     1      43.692  -8.400  12.261  1.00  0.00    -0.084 Cl
ENDBRANCH   8  11
ENDBRANCH   6   7
ENDBRANCH   1   6
BRANCH   5  19
HETATM   19  N   UNL     1      40.803 -10.453   3.837  1.00  0.00    -0.382 N 
HETATM   20  H   UNL     1      41.676  -9.958   4.045  1.00  0.00     0.157 HD
HETATM   21  H   UNL     1      40.618 -10.518   2.839  1.00  0.00     0.157 HD
ENDBRANCH   5  19
BRANCH   4  22
HETATM   22  C   UNL     1      40.558 -13.637   3.728  1.00  0.00     0.275 C 
HETATM   23  N   UNL     1      41.903 -13.939   3.716  1.00  0.00    -0.351 N 
HETATM   24  H   UNL     1      42.495 -13.487   4.404  1.00  0.00     0.163 HD
HETATM   25  O   UNL     1      39.751 -14.105   2.930  1.00  0.00    -0.266 OA
BRANCH  23  26
HETATM   26  C   UNL     1      42.508 -14.748   2.687  1.00  0.00     0.161 C 
BRANCH  26  27
HETATM   27  C   UNL     1      43.009 -16.096   3.147  1.00  0.00    -0.040 A 
HETATM   28  C   UNL     1      43.087 -17.223   2.321  1.00  0.00     0.011 A 
HETATM   29  C   UNL     1      43.567 -18.439   2.823  1.00  0.00     0.037 A 
HETATM   30  C   UNL     1      43.983 -18.554   4.150  1.00  0.00     0.068 A 
HETATM   31  C   UNL     1      43.909 -17.439   4.981  1.00  0.00     0.037 A 
HETATM   32  C   UNL     1      43.426 -16.224   4.483  1.00  0.00     0.011 A 
BRANCH  30  33
HETATM   33  O   UNL     1      44.436 -19.795   4.507  1.00  0.00    -0.356 OA
HETATM   34  C   UNL     1      43.909 -20.901   3.785  1.00  0.00     0.210 C 
ENDBRANCH  30  33
ENDBRANCH  26  27
ENDBRANCH  23  26
ENDBRANCH   4  22
TORSDOF 8
ENDMDL
MODEL 4
REMARK VINA RESULT:      -8.1      4.638      8.551
REMARK  8 active torsions:
REMARK  status: ('A' for Active; 'I' for Inactive)
REMARK    1  A    between atoms: C_3  and  N_4 
REMARK       I    between atoms: N_4  and  C_5 
REMARK    2  A    between atoms: C_5  and  C_6 
REMARK    3  A    between atoms: C_6  and  N_7 
REMARK    4  A    between atoms: C_10  and  C_11 
REMARK       I    between atoms: C_11  and  N_12 
REMARK    5  A    between atoms: N_12  and  C_13 
REMARK    6  A    between atoms: C_13  and  C_14 
REMARK    7  A    between atoms: C_17  and  O_18 
REMARK    8  A    between atoms: C_23  and  N_24 
ROOT
HETATM    1  N   UNL     1      42.366 -13.745   5.956  1.00  0.00    -0.248 N 
HETATM    2  N   UNL     1      41.104 -14.196   6.130  1.00  0.00     0.007 NA
HETATM    3  N   UNL     1      40.323 -13.512   5.307  1.00  0.00    -0.150 NA
HETATM    4  C   UNL     1      41.107 -12.620   4.603  1.00  0.00     0.186 A 
HETATM    5  C   UNL     1      42.423 -12.747   5.019  1.00  0.00     0.151 A 
ENDROOT
BRANCH   1   6
HETATM    6  C   UNL     1      43.432 -14.320   6.741  1.00  0.00     0.251 C 
BRANCH   6   7
HETATM    7  C   UNL     1      43.965 -15.584   6.105  1.00  0.00     0.241 C 
HETATM    8  N   UNL     1      43.192 -16.052   5.056  1.00  0.00    -0.325 N 
HETATM    9  H   UNL     1      42.481 -15.407   4.718  1.00  0.00     0.169 HD
HETATM   10  O   UNL     1      45.049 -16.037   6.463  1.00  0.00    -0.271 OA
BRANCH   8  11
HETATM   11  C   UNL     1      43.381 -17.204   4.259  1.00  0.00     0.042 A 
HETATM   12  C   UNL     1      43.240 -17.285   2.862  1.00  0.00    -0.035 A 
HETATM   13  C   UNL     1      42.966 -16.117   1.955  1.00  0.00     0.050 C 
HETATM   14  C   UNL     1      43.417 -18.536   2.231  1.00  0.00     0.011 A 
HETATM   15  C   UNL     1      43.787 -19.669   2.954  1.00  0.00     0.024 A 
HETATM   16  C   UNL     1      43.991 -19.563   4.322  1.00  0.00     0.036 A 
HETATM   17  C   UNL     1      43.800 -18.345   4.968  1.00  0.00     0.053 A 
HETATM   18 CL   UNL     1      44.471 -20.947   5.226  1.00  0.00    -0.084 Cl
ENDBRANCH   8  11
ENDBRANCH   6   7
ENDBRANCH   1   6
BRANCH   5  19
HETATM   19  N   UNL     1      43.561 -12.115   4.654  1.00  0.00    -0.382 N 
HETATM   20  H   UNL     1      44.255 -11.903   5.378  1.00  0.00     0.157 HD
HETATM   21  H   UNL     1      43.968 -12.161   3.723  1.00  0.00     0.157 HD
ENDBRANCH   5  19
BRANCH   4  22
HETATM   22  C   UNL     1      40.574 -11.716   3.594  1.00  0.00     0.275 C 
HETATM   23  N   UNL     1      39.497 -12.231   2.905  1.00  0.00    -0.351 N 
HETATM   24  H   UNL     1      39.184 -13.165   3.145  1.00  0.00     0.163 HD
HETATM   25  O   UNL     1      41.052 -10.607   3.375  1.00  0.00    -0.266 OA
BRANCH  23  26
HETATM   26  C   UNL     1      38.901 -11.556   1.779  1.00  0.00     0.161 C 
BRANCH  26  27
HETATM   27  C   UNL     1      39.021 -12.284   0.461  1.00  0.00    -0.040 A 
HETATM   28  C   UNL     1      39.850 -13.392   0.255  1.00  0.00     0.011 A 
HETATM   29  C   UNL     1      39.903 -14.015  -0.998  1.00  0.00     0.037 A 
HETATM   30  C   UNL     1      39.130 -13.553  -2.063  1.00  0.00     0.068 A 
HETATM   31  C   UNL     1      38.302 -12.450  -1.869  1.00  0.00     0.037 A 
HETATM   32  C   UNL     1      38.250 -11.823  -0.619  1.00  0.00     0.011 A 
BRANCH  30  33
HETATM   33  O   UNL     1      39.272 -14.256  -3.228  1.00  0.00    -0.356 OA
HETATM   34  C   UNL     1      38.095 -14.838  -3.773  1.00  0.00     0.210 C 
ENDBRANCH  30  33
ENDBRANCH  26  27
ENDBRANCH  23  26
ENDBRANCH   4  22
TORSDOF 8
ENDMDL
MODEL 5
REMARK VINA RESULT:      -7.9      3.934     10.231
REMARK  8 active torsions:
REMARK  status: ('A' for Active; 'I' for Inactive)
REMARK    1  A    between atoms: C_3  and  N_4 
REMARK       I    between atoms: N_4  and  C_5 
REMARK    2  A    between atoms: C_5  and  C_6 
REMARK    3  A    between atoms: C_6  and  N_7 
REMARK    4  A    between atoms: C_10  and  C_11 
REMARK       I    between atoms: C_11  and  N_12 
REMARK    5  A    between atoms: N_12  and  C_13 
REMARK    6  A    between atoms: C_13  and  C_14 
REMARK    7  A    between atoms: C_17  and  O_18 
REMARK    8  A    between atoms: C_23  and  N_24 
ROOT
HETATM    1  N   UNL     1      43.853 -10.600   7.460  1.00  0.00    -0.248 N 
HETATM    2  N   UNL     1      44.368 -11.679   8.088  1.00  0.00     0.007 NA
HETATM    3  N   UNL     1      43.862 -12.755   7.505  1.00  0.00    -0.150 NA
HETATM    4  C   UNL     1      43.018 -12.345   6.492  1.00  0.00     0.186 A 
HETATM    5  C   UNL     1      42.990 -10.960   6.458  1.00  0.00     0.151 A 
ENDROOT
BRANCH   1   6
HETATM    6  C   UNL     1      44.236  -9.280   7.902  1.00  0.00     0.251 C 
BRANCH   6   7
HETATM    7  C   UNL     1      43.204  -8.692   8.838  1.00  0.00     0.241 C 
HETATM    8  N   UNL     1      42.650  -9.612   9.711  1.00  0.00    -0.325 N 
HETATM    9  H   UNL     1      43.125 -10.512   9.752  1.00  0.00     0.169 HD
HETATM   10  O   UNL     1      43.007  -7.480   8.844  1.00  0.00    -0.271 OA
BRANCH   8  11
HETATM   11  C   UNL     1      41.655  -9.415  10.695  1.00  0.00     0.042 A 
HETATM   12  C   UNL     1      40.265  -9.368  10.480  1.00  0.00    -0.035 A 
HETATM   13  C   UNL     1      39.588  -9.633   9.163  1.00  0.00     0.050 C 
HETATM   14  C   UNL     1      39.416  -9.109  11.578  1.00  0.00     0.011 A 
HETATM   15  C   UNL     1      39.919  -8.962  12.869  1.00  0.00     0.024 A 
HETATM   16  C   UNL     1      41.285  -9.077  13.080  1.00  0.00     0.036 A 
HETATM   17  C   UNL     1      42.144  -9.310  12.010  1.00  0.00     0.053 A 
HETATM   18 CL   UNL     1      41.922  -8.921  14.671  1.00  0.00    -0.084 Cl
ENDBRANCH   8  11
ENDBRANCH   6   7
ENDBRANCH   1   6
BRANCH   5  19
HETATM   19  N   UNL     1      42.331 -10.078   5.673  1.00  0.00    -0.382 N 
HETATM   20  H   UNL     1      41.942  -9.235   6.106  1.00  0.00     0.157 HD
HETATM   21  H   UNL     1      42.496  -9.966   4.675  1.00  0.00     0.157 HD
ENDBRANCH   5  19
BRANCH   4  22
HETATM   22  C   UNL     1      42.301 -13.272   5.628  1.00  0.00     0.275 C 
HETATM   23  N   UNL     1      43.096 -13.859   4.667  1.00  0.00    -0.351 N 
HETATM   24  H   UNL     1      44.075 -13.597   4.638  1.00  0.00     0.163 HD
HETATM   25  O   UNL     1      41.099 -13.497   5.744  1.00  0.00    -0.266 OA
BRANCH  23  26
HETATM   26  C   UNL     1      42.563 -14.707   3.630  1.00  0.00     0.161 C 
BRANCH  26  27
HETATM   27  C   UNL     1      43.019 -16.145   3.683  1.00  0.00    -0.040 A 
HETATM   28  C   UNL     1      43.647 -16.724   4.792  1.00  0.00     0.011 A 
HETATM   29  C   UNL     1      44.039 -18.067   4.765  1.00  0.00     0.037 A 
HETATM   30  C   UNL     1      43.809 -18.860   3.639  1.00  0.00     0.068 A 
HETATM   31  C   UNL     1      43.186 -18.294   2.530  1.00  0.00     0.037 A 
HETATM   32  C   UNL     1      42.797 -16.950   2.554  1.00  0.00     0.011 A 
BRANCH  30  33
HETATM   33  O   UNL     1      44.236 -20.155   3.748  1.00  0.00    -0.356 OA
HETATM   34  C   UNL     1      44.075 -20.778   5.017  1.00  0.00     0.210 C 
ENDBRANCH  30  33
ENDBRANCH  26  27
ENDBRANCH  23  26
ENDBRANCH   4  22
TORSDOF 8
ENDMDL
MODEL 6
REMARK VINA RESULT:      -7.9      3.392     10.145
REMARK  8 active torsions:
REMARK  status: ('A' for Active; 'I' for Inactive)
REMARK    1  A    between atoms: C_3  and  N_4 
REMARK       I    between atoms: N_4  and  C_5 
REMARK    2  A    between atoms: C_5  and  C_6 
REMARK    3  A    between atoms: C_6  and  N_7 
REMARK    4  A    between atoms: C_10  and  C_11 
REMARK       I    between atoms: C_11  and  N_12 
REMARK    5  A    between atoms: N_12  and  C_13 
REMARK    6  A    between atoms: C_13  and  C_14 
REMARK    7  A    between atoms: C_17  and  O_18 
REMARK    8  A    between atoms: C_23  and  N_24 
ROOT
HETATM    1  N   UNL     1      44.793 -10.248   8.100  1.00  0.00    -0.248 N 
HETATM    2  N   UNL     1      45.763 -11.147   7.824  1.00  0.00     0.007 NA
HETATM    3  N   UNL     1      45.331 -11.900   6.823  1.00  0.00    -0.150 NA
HETATM    4  C   UNL     1      44.072 -11.464   6.462  1.00  0.00     0.186 A 
HETATM    5  C   UNL     1      43.705 -10.409   7.284  1.00  0.00     0.151 A 
ENDROOT
BRANCH   1   6
HETATM    6  C   UNL     1      45.000  -9.296   9.165  1.00  0.00     0.251 C 
BRANCH   6   7
HETATM    7  C   UNL     1      44.316  -9.738  10.439  1.00  0.00     0.241 C 
HETATM    8  N   UNL     1      43.287  -8.904  10.842  1.00  0.00    -0.325 N 
HETATM    9  H   UNL     1      42.990  -8.217  10.152  1.00  0.00     0.169 HD
HETATM   10  O   UNL     1      44.623 -10.809  10.957  1.00  0.00    -0.271 OA
BRANCH   8  11
HETATM   11  C   UNL     1      42.458  -9.003  11.981  1.00  0.00     0.042 A 
HETATM   12  C   UNL     1      42.627  -8.319  13.200  1.00  0.00    -0.035 A 
HETATM   13  C   UNL     1      43.671  -7.269  13.459  1.00  0.00     0.050 C 
HETATM   14  C   UNL     1      41.728  -8.580  14.257  1.00  0.00     0.011 A 
HETATM   15  C   UNL     1      40.649  -9.448  14.097  1.00  0.00     0.024 A 
HETATM   16  C   UNL     1      40.452 -10.065  12.872  1.00  0.00     0.036 A 
HETATM   17  C   UNL     1      41.339  -9.841  11.821  1.00  0.00     0.053 A 
HETATM   18 CL   UNL     1      39.112 -11.123  12.650  1.00  0.00    -0.084 Cl
ENDBRANCH   8  11
ENDBRANCH   6   7
ENDBRANCH   1   6
BRANCH   5  19
HETATM   19  N   UNL     1      42.590  -9.646   7.348  1.00  0.00    -0.382 N 
HETATM   20  H   UNL     1      42.681  -8.637   7.200  1.00  0.00     0.157 HD
HETATM   21  H   UNL     1      41.651  -9.988   7.154  1.00  0.00     0.157 HD
ENDBRANCH   5  19
BRANCH   4  22
HETATM   22  C   UNL     1      43.304 -12.059   5.378  1.00  0.00     0.275 C 
HETATM   23  N   UNL     1      42.420 -13.030   5.795  1.00  0.00    -0.351 N 
HETATM   24  H   UNL     1      42.388 -13.247   6.785  1.00  0.00     0.163 HD
HETATM   25  O   UNL     1      43.445 -11.729   4.203  1.00  0.00    -0.266 OA
BRANCH  23  26
HETATM   26  C   UNL     1      41.657 -13.834   4.873  1.00  0.00     0.161 C 
BRANCH  26  27
HETATM   27  C   UNL     1      42.335 -15.106   4.424  1.00  0.00    -0.040 A 
HETATM   28  C   UNL     1      42.546 -15.447   3.082  1.00  0.00     0.011 A 
HETATM   29  C   UNL     1      43.186 -16.645   2.746  1.00  0.00     0.037 A 
HETATM   30  C   UNL     1      43.632 -17.524   3.735  1.00  0.00     0.068 A 
HETATM   31  C   UNL     1      43.425 -17.196   5.072  1.00  0.00     0.037 A 
HETATM   32  C   UNL     1      42.783 -16.000   5.411  1.00  0.00     0.011 A 
BRANCH  30  33
HETATM   33  O   UNL     1      44.245 -18.654   3.270  1.00  0.00    -0.356 OA
HETATM   34  C   UNL     1      43.486 -19.481   2.396  1.00  0.00     0.210 C 
ENDBRANCH  30  33
ENDBRANCH  26  27
ENDBRANCH  23  26
ENDBRANCH   4  22
TORSDOF 8
ENDMDL
MODEL 7
REMARK VINA RESULT:      -7.7      5.968      9.981
REMARK  8 active torsions:
REMARK  status: ('A' for Active; 'I' for Inactive)
REMARK    1  A    between atoms: C_3  and  N_4 
REMARK       I    between atoms: N_4  and  C_5 
REMARK    2  A    between atoms: C_5  and  C_6 
REMARK    3  A    between atoms: C_6  and  N_7 
REMARK    4  A    between atoms: C_10  and  C_11 
REMARK       I    between atoms: C_11  and  N_12 
REMARK    5  A    between atoms: N_12  and  C_13 
REMARK    6  A    between atoms: C_13  and  C_14 
REMARK    7  A    between atoms: C_17  and  O_18 
REMARK    8  A    between atoms: C_23  and  N_24 
ROOT
HETATM    1  N   UNL     1      41.058 -13.774   2.770  1.00  0.00    -0.248 N 
HETATM    2  N   UNL     1      39.975 -13.010   3.032  1.00  0.00     0.007 NA
HETATM    3  N   UNL     1      39.338 -12.822   1.886  1.00  0.00    -0.150 NA
HETATM    4  C   UNL     1      40.029 -13.481   0.889  1.00  0.00     0.186 A 
HETATM    5  C   UNL     1      41.147 -14.088   1.439  1.00  0.00     0.151 A 
ENDROOT
BRANCH   1   6
HETATM    6  C   UNL     1      41.944 -14.132   3.851  1.00  0.00     0.251 C 
BRANCH   6   7
HETATM    7  C   UNL     1      41.887 -15.614   4.144  1.00  0.00     0.241 C 
HETATM    8  N   UNL     1      43.111 -16.252   4.050  1.00  0.00    -0.325 N 
HETATM    9  H   UNL     1      43.919 -15.635   3.986  1.00  0.00     0.169 HD
HETATM   10  O   UNL     1      40.836 -16.119   4.531  1.00  0.00    -0.271 OA
BRANCH   8  11
HETATM   11  C   UNL     1      43.417 -17.619   4.236  1.00  0.00     0.042 A 
HETATM   12  C   UNL     1      43.620 -18.269   5.467  1.00  0.00    -0.035 A 
HETATM   13  C   UNL     1      43.434 -17.633   6.817  1.00  0.00     0.050 C 
HETATM   14  C   UNL     1      43.971 -19.637   5.464  1.00  0.00     0.011 A 
HETATM   15  C   UNL     1      44.060 -20.363   4.278  1.00  0.00     0.024 A 
HETATM   16  C   UNL     1      43.792 -19.729   3.074  1.00  0.00     0.036 A 
HETATM   17  C   UNL     1      43.465 -18.375   3.051  1.00  0.00     0.053 A 
HETATM   18 CL   UNL     1      43.874 -20.616   1.602  1.00  0.00    -0.084 Cl
ENDBRANCH   8  11
ENDBRANCH   6   7
ENDBRANCH   1   6
BRANCH   5  19
HETATM   19  N   UNL     1      42.136 -14.838   0.902  1.00  0.00    -0.382 N 
HETATM   20  H   UNL     1      43.059 -14.411   0.779  1.00  0.00     0.157 HD
HETATM   21  H   UNL     1      42.177 -15.853   0.954  1.00  0.00     0.157 HD
ENDBRANCH   5  19
BRANCH   4  22
HETATM   22  C   UNL     1      39.597 -13.499  -0.501  1.00  0.00     0.275 C 
HETATM   23  N   UNL     1      38.369 -12.909  -0.706  1.00  0.00    -0.351 N 
HETATM   24  H   UNL     1      37.883 -12.534   0.101  1.00  0.00     0.163 HD
HETATM   25  O   UNL     1      40.265 -14.006  -1.399  1.00  0.00    -0.266 OA
BRANCH  23  26
HETATM   26  C   UNL     1      37.698 -12.934  -1.982  1.00  0.00     0.161 C 
BRANCH  26  27
HETATM   27  C   UNL     1      37.628 -11.604  -2.693  1.00  0.00    -0.040 A 
HETATM   28  C   UNL     1      36.434 -10.924  -2.960  1.00  0.00     0.011 A 
HETATM   29  C   UNL     1      36.452  -9.691  -3.623  1.00  0.00     0.037 A 
HETATM   30  C   UNL     1      37.656  -9.109  -4.024  1.00  0.00     0.068 A 
HETATM   31  C   UNL     1      38.849  -9.777  -3.765  1.00  0.00     0.037 A 
HETATM   32  C   UNL     1      38.833 -11.012  -3.107  1.00  0.00     0.011 A 
BRANCH  30  33
HETATM   33  O   UNL     1      37.531  -7.901  -4.655  1.00  0.00    -0.356 OA
HETATM   34  C   UNL     1      38.493  -7.599  -5.657  1.00  0.00     0.210 C 
ENDBRANCH  30  33
ENDBRANCH  26  27
ENDBRANCH  23  26
ENDBRANCH   4  22
TORSDOF 8
ENDMDL
MODEL 8
REMARK VINA RESULT:      -7.7      5.793      9.046
REMARK  8 active torsions:
REMARK  status: ('A' for Active; 'I' for Inactive)
REMARK    1  A    between atoms: C_3  and  N_4 
REMARK       I    between atoms: N_4  and  C_5 
REMARK    2  A    between atoms: C_5  and  C_6 
REMARK    3  A    between atoms: C_6  and  N_7 
REMARK    4  A    between atoms: C_10  and  C_11 
REMARK       I    between atoms: C_11  and  N_12 
REMARK    5  A    between atoms: N_12  and  C_13 
REMARK    6  A    between atoms: C_13  and  C_14 
REMARK    7  A    between atoms: C_17  and  O_18 
REMARK    8  A    between atoms: C_23  and  N_24 
ROOT
HETATM    1  N   UNL     1      41.067 -13.948   3.113  1.00  0.00    -0.248 N 
HETATM    2  N   UNL     1      42.272 -13.898   2.506  1.00  0.00     0.007 NA
HETATM    3  N   UNL     1      42.065 -13.565   1.240  1.00  0.00    -0.150 NA
HETATM    4  C   UNL     1      40.707 -13.398   1.051  1.00  0.00     0.186 A 
HETATM    5  C   UNL     1      40.049 -13.655   2.243  1.00  0.00     0.151 A 
ENDROOT
BRANCH   1   6
HETATM    6  C   UNL     1      40.998 -14.297   4.511  1.00  0.00     0.251 C 
BRANCH   6   7
HETATM    7  C   UNL     1      41.236 -15.776   4.722  1.00  0.00     0.241 C 
HETATM    8  N   UNL     1      42.507 -16.195   4.365  1.00  0.00    -0.325 N 
HETATM    9  H   UNL     1      43.177 -15.449   4.190  1.00  0.00     0.169 HD
HETATM   10  O   UNL     1      40.375 -16.461   5.267  1.00  0.00    -0.271 OA
BRANCH   8  11
HETATM   11  C   UNL     1      43.058 -17.495   4.411  1.00  0.00     0.042 A 
HETATM   12  C   UNL     1      43.524 -18.165   5.558  1.00  0.00    -0.035 A 
HETATM   13  C   UNL     1      43.411 -17.644   6.964  1.00  0.00     0.050 C 
HETATM   14  C   UNL     1      44.095 -19.448   5.411  1.00  0.00     0.011 A 
HETATM   15  C   UNL     1      44.150 -20.083   4.171  1.00  0.00     0.024 A 
HETATM   16  C   UNL     1      43.626 -19.442   3.059  1.00  0.00     0.036 A 
HETATM   17  C   UNL     1      43.078 -18.167   3.176  1.00  0.00     0.053 A 
HETATM   18 CL   UNL     1      43.664 -20.220   1.525  1.00  0.00    -0.084 Cl
ENDBRANCH   8  11
ENDBRANCH   6   7
ENDBRANCH   1   6
BRANCH   5  19
HETATM   19  N   UNL     1      38.741 -13.637   2.587  1.00  0.00    -0.382 N 
HETATM   20  H   UNL     1      38.141 -12.912   2.184  1.00  0.00     0.157 HD
HETATM   21  H   UNL     1      38.218 -14.456   2.889  1.00  0.00     0.157 HD
ENDBRANCH   5  19
BRANCH   4  22
HETATM   22  C   UNL     1      40.123 -13.011  -0.225  1.00  0.00     0.275 C 
HETATM   23  N   UNL     1      41.054 -12.814  -1.222  1.00  0.00    -0.351 N 
HETATM   24  H   UNL     1      42.032 -12.942  -0.988  1.00  0.00     0.163 HD
HETATM   25  O   UNL     1      38.915 -12.865  -0.387  1.00  0.00    -0.266 OA
BRANCH  23  26
HETATM   26  C   UNL     1      40.702 -12.303  -2.523  1.00  0.00     0.161 C 
BRANCH  26  27
HETATM   27  C   UNL     1      40.574 -10.801  -2.606  1.00  0.00    -0.040 A 
HETATM   28  C   UNL     1      41.414  -9.907  -1.930  1.00  0.00     0.011 A 
HETATM   29  C   UNL     1      41.232  -8.526  -2.061  1.00  0.00     0.037 A 
HETATM   30  C   UNL     1      40.219  -8.008  -2.870  1.00  0.00     0.068 A 
HETATM   31  C   UNL     1      39.378  -8.887  -3.546  1.00  0.00     0.037 A 
HETATM   32  C   UNL     1      39.555 -10.268  -3.413  1.00  0.00     0.011 A 
BRANCH  30  33
HETATM   33  O   UNL     1      40.158  -6.641  -2.914  1.00  0.00    -0.356 OA
HETATM   34  C   UNL     1      40.910  -5.935  -1.936  1.00  0.00     0.210 C 
ENDBRANCH  30  33
ENDBRANCH  26  27
ENDBRANCH  23  26
ENDBRANCH   4  22
TORSDOF 8
ENDMDL
MODEL 9
REMARK VINA RESULT:      -7.5      2.343      2.725
REMARK  8 active torsions:
REMARK  status: ('A' for Active; 'I' for Inactive)
REMARK    1  A    between atoms: C_3  and  N_4 
REMARK       I    between atoms: N_4  and  C_5 
REMARK    2  A    between atoms: C_5  and  C_6 
REMARK    3  A    between atoms: C_6  and  N_7 
REMARK    4  A    between atoms: C_10  and  C_11 
REMARK       I    between atoms: C_11  and  N_12 
REMARK    5  A    between atoms: N_12  and  C_13 
REMARK    6  A    between atoms: C_13  and  C_14 
REMARK    7  A    between atoms: C_17  and  O_18 
REMARK    8  A    between atoms: C_23  and  N_24 
ROOT
HETATM    1  N   UNL     1      42.272 -12.422   2.746  1.00  0.00    -0.248 N 
HETATM    2  N   UNL     1      43.528 -12.257   3.216  1.00  0.00     0.007 NA
HETATM    3  N   UNL     1      43.525 -11.175   3.981  1.00  0.00    -0.150 NA
HETATM    4  C   UNL     1      42.246 -10.655   3.995  1.00  0.00     0.186 A 
HETATM    5  C   UNL     1      41.430 -11.438   3.193  1.00  0.00     0.151 A 
ENDROOT
BRANCH   1   6
HETATM    6  C   UNL     1      41.990 -13.534   1.872  1.00  0.00     0.251 C 
BRANCH   6   7
HETATM    7  C   UNL     1      41.938 -14.838   2.637  1.00  0.00     0.241 C 
HETATM    8  N   UNL     1      43.151 -15.502   2.694  1.00  0.00    -0.325 N 
HETATM    9  H   UNL     1      43.958 -14.961   2.390  1.00  0.00     0.169 HD
HETATM   10  O   UNL     1      40.908 -15.161   3.222  1.00  0.00    -0.271 OA
BRANCH   8  11
HETATM   11  C   UNL     1      43.457 -16.740   3.302  1.00  0.00     0.042 A 
HETATM   12  C   UNL     1      43.751 -16.953   4.662  1.00  0.00    -0.035 A 
HETATM   13  C   UNL     1      43.680 -15.900   5.733  1.00  0.00     0.050 C 
HETATM   14  C   UNL     1      44.087 -18.257   5.089  1.00  0.00     0.011 A 
HETATM   15  C   UNL     1      44.073 -19.337   4.209  1.00  0.00     0.024 A 
HETATM   16  C   UNL     1      43.717 -19.128   2.886  1.00  0.00     0.036 A 
HETATM   17  C   UNL     1      43.403 -17.848   2.437  1.00  0.00     0.053 A 
HETATM   18 CL   UNL     1      43.672 -20.455   1.790  1.00  0.00    -0.084 Cl
ENDBRANCH   8  11
ENDBRANCH   6   7
ENDBRANCH   1   6
BRANCH   5  19
HETATM   19  N   UNL     1      40.119 -11.359   2.872  1.00  0.00    -0.382 N 
HETATM   20  H   UNL     1      39.429 -11.689   3.554  1.00  0.00     0.157 HD
HETATM   21  H   UNL     1      39.730 -10.686   2.215  1.00  0.00     0.157 HD
ENDBRANCH   5  19
BRANCH   4  22
HETATM   22  C   UNL     1      41.878  -9.469   4.754  1.00  0.00     0.275 C 
HETATM   23  N   UNL     1      42.248  -9.524   6.080  1.00  0.00    -0.351 N 
HETATM   24  H   UNL     1      42.720 -10.361   6.405  1.00  0.00     0.163 HD
HETATM   25  O   UNL     1      41.282  -8.518   4.255  1.00  0.00    -0.266 OA
BRANCH  23  26
HETATM   26  C   UNL     1      41.866  -8.515   7.036  1.00  0.00     0.161 C 
BRANCH  26  27
HETATM   27  C   UNL     1      41.888  -8.960   8.479  1.00  0.00    -0.040 A 
HETATM   28  C   UNL     1      40.760  -8.976   9.308  1.00  0.00     0.011 A 
HETATM   29  C   UNL     1      40.862  -9.406  10.636  1.00  0.00     0.037 A 
HETATM   30  C   UNL     1      42.082  -9.835  11.161  1.00  0.00     0.068 A 
HETATM   31  C   UNL     1      43.210  -9.822  10.345  1.00  0.00     0.037 A 
HETATM   32  C   UNL     1      43.112  -9.388   9.019  1.00  0.00     0.011 A 
BRANCH  30  33
HETATM   33  O   UNL     1      42.039 -10.235  12.469  1.00  0.00    -0.356 OA
HETATM   34  C   UNL     1      42.347  -9.252  13.449  1.00  0.00     0.210 C 
ENDBRANCH  30  33
ENDBRANCH  26  27
ENDBRANCH  23  26
ENDBRANCH   4  22
TORSDOF 8
ENDMDL
MODEL 10
REMARK VINA RESULT:      -7.5      3.923     10.907
REMARK  8 active torsions:
REMARK  status: ('A' for Active; 'I' for Inactive)
REMARK    1  A    between atoms: C_3  and  N_4 
REMARK       I    between atoms: N_4  and  C_5 
REMARK    2  A    between atoms: C_5  and  C_6 
REMARK    3  A    between atoms: C_6  and  N_7 
REMARK    4  A    between atoms: C_10  and  C_11 
REMARK       I    between atoms: C_11  and  N_12 
REMARK    5  A    between atoms: N_12  and  C_13 
REMARK    6  A    between atoms: C_13  and  C_14 
REMARK    7  A    between atoms: C_17  and  O_18 
REMARK    8  A    between atoms: C_23  and  N_24 
ROOT
HETATM    1  N   UNL     1      43.741 -10.495   7.610  1.00  0.00    -0.248 N 
HETATM    2  N   UNL     1      44.382 -11.556   8.147  1.00  0.00     0.007 NA
HETATM    3  N   UNL     1      43.949 -12.639   7.518  1.00  0.00    -0.150 NA
HETATM    4  C   UNL     1      43.025 -12.251   6.568  1.00  0.00     0.186 A 
HETATM    5  C   UNL     1      42.869 -10.875   6.624  1.00  0.00     0.151 A 
ENDROOT
BRANCH   1   6
HETATM    6  C   UNL     1      44.021  -9.174   8.119  1.00  0.00     0.251 C 
BRANCH   6   7
HETATM    7  C   UNL     1      43.031  -8.775   9.190  1.00  0.00     0.241 C 
HETATM    8  N   UNL     1      43.525  -7.848  10.092  1.00  0.00    -0.325 N 
HETATM    9  H   UNL     1      44.404  -7.409   9.827  1.00  0.00     0.169 HD
HETATM   10  O   UNL     1      41.876  -9.189   9.138  1.00  0.00    -0.271 OA
BRANCH   8  11
HETATM   11  C   UNL     1      42.887  -7.277  11.216  1.00  0.00     0.042 A 
HETATM   12  C   UNL     1      42.390  -5.964  11.317  1.00  0.00    -0.035 A 
HETATM   13  C   UNL     1      42.356  -4.968  10.191  1.00  0.00     0.050 C 
HETATM   14  C   UNL     1      41.826  -5.542  12.541  1.00  0.00     0.011 A 
HETATM   15  C   UNL     1      41.698  -6.414  13.622  1.00  0.00     0.024 A 
HETATM   16  C   UNL     1      42.128  -7.725  13.489  1.00  0.00     0.036 A 
HETATM   17  C   UNL     1      42.708  -8.157  12.299  1.00  0.00     0.053 A 
HETATM   18 CL   UNL     1      41.956  -8.821  14.805  1.00  0.00    -0.084 Cl
ENDBRANCH   8  11
ENDBRANCH   6   7
ENDBRANCH   1   6
BRANCH   5  19
HETATM   19  N   UNL     1      42.096 -10.014   5.924  1.00  0.00    -0.382 N 
HETATM   20  H   UNL     1      41.110 -10.251   5.780  1.00  0.00     0.157 HD
HETATM   21  H   UNL     1      42.274  -9.015   5.850  1.00  0.00     0.157 HD
ENDBRANCH   5  19
BRANCH   4  22
HETATM   22  C   UNL     1      42.357 -13.189   5.678  1.00  0.00     0.275 C 
HETATM   23  N   UNL     1      43.148 -13.620   4.635  1.00  0.00    -0.351 N 
HETATM   24  H   UNL     1      44.091 -13.253   4.573  1.00  0.00     0.163 HD
HETATM   25  O   UNL     1      41.194 -13.548   5.840  1.00  0.00    -0.266 OA
BRANCH  23  26
HETATM   26  C   UNL     1      42.643 -14.448   3.567  1.00  0.00     0.161 C 
BRANCH  26  27
HETATM   27  C   UNL     1      43.078 -15.892   3.620  1.00  0.00    -0.040 A 
HETATM   28  C   UNL     1      43.090 -16.745   2.509  1.00  0.00     0.011 A 
HETATM   29  C   UNL     1      43.511 -18.073   2.638  1.00  0.00     0.037 A 
HETATM   30  C   UNL     1      43.933 -18.577   3.870  1.00  0.00     0.068 A 
HETATM   31  C   UNL     1      43.923 -17.738   4.981  1.00  0.00     0.037 A 
HETATM   32  C   UNL     1      43.499 -16.411   4.855  1.00  0.00     0.011 A 
BRANCH  30  33
HETATM   33  O   UNL     1      44.323 -19.888   3.855  1.00  0.00    -0.356 OA
HETATM   34  C   UNL     1      43.686 -20.735   2.907  1.00  0.00     0.210 C 
ENDBRANCH  30  33
ENDBRANCH  26  27
ENDBRANCH  23  26
ENDBRANCH   4  22
TORSDOF 8
ENDMDL
