MODEL 1
REMARK VINA RESULT:      -9.2      0.000      0.000
REMARK  5 active torsions:
REMARK  status: ('A' for Active; 'I' for Inactive)
REMARK    1  A    between atoms: C_2  and  N_3 
REMARK    2  A    between atoms: N_7  and  C_8 
REMARK    3  A    between atoms: N_14  and  C_15 
REMARK    4  A    between atoms: C_19  and  C_20 
REMARK       I    between atoms: C_20  and  N_21 
REMARK    5  A    between atoms: N_21  and  C_22 
ROOT
HETATM    1  C   UNL     1      42.335 -13.606   3.944  1.00  0.00     0.071 A 
HETATM    2  C   UNL     1      43.136 -14.153   4.967  1.00  0.00     0.143 A 
HETATM    3  F   UNL     1      43.514 -15.441   4.927  1.00  0.00    -0.204 F 
HETATM    4  C   UNL     1      43.524 -13.423   6.086  1.00  0.00     0.062 A 
HETATM    5  C   UNL     1      43.111 -12.100   6.221  1.00  0.00     0.045 A 
HETATM    6  C   UNL     1      42.334 -11.483   5.229  1.00  0.00     0.051 A 
HETATM    7  N   UNL     1      41.927 -10.131   5.404  1.00  0.00    -0.350 N 
HETATM    8  C   UNL     1      42.122  -9.527   6.637  1.00  0.00     0.113 C 
HETATM    9  C   UNL     1      42.837 -10.023   7.659  1.00  0.00     0.099 C 
HETATM   10  C   UNL     1      43.478 -11.344   7.443  1.00  0.00     0.201 C 
HETATM   11  O   UNL     1      44.262 -11.821   8.260  1.00  0.00    -0.286 OA
HETATM   12  C   UNL     1      41.979 -12.247   4.099  1.00  0.00     0.063 A 
ENDROOT
BRANCH   9  13
HETATM   13  C   UNL     1      42.906  -9.251   8.939  1.00  0.00     0.275 C 
HETATM   14  N   UNL     1      42.518  -9.982  10.039  1.00  0.00    -0.153 N 
HETATM   15  H   UNL     1      42.286 -10.964   9.917  1.00  0.00     0.187 HD
HETATM   16  O   UNL     1      43.284  -8.084   8.919  1.00  0.00    -0.267 OA
BRANCH  14  17
HETATM   17  C   UNL     1      42.349  -9.419  11.279  1.00  0.00     0.708 A 
HETATM   18  N   UNL     1      41.483  -9.729  12.214  1.00  0.00    -0.062 NA
HETATM   19  C   UNL     1      41.769  -8.912  13.278  1.00  0.00     0.103 A 
HETATM   20  C   UNL     1      42.827  -8.062  12.980  1.00  0.00     0.078 A 
HETATM   21  C   UNL     1      41.170  -8.839  14.544  1.00  0.00     0.034 A 
HETATM   22  N   UNL     1      43.176  -8.407  11.699  1.00  0.00    -0.187 N 
HETATM   23  C   UNL     1      43.330  -7.115  13.873  1.00  0.00     0.032 A 
HETATM   24  H   UNL     1      43.915  -7.988  11.158  1.00  0.00     0.184 HD
HETATM   25  C   UNL     1      42.719  -7.056  15.131  1.00  0.00     0.002 A 
HETATM   26  C   UNL     1      41.659  -7.904  15.465  1.00  0.00     0.002 A 
ENDBRANCH  14  17
ENDBRANCH   9  13
BRANCH   7  27
HETATM   27  C   UNL     1      41.055  -9.441   4.434  1.00  0.00     0.090 A 
HETATM   28  C   UNL     1      39.550  -9.542   4.501  1.00  0.00     0.028 A 
HETATM   29  C   UNL     1      40.223  -8.245   4.826  1.00  0.00     0.028 A 
ENDBRANCH   7  27
BRANCH   1  30
HETATM   30  N   UNL     1      41.921 -14.305   2.799  1.00  0.00    -0.375 N 
HETATM   31  C   UNL     1      40.862 -15.326   2.960  1.00  0.00     0.150 C 
HETATM   32  C   UNL     1      41.478 -16.715   3.242  1.00  0.00     0.254 C 
HETATM   33  N   UNL     1      42.472 -17.104   2.140  1.00  0.00    -0.068 N 
HETATM   34  H   UNL     1      41.952 -17.136   1.253  1.00  0.00     0.280 HD
HETATM   35  C   UNL     1      43.546 -16.013   1.974  1.00  0.00     0.254 C 
HETATM   36  C   UNL     1      42.887 -14.635   1.731  1.00  0.00     0.150 C 
BRANCH  33  37
HETATM   37  C   UNL     1      43.107 -18.457   2.363  1.00  0.00     0.230 C 
HETATM   38  C   UNL     1      43.933 -18.463   3.635  1.00  0.00     0.034 C 
ENDBRANCH  33  37
ENDBRANCH   1  30
TORSDOF 5
ENDMDL
MODEL 2
REMARK VINA RESULT:      -9.0      2.803     10.262
REMARK  5 active torsions:
REMARK  status: ('A' for Active; 'I' for Inactive)
REMARK    1  A    between atoms: C_2  and  N_3 
REMARK    2  A    between atoms: N_7  and  C_8 
REMARK    3  A    between atoms: N_14  and  C_15 
REMARK    4  A    between atoms: C_19  and  C_20 
REMARK       I    between atoms: C_20  and  N_21 
REMARK    5  A    between atoms: N_21  and  C_22 
ROOT
HETATM    1  C   UNL     1      40.640  -7.895   9.874  1.00  0.00     0.071 A 
HETATM    2  C   UNL     1      39.587  -8.529   9.183  1.00  0.00     0.143 A 
HETATM    3  F   UNL     1      38.314  -8.371   9.579  1.00  0.00    -0.204 F 
HETATM    4  C   UNL     1      39.804  -9.388   8.110  1.00  0.00     0.062 A 
HETATM    5  C   UNL     1      41.107  -9.647   7.690  1.00  0.00     0.045 A 
HETATM    6  C   UNL     1      42.201  -9.030   8.314  1.00  0.00     0.051 A 
HETATM    7  N   UNL     1      43.518  -9.323   7.860  1.00  0.00    -0.350 N 
HETATM    8  C   UNL     1      43.700 -10.365   6.964  1.00  0.00     0.113 C 
HETATM    9  C   UNL     1      42.734 -11.032   6.314  1.00  0.00     0.099 C 
HETATM   10  C   UNL     1      41.338 -10.608   6.584  1.00  0.00     0.201 C 
HETATM   11  O   UNL     1      40.392 -11.058   5.941  1.00  0.00    -0.286 OA
HETATM   12  C   UNL     1      41.940  -8.150   9.383  1.00  0.00     0.063 A 
ENDROOT
BRANCH   9  13
HETATM   13  C   UNL     1      43.113 -12.163   5.411  1.00  0.00     0.275 C 
HETATM   14  N   UNL     1      42.584 -13.373   5.800  1.00  0.00    -0.153 N 
HETATM   15  H   UNL     1      41.954 -13.398   6.598  1.00  0.00     0.187 HD
HETATM   16  O   UNL     1      43.828 -11.944   4.438  1.00  0.00    -0.267 OA
BRANCH  14  17
HETATM   17  C   UNL     1      42.941 -14.559   5.211  1.00  0.00     0.708 A 
HETATM   18  N   UNL     1      43.551 -15.592   5.742  1.00  0.00    -0.062 NA
HETATM   19  C   UNL     1      43.616 -16.541   4.752  1.00  0.00     0.103 A 
HETATM   20  C   UNL     1      43.048 -16.068   3.575  1.00  0.00     0.078 A 
HETATM   21  C   UNL     1      44.143 -17.839   4.783  1.00  0.00     0.034 A 
HETATM   22  N   UNL     1      42.627 -14.803   3.897  1.00  0.00    -0.187 N 
HETATM   23  C   UNL     1      42.981 -16.814   2.398  1.00  0.00     0.032 A 
HETATM   24  H   UNL     1      42.165 -14.160   3.274  1.00  0.00     0.184 HD
HETATM   25  C   UNL     1      43.513 -18.108   2.448  1.00  0.00     0.002 A 
HETATM   26  C   UNL     1      44.082 -18.617   3.619  1.00  0.00     0.002 A 
ENDBRANCH  14  17
ENDBRANCH   9  13
BRANCH   7  27
HETATM   27  C   UNL     1      44.717  -8.763   8.513  1.00  0.00     0.090 A 
HETATM   28  C   UNL     1      45.508  -9.544   9.534  1.00  0.00     0.028 A 
HETATM   29  C   UNL     1      46.102  -9.263   8.190  1.00  0.00     0.028 A 
ENDBRANCH   7  27
BRANCH   1  30
HETATM   30  N   UNL     1      40.466  -7.023  10.960  1.00  0.00    -0.375 N 
HETATM   31  C   UNL     1      41.659  -6.315  11.474  1.00  0.00     0.150 C 
HETATM   32  C   UNL     1      42.336  -7.128  12.599  1.00  0.00     0.254 C 
HETATM   33  N   UNL     1      41.339  -7.440  13.723  1.00  0.00    -0.068 N 
HETATM   34  H   UNL     1      41.012  -6.541  14.102  1.00  0.00     0.280 HD
HETATM   35  C   UNL     1      40.095  -8.151  13.157  1.00  0.00     0.254 C 
HETATM   36  C   UNL     1      39.471  -7.322  12.011  1.00  0.00     0.150 C 
BRANCH  33  37
HETATM   37  C   UNL     1      41.947  -8.235  14.854  1.00  0.00     0.230 C 
HETATM   38  C   UNL     1      41.298  -7.874  16.177  1.00  0.00     0.034 C 
ENDBRANCH  33  37
ENDBRANCH   1  30
TORSDOF 5
ENDMDL
MODEL 3
REMARK VINA RESULT:      -9.0      1.227      2.145
REMARK  5 active torsions:
REMARK  status: ('A' for Active; 'I' for Inactive)
REMARK    1  A    between atoms: C_2  and  N_3 
REMARK    2  A    between atoms: N_7  and  C_8 
REMARK    3  A    between atoms: N_14  and  C_15 
REMARK    4  A    between atoms: C_19  and  C_20 
REMARK       I    between atoms: C_20  and  N_21 
REMARK    5  A    between atoms: N_21  and  C_22 
ROOT
HETATM    1  C   UNL     1      42.499 -14.447   4.399  1.00  0.00     0.071 A 
HETATM    2  C   UNL     1      43.442 -14.746   5.404  1.00  0.00     0.143 A 
HETATM    3  F   UNL     1      44.026 -15.953   5.459  1.00  0.00    -0.204 F 
HETATM    4  C   UNL     1      43.769 -13.847   6.415  1.00  0.00     0.062 A 
HETATM    5  C   UNL     1      43.149 -12.600   6.454  1.00  0.00     0.045 A 
HETATM    6  C   UNL     1      42.221 -12.227   5.471  1.00  0.00     0.051 A 
HETATM    7  N   UNL     1      41.604 -10.946   5.546  1.00  0.00    -0.350 N 
HETATM    8  C   UNL     1      41.770 -10.191   6.697  1.00  0.00     0.113 C 
HETATM    9  C   UNL     1      42.618 -10.452   7.703  1.00  0.00     0.099 C 
HETATM   10  C   UNL     1      43.457 -11.668   7.565  1.00  0.00     0.201 C 
HETATM   11  O   UNL     1      44.358 -11.923   8.361  1.00  0.00    -0.286 OA
HETATM   12  C   UNL     1      41.931 -13.154   4.450  1.00  0.00     0.063 A 
ENDROOT
BRANCH   9  13
HETATM   13  C   UNL     1      42.634  -9.546   8.893  1.00  0.00     0.275 C 
HETATM   14  N   UNL     1      42.583 -10.220  10.093  1.00  0.00    -0.153 N 
HETATM   15  H   UNL     1      42.601 -11.236  10.085  1.00  0.00     0.187 HD
HETATM   16  O   UNL     1      42.691  -8.332   8.726  1.00  0.00    -0.267 OA
BRANCH  14  17
HETATM   17  C   UNL     1      42.420  -9.578  11.295  1.00  0.00     0.708 A 
HETATM   18  N   UNL     1      41.528  -9.796  12.231  1.00  0.00    -0.062 NA
HETATM   19  C   UNL     1      41.834  -8.931  13.252  1.00  0.00     0.103 A 
HETATM   20  C   UNL     1      42.933  -8.146  12.923  1.00  0.00     0.078 A 
HETATM   21  C   UNL     1      41.220  -8.759  14.500  1.00  0.00     0.034 A 
HETATM   22  N   UNL     1      43.285  -8.580  11.671  1.00  0.00    -0.187 N 
HETATM   23  C   UNL     1      43.463  -7.171  13.768  1.00  0.00     0.032 A 
HETATM   24  H   UNL     1      44.049  -8.226  11.119  1.00  0.00     0.184 HD
HETATM   25  C   UNL     1      42.837  -7.012  15.010  1.00  0.00     0.002 A 
HETATM   26  C   UNL     1      41.736  -7.793  15.374  1.00  0.00     0.002 A 
ENDBRANCH  14  17
ENDBRANCH   9  13
BRANCH   7  27
HETATM   27  C   UNL     1      40.571 -10.514   4.585  1.00  0.00     0.090 A 
HETATM   28  C   UNL     1      39.105 -10.799   4.806  1.00  0.00     0.028 A 
HETATM   29  C   UNL     1      39.611  -9.394   4.903  1.00  0.00     0.028 A 
ENDBRANCH   7  27
BRANCH   1  30
HETATM   30  N   UNL     1      42.140 -15.323   3.362  1.00  0.00    -0.375 N 
HETATM   31  C   UNL     1      42.830 -15.173   2.062  1.00  0.00     0.150 C 
HETATM   32  C   UNL     1      42.054 -14.209   1.137  1.00  0.00     0.254 C 
HETATM   33  N   UNL     1      40.605 -14.679   0.954  1.00  0.00    -0.068 N 
HETATM   34  H   UNL     1      40.636 -15.613   0.523  1.00  0.00     0.280 HD
HETATM   35  C   UNL     1      39.919 -14.855   2.321  1.00  0.00     0.254 C 
HETATM   36  C   UNL     1      40.746 -15.795   3.227  1.00  0.00     0.150 C 
BRANCH  33  37
HETATM   37  C   UNL     1      39.795 -13.774   0.056  1.00  0.00     0.230 C 
HETATM   38  C   UNL     1      39.419 -14.485  -1.231  1.00  0.00     0.034 C 
ENDBRANCH  33  37
ENDBRANCH   1  30
TORSDOF 5
ENDMDL
MODEL 4
REMARK VINA RESULT:      -8.9      3.478     10.437
REMARK  5 active torsions:
REMARK  status: ('A' for Active; 'I' for Inactive)
REMARK    1  A    between atoms: C_2  and  N_3 
REMARK    2  A    between atoms: N_7  and  C_8 
REMARK    3  A    between atoms: N_14  and  C_15 
REMARK    4  A    between atoms: C_19  and  C_20 
REMARK       I    between atoms: C_20  and  N_21 
REMARK    5  A    between atoms: N_21  and  C_22 
ROOT
HETATM    1  C   UNL     1      44.199 -10.343   7.499  1.00  0.00     0.071 A 
HETATM    2  C   UNL     1      44.829 -11.341   6.727  1.00  0.00     0.143 A 
HETATM    3  F   UNL     1      46.150 -11.554   6.828  1.00  0.00    -0.204 F 
HETATM    4  C   UNL     1      44.143 -12.109   5.790  1.00  0.00     0.062 A 
HETATM    5  C   UNL     1      42.781 -11.893   5.590  1.00  0.00     0.045 A 
HETATM    6  C   UNL     1      42.085 -10.934   6.341  1.00  0.00     0.051 A 
HETATM    7  N   UNL     1      40.696 -10.739   6.104  1.00  0.00    -0.350 N 
HETATM    8  C   UNL     1      40.114 -11.342   4.999  1.00  0.00     0.113 C 
HETATM    9  C   UNL     1      40.682 -12.262   4.206  1.00  0.00     0.099 C 
HETATM   10  C   UNL     1      42.067 -12.672   4.550  1.00  0.00     0.201 C 
HETATM   11  O   UNL     1      42.625 -13.602   3.973  1.00  0.00    -0.286 OA
HETATM   12  C   UNL     1      42.809 -10.192   7.296  1.00  0.00     0.063 A 
ENDROOT
BRANCH   9  13
HETATM   13  C   UNL     1      39.918 -12.776   3.026  1.00  0.00     0.275 C 
HETATM   14  N   UNL     1      40.681 -12.878   1.884  1.00  0.00    -0.153 N 
HETATM   15  H   UNL     1      41.674 -12.667   1.939  1.00  0.00     0.187 HD
HETATM   16  O   UNL     1      38.731 -13.058   3.153  1.00  0.00    -0.267 OA
BRANCH  14  17
HETATM   17  C   UNL     1      40.140 -13.166   0.657  1.00  0.00     0.708 A 
HETATM   18  N   UNL     1      40.547 -14.031  -0.240  1.00  0.00    -0.062 NA
HETATM   19  C   UNL     1      39.628 -13.978  -1.259  1.00  0.00     0.103 A 
HETATM   20  C   UNL     1      38.640 -13.039  -0.986  1.00  0.00     0.078 A 
HETATM   21  C   UNL     1      39.566 -14.709  -2.453  1.00  0.00     0.034 A 
HETATM   22  N   UNL     1      38.992 -12.538   0.241  1.00  0.00    -0.187 N 
HETATM   23  C   UNL     1      37.579 -12.765  -1.850  1.00  0.00     0.032 A 
HETATM   24  H   UNL     1      38.493 -11.827   0.751  1.00  0.00     0.184 HD
HETATM   25  C   UNL     1      37.534 -13.504  -3.038  1.00  0.00     0.002 A 
HETATM   26  C   UNL     1      38.506 -14.462  -3.337  1.00  0.00     0.002 A 
ENDBRANCH  14  17
ENDBRANCH   9  13
BRANCH   7  27
HETATM   27  C   UNL     1      39.916  -9.703   6.810  1.00  0.00     0.090 A 
HETATM   28  C   UNL     1      39.943  -8.255   6.382  1.00  0.00     0.028 A 
HETATM   29  C   UNL     1      38.699  -9.065   6.187  1.00  0.00     0.028 A 
ENDBRANCH   7  27
BRANCH   1  30
HETATM   30  N   UNL     1      44.852  -9.547   8.454  1.00  0.00    -0.375 N 
HETATM   31  C   UNL     1      45.348 -10.210   9.680  1.00  0.00     0.150 C 
HETATM   32  C   UNL     1      44.278 -10.173  10.794  1.00  0.00     0.254 C 
HETATM   33  N   UNL     1      43.832  -8.732  11.074  1.00  0.00    -0.068 N 
HETATM   34  H   UNL     1      44.662  -8.207  11.381  1.00  0.00     0.280 HD
HETATM   35  C   UNL     1      43.347  -8.057   9.777  1.00  0.00     0.254 C 
HETATM   36  C   UNL     1      44.432  -8.149   8.679  1.00  0.00     0.150 C 
BRANCH  33  37
HETATM   37  C   UNL     1      42.785  -8.634  12.158  1.00  0.00     0.230 C 
HETATM   38  C   UNL     1      43.275  -7.773  13.307  1.00  0.00     0.034 C 
ENDBRANCH  33  37
ENDBRANCH   1  30
TORSDOF 5
ENDMDL
MODEL 5
REMARK VINA RESULT:      -8.5      7.127     10.526
REMARK  5 active torsions:
REMARK  status: ('A' for Active; 'I' for Inactive)
REMARK    1  A    between atoms: C_2  and  N_3 
REMARK    2  A    between atoms: N_7  and  C_8 
REMARK    3  A    between atoms: N_14  and  C_15 
REMARK    4  A    between atoms: C_19  and  C_20 
REMARK       I    between atoms: C_20  and  N_21 
REMARK    5  A    between atoms: N_21  and  C_22 
ROOT
HETATM    1  C   UNL     1      40.436  -8.872   0.283  1.00  0.00     0.071 A 
HETATM    2  C   UNL     1      40.627  -9.006   1.673  1.00  0.00     0.143 A 
HETATM    3  F   UNL     1      40.870  -7.930   2.439  1.00  0.00    -0.204 F 
HETATM    4  C   UNL     1      40.637 -10.242   2.312  1.00  0.00     0.062 A 
HETATM    5  C   UNL     1      40.457 -11.404   1.565  1.00  0.00     0.045 A 
HETATM    6  C   UNL     1      40.235 -11.343   0.181  1.00  0.00     0.051 A 
HETATM    7  N   UNL     1      40.060 -12.551  -0.550  1.00  0.00    -0.350 N 
HETATM    8  C   UNL     1      40.325 -13.758   0.080  1.00  0.00     0.113 C 
HETATM    9  C   UNL     1      40.557 -13.937   1.389  1.00  0.00     0.099 C 
HETATM   10  C   UNL     1      40.526 -12.722   2.241  1.00  0.00     0.201 C 
HETATM   11  O   UNL     1      40.590 -12.792   3.466  1.00  0.00    -0.286 OA
HETATM   12  C   UNL     1      40.210 -10.072  -0.427  1.00  0.00     0.063 A 
ENDROOT
BRANCH   9  13
HETATM   13  C   UNL     1      40.869 -15.311   1.890  1.00  0.00     0.275 C 
HETATM   14  N   UNL     1      42.055 -15.383   2.586  1.00  0.00    -0.153 N 
HETATM   15  H   UNL     1      42.576 -14.526   2.755  1.00  0.00     0.187 HD
HETATM   16  O   UNL     1      40.087 -16.228   1.661  1.00  0.00    -0.267 OA
BRANCH  14  17
HETATM   17  C   UNL     1      42.607 -16.574   2.985  1.00  0.00     0.708 A 
HETATM   18  N   UNL     1      43.115 -16.898   4.150  1.00  0.00    -0.062 NA
HETATM   19  C   UNL     1      43.474 -18.219   4.051  1.00  0.00     0.103 A 
HETATM   20  C   UNL     1      43.197 -18.713   2.782  1.00  0.00     0.078 A 
HETATM   21  C   UNL     1      44.040 -19.072   5.008  1.00  0.00     0.034 A 
HETATM   22  N   UNL     1      42.646 -17.643   2.124  1.00  0.00    -0.187 N 
HETATM   23  C   UNL     1      43.465 -20.025   2.391  1.00  0.00     0.032 A 
HETATM   24  H   UNL     1      42.324 -17.641   1.170  1.00  0.00     0.184 HD
HETATM   25  C   UNL     1      44.031 -20.862   3.360  1.00  0.00     0.002 A 
HETATM   26  C   UNL     1      44.313 -20.398   4.648  1.00  0.00     0.002 A 
ENDBRANCH  14  17
ENDBRANCH   9  13
BRANCH   7  27
HETATM   27  C   UNL     1      39.889 -12.565  -2.015  1.00  0.00     0.090 A 
HETATM   28  C   UNL     1      41.069 -12.618  -2.956  1.00  0.00     0.028 A 
HETATM   29  C   UNL     1      40.163 -13.803  -2.833  1.00  0.00     0.028 A 
ENDBRANCH   7  27
BRANCH   1  30
HETATM   30  N   UNL     1      40.419  -7.646  -0.402  1.00  0.00    -0.375 N 
HETATM   31  C   UNL     1      39.390  -7.455  -1.448  1.00  0.00     0.150 C 
HETATM   32  C   UNL     1      39.923  -7.896  -2.828  1.00  0.00     0.254 C 
HETATM   33  N   UNL     1      41.222  -7.155  -3.174  1.00  0.00    -0.068 N 
HETATM   34  H   UNL     1      41.005  -6.150  -3.199  1.00  0.00     0.280 HD
HETATM   35  C   UNL     1      42.265  -7.348  -2.057  1.00  0.00     0.254 C 
HETATM   36  C   UNL     1      41.678  -6.929  -0.689  1.00  0.00     0.150 C 
BRANCH  33  37
HETATM   37  C   UNL     1      41.791  -7.547  -4.517  1.00  0.00     0.230 C 
HETATM   38  C   UNL     1      43.019  -6.719  -4.845  1.00  0.00     0.034 C 
ENDBRANCH  33  37
ENDBRANCH   1  30
TORSDOF 5
ENDMDL
MODEL 6
REMARK VINA RESULT:      -8.0      3.287     10.309
REMARK  5 active torsions:
REMARK  status: ('A' for Active; 'I' for Inactive)
REMARK    1  A    between atoms: C_2  and  N_3 
REMARK    2  A    between atoms: N_7  and  C_8 
REMARK    3  A    between atoms: N_14  and  C_15 
REMARK    4  A    between atoms: C_19  and  C_20 
REMARK       I    between atoms: C_20  and  N_21 
REMARK    5  A    between atoms: N_21  and  C_22 
ROOT
HETATM    1  C   UNL     1      43.517  -8.987   9.321  1.00  0.00     0.071 A 
HETATM    2  C   UNL     1      44.743  -9.446   8.798  1.00  0.00     0.143 A 
HETATM    3  F   UNL     1      45.902  -9.146   9.405  1.00  0.00    -0.204 F 
HETATM    4  C   UNL     1      44.828 -10.170   7.613  1.00  0.00     0.062 A 
HETATM    5  C   UNL     1      43.668 -10.458   6.899  1.00  0.00     0.045 A 
HETATM    6  C   UNL     1      42.411 -10.055   7.373  1.00  0.00     0.051 A 
HETATM    7  N   UNL     1      41.248 -10.363   6.614  1.00  0.00    -0.350 N 
HETATM    8  C   UNL     1      41.401 -10.860   5.328  1.00  0.00     0.113 C 
HETATM    9  C   UNL     1      42.548 -11.269   4.766  1.00  0.00     0.099 C 
HETATM   10  C   UNL     1      43.768 -11.178   5.606  1.00  0.00     0.201 C 
HETATM   11  O   UNL     1      44.841 -11.651   5.238  1.00  0.00    -0.286 OA
HETATM   12  C   UNL     1      42.362  -9.343   8.589  1.00  0.00     0.063 A 
ENDROOT
BRANCH   9  13
HETATM   13  C   UNL     1      42.535 -11.739   3.346  1.00  0.00     0.275 C 
HETATM   14  N   UNL     1      41.564 -11.133   2.580  1.00  0.00    -0.153 N 
HETATM   15  H   UNL     1      40.997 -10.401   2.998  1.00  0.00     0.187 HD
HETATM   16  O   UNL     1      43.347 -12.584   2.983  1.00  0.00    -0.267 OA
BRANCH  14  17
HETATM   17  C   UNL     1      41.272 -11.538   1.302  1.00  0.00     0.708 A 
HETATM   18  N   UNL     1      41.412 -10.880   0.176  1.00  0.00    -0.062 NA
HETATM   19  C   UNL     1      41.036 -11.749  -0.817  1.00  0.00     0.103 A 
HETATM   20  C   UNL     1      40.634 -12.967  -0.284  1.00  0.00     0.078 A 
HETATM   21  C   UNL     1      41.014 -11.571  -2.208  1.00  0.00     0.034 A 
HETATM   22  N   UNL     1      40.795 -12.804   1.068  1.00  0.00    -0.187 N 
HETATM   23  C   UNL     1      40.190 -14.039  -1.060  1.00  0.00     0.032 A 
HETATM   24  H   UNL     1      40.595 -13.497   1.772  1.00  0.00     0.184 HD
HETATM   25  C   UNL     1      40.175 -13.843  -2.446  1.00  0.00     0.002 A 
HETATM   26  C   UNL     1      40.582 -12.632  -3.014  1.00  0.00     0.002 A 
ENDBRANCH  14  17
ENDBRANCH   9  13
BRANCH   7  27
HETATM   27  C   UNL     1      39.902  -9.913   7.019  1.00  0.00     0.090 A 
HETATM   28  C   UNL     1      39.329  -8.594   6.559  1.00  0.00     0.028 A 
HETATM   29  C   UNL     1      38.752  -9.876   6.044  1.00  0.00     0.028 A 
ENDBRANCH   7  27
BRANCH   1  30
HETATM   30  N   UNL     1      43.386  -8.255  10.512  1.00  0.00    -0.375 N 
HETATM   31  C   UNL     1      43.619  -8.966  11.788  1.00  0.00     0.150 C 
HETATM   32  C   UNL     1      42.300  -9.555  12.336  1.00  0.00     0.254 C 
HETATM   33  N   UNL     1      41.236  -8.460  12.488  1.00  0.00    -0.068 N 
HETATM   34  H   UNL     1      41.601  -7.766  13.154  1.00  0.00     0.280 HD
HETATM   35  C   UNL     1      41.033  -7.717  11.155  1.00  0.00     0.254 C 
HETATM   36  C   UNL     1      42.381  -7.177  10.624  1.00  0.00     0.150 C 
BRANCH  33  37
HETATM   37  C   UNL     1      39.921  -8.978  13.022  1.00  0.00     0.230 C 
HETATM   38  C   UNL     1      39.715 -10.431  12.636  1.00  0.00     0.034 C 
ENDBRANCH  33  37
ENDBRANCH   1  30
TORSDOF 5
ENDMDL
MODEL 7
REMARK VINA RESULT:      -8.0      4.067      7.409
REMARK  5 active torsions:
REMARK  status: ('A' for Active; 'I' for Inactive)
REMARK    1  A    between atoms: C_2  and  N_3 
REMARK    2  A    between atoms: N_7  and  C_8 
REMARK    3  A    between atoms: N_14  and  C_15 
REMARK    4  A    between atoms: C_19  and  C_20 
REMARK       I    between atoms: C_20  and  N_21 
REMARK    5  A    between atoms: N_21  and  C_22 
ROOT
HETATM    1  C   UNL     1      43.541  -8.799   9.627  1.00  0.00     0.071 A 
HETATM    2  C   UNL     1      43.504  -9.885  10.525  1.00  0.00     0.143 A 
HETATM    3  F   UNL     1      43.780 -11.130  10.106  1.00  0.00    -0.204 F 
HETATM    4  C   UNL     1      43.127  -9.744  11.857  1.00  0.00     0.062 A 
HETATM    5  C   UNL     1      42.765  -8.488  12.339  1.00  0.00     0.045 A 
HETATM    6  C   UNL     1      42.804  -7.359  11.508  1.00  0.00     0.051 A 
HETATM    7  N   UNL     1      42.422  -6.093  12.035  1.00  0.00    -0.350 N 
HETATM    8  C   UNL     1      41.820  -6.042  13.283  1.00  0.00     0.113 C 
HETATM    9  C   UNL     1      41.717  -7.055  14.157  1.00  0.00     0.099 C 
HETATM   10  C   UNL     1      42.308  -8.352  13.743  1.00  0.00     0.201 C 
HETATM   11  O   UNL     1      42.389  -9.300  14.521  1.00  0.00    -0.286 OA
HETATM   12  C   UNL     1      43.212  -7.537  10.171  1.00  0.00     0.063 A 
ENDROOT
BRANCH   9  13
HETATM   13  C   UNL     1      40.993  -6.831  15.447  1.00  0.00     0.275 C 
HETATM   14  N   UNL     1      41.800  -6.959  16.556  1.00  0.00    -0.153 N 
HETATM   15  H   UNL     1      42.793  -7.126  16.421  1.00  0.00     0.187 HD
HETATM   16  O   UNL     1      39.797  -6.561  15.428  1.00  0.00    -0.267 OA
BRANCH  14  17
HETATM   17  C   UNL     1      41.304  -6.959  17.835  1.00  0.00     0.708 A 
HETATM   18  N   UNL     1      41.409  -6.035  18.759  1.00  0.00    -0.062 NA
HETATM   19  C   UNL     1      40.688  -6.493  19.834  1.00  0.00     0.103 A 
HETATM   20  C   UNL     1      40.142  -7.743  19.567  1.00  0.00     0.078 A 
HETATM   21  C   UNL     1      40.447  -5.892  21.077  1.00  0.00     0.034 A 
HETATM   22  N   UNL     1      40.552  -8.015  18.287  1.00  0.00    -0.187 N 
HETATM   23  C   UNL     1      39.367  -8.455  20.482  1.00  0.00     0.032 A 
HETATM   24  H   UNL     1      40.337  -8.849  17.766  1.00  0.00     0.184 HD
HETATM   25  C   UNL     1      39.137  -7.841  21.719  1.00  0.00     0.002 A 
HETATM   26  C   UNL     1      39.664  -6.580  22.014  1.00  0.00     0.002 A 
ENDBRANCH  14  17
ENDBRANCH   9  13
BRANCH   7  27
HETATM   27  C   UNL     1      42.376  -4.876  11.201  1.00  0.00     0.090 A 
HETATM   28  C   UNL     1      41.118  -4.449  10.483  1.00  0.00     0.028 A 
HETATM   29  C   UNL     1      41.624  -3.644  11.639  1.00  0.00     0.028 A 
ENDBRANCH   7  27
BRANCH   1  30
HETATM   30  N   UNL     1      43.915  -8.897   8.277  1.00  0.00    -0.375 N 
HETATM   31  C   UNL     1      42.883  -9.319   7.305  1.00  0.00     0.150 C 
HETATM   32  C   UNL     1      42.892 -10.853   7.127  1.00  0.00     0.254 C 
HETATM   33  N   UNL     1      44.285 -11.346   6.717  1.00  0.00    -0.068 N 
HETATM   34  H   UNL     1      44.520 -10.898   5.821  1.00  0.00     0.280 HD
HETATM   35  C   UNL     1      45.344 -10.870   7.730  1.00  0.00     0.254 C 
HETATM   36  C   UNL     1      45.276  -9.336   7.905  1.00  0.00     0.150 C 
BRANCH  33  37
HETATM   37  C   UNL     1      44.355 -12.843   6.527  1.00  0.00     0.230 C 
HETATM   38  C   UNL     1      43.154 -13.345   5.748  1.00  0.00     0.034 C 
ENDBRANCH  33  37
ENDBRANCH   1  30
TORSDOF 5
ENDMDL
MODEL 8
REMARK VINA RESULT:      -7.9      6.711     10.696
REMARK  5 active torsions:
REMARK  status: ('A' for Active; 'I' for Inactive)
REMARK    1  A    between atoms: C_2  and  N_3 
REMARK    2  A    between atoms: N_7  and  C_8 
REMARK    3  A    between atoms: N_14  and  C_15 
REMARK    4  A    between atoms: C_19  and  C_20 
REMARK       I    between atoms: C_20  and  N_21 
REMARK    5  A    between atoms: N_21  and  C_22 
ROOT
HETATM    1  C   UNL     1      37.993 -10.580  -1.322  1.00  0.00     0.071 A 
HETATM    2  C   UNL     1      37.772 -11.883  -1.814  1.00  0.00     0.143 A 
HETATM    3  F   UNL     1      36.879 -12.104  -2.791  1.00  0.00    -0.204 F 
HETATM    4  C   UNL     1      38.409 -13.002  -1.286  1.00  0.00     0.062 A 
HETATM    5  C   UNL     1      39.300 -12.849  -0.226  1.00  0.00     0.045 A 
HETATM    6  C   UNL     1      39.587 -11.579   0.297  1.00  0.00     0.051 A 
HETATM    7  N   UNL     1      40.498 -11.463   1.384  1.00  0.00    -0.350 N 
HETATM    8  C   UNL     1      40.912 -12.615   2.036  1.00  0.00     0.113 C 
HETATM    9  C   UNL     1      40.692 -13.877   1.636  1.00  0.00     0.099 C 
HETATM   10  C   UNL     1      39.932 -14.050   0.373  1.00  0.00     0.201 C 
HETATM   11  O   UNL     1      39.795 -15.153  -0.151  1.00  0.00    -0.286 OA
HETATM   12  C   UNL     1      38.939 -10.468  -0.279  1.00  0.00     0.063 A 
ENDROOT
BRANCH   9  13
HETATM   13  C   UNL     1      41.177 -15.005   2.490  1.00  0.00     0.275 C 
HETATM   14  N   UNL     1      42.123 -15.791   1.870  1.00  0.00    -0.153 N 
HETATM   15  H   UNL     1      42.453 -15.523   0.947  1.00  0.00     0.187 HD
HETATM   16  O   UNL     1      40.724 -15.142   3.622  1.00  0.00    -0.267 OA
BRANCH  14  17
HETATM   17  C   UNL     1      42.574 -16.968   2.411  1.00  0.00     0.708 A 
HETATM   18  N   UNL     1      42.644 -18.156   1.858  1.00  0.00    -0.062 NA
HETATM   19  C   UNL     1      43.223 -18.974   2.795  1.00  0.00     0.103 A 
HETATM   20  C   UNL     1      43.498 -18.273   3.963  1.00  0.00     0.078 A 
HETATM   21  C   UNL     1      43.554 -20.334   2.720  1.00  0.00     0.034 A 
HETATM   22  N   UNL     1      43.074 -16.998   3.689  1.00  0.00    -0.187 N 
HETATM   23  C   UNL     1      44.081 -18.853   5.090  1.00  0.00     0.032 A 
HETATM   24  H   UNL     1      43.120 -16.214   4.320  1.00  0.00     0.184 HD
HETATM   25  C   UNL     1      44.404 -20.212   4.997  1.00  0.00     0.002 A 
HETATM   26  C   UNL     1      44.149 -20.943   3.833  1.00  0.00     0.002 A 
ENDBRANCH  14  17
ENDBRANCH   9  13
BRANCH   7  27
HETATM   27  C   UNL     1      40.795 -10.168   2.025  1.00  0.00     0.090 A 
HETATM   28  C   UNL     1      40.074  -9.710   3.269  1.00  0.00     0.028 A 
HETATM   29  C   UNL     1      41.520 -10.085   3.345  1.00  0.00     0.028 A 
ENDBRANCH   7  27
BRANCH   1  30
HETATM   30  N   UNL     1      37.373  -9.425  -1.825  1.00  0.00    -0.375 N 
HETATM   31  C   UNL     1      36.079  -9.023  -1.230  1.00  0.00     0.150 C 
HETATM   32  C   UNL     1      34.900  -9.653  -2.005  1.00  0.00     0.254 C 
HETATM   33  N   UNL     1      34.972  -9.291  -3.494  1.00  0.00    -0.068 N 
HETATM   34  H   UNL     1      34.917  -8.266  -3.566  1.00  0.00     0.280 HD
HETATM   35  C   UNL     1      36.338  -9.694  -4.081  1.00  0.00     0.254 C 
HETATM   36  C   UNL     1      37.488  -9.074  -3.255  1.00  0.00     0.150 C 
BRANCH  33  37
HETATM   37  C   UNL     1      33.841  -9.879  -4.305  1.00  0.00     0.230 C 
HETATM   38  C   UNL     1      33.050 -10.879  -3.482  1.00  0.00     0.034 C 
ENDBRANCH  33  37
ENDBRANCH   1  30
TORSDOF 5
ENDMDL
MODEL 9
REMARK VINA RESULT:      -7.9      3.722     10.884
REMARK  5 active torsions:
REMARK  status: ('A' for Active; 'I' for Inactive)
REMARK    1  A    between atoms: C_2  and  N_3 
REMARK    2  A    between atoms: N_7  and  C_8 
REMARK    3  A    between atoms: N_14  and  C_15 
REMARK    4  A    between atoms: C_19  and  C_20 
REMARK       I    between atoms: C_20  and  N_21 
REMARK    5  A    between atoms: N_21  and  C_22 
ROOT
HETATM    1  C   UNL     1      40.553  -6.935  12.048  1.00  0.00     0.071 A 
HETATM    2  C   UNL     1      40.044  -8.153  12.545  1.00  0.00     0.143 A 
HETATM    3  F   UNL     1      40.075  -8.423  13.859  1.00  0.00    -0.204 F 
HETATM    4  C   UNL     1      39.546  -9.152  11.714  1.00  0.00     0.062 A 
HETATM    5  C   UNL     1      39.546  -8.961  10.334  1.00  0.00     0.045 A 
HETATM    6  C   UNL     1      40.013  -7.763   9.772  1.00  0.00     0.051 A 
HETATM    7  N   UNL     1      40.001  -7.607   8.358  1.00  0.00    -0.350 N 
HETATM    8  C   UNL     1      39.734  -8.712   7.565  1.00  0.00     0.113 C 
HETATM    9  C   UNL     1      39.292  -9.906   7.989  1.00  0.00     0.099 C 
HETATM   10  C   UNL     1      39.069 -10.051   9.449  1.00  0.00     0.201 C 
HETATM   11  O   UNL     1      38.538 -11.052   9.923  1.00  0.00    -0.286 OA
HETATM   12  C   UNL     1      40.489  -6.766  10.647  1.00  0.00     0.063 A 
ENDROOT
BRANCH   9  13
HETATM   13  C   UNL     1      39.097 -11.004   6.992  1.00  0.00     0.275 C 
HETATM   14  N   UNL     1      40.246 -11.719   6.736  1.00  0.00    -0.153 N 
HETATM   15  H   UNL     1      41.086 -11.500   7.263  1.00  0.00     0.187 HD
HETATM   16  O   UNL     1      37.987 -11.183   6.501  1.00  0.00    -0.267 OA
BRANCH  14  17
HETATM   17  C   UNL     1      40.326 -12.655   5.736  1.00  0.00     0.708 A 
HETATM   18  N   UNL     1      40.771 -13.887   5.794  1.00  0.00    -0.062 NA
HETATM   19  C   UNL     1      40.579 -14.417   4.543  1.00  0.00     0.103 A 
HETATM   20  C   UNL     1      40.018 -13.476   3.688  1.00  0.00     0.078 A 
HETATM   21  C   UNL     1      40.854 -15.703   4.059  1.00  0.00     0.034 A 
HETATM   22  N   UNL     1      39.869 -12.363   4.475  1.00  0.00    -0.187 N 
HETATM   23  C   UNL     1      39.720 -13.734   2.349  1.00  0.00     0.032 A 
HETATM   24  H   UNL     1      39.488 -11.479   4.177  1.00  0.00     0.184 HD
HETATM   25  C   UNL     1      40.002 -15.023   1.882  1.00  0.00     0.002 A 
HETATM   26  C   UNL     1      40.557 -15.995   2.721  1.00  0.00     0.002 A 
ENDBRANCH  14  17
ENDBRANCH   9  13
BRANCH   7  27
HETATM   27  C   UNL     1      40.538  -6.402   7.696  1.00  0.00     0.090 A 
HETATM   28  C   UNL     1      41.997  -6.274   7.332  1.00  0.00     0.028 A 
HETATM   29  C   UNL     1      40.972  -6.417   6.252  1.00  0.00     0.028 A 
ENDBRANCH   7  27
BRANCH   1  30
HETATM   30  N   UNL     1      41.064  -5.902  12.850  1.00  0.00    -0.375 N 
HETATM   31  C   UNL     1      42.495  -5.960  13.219  1.00  0.00     0.150 C 
HETATM   32  C   UNL     1      42.687  -6.710  14.555  1.00  0.00     0.254 C 
HETATM   33  N   UNL     1      41.845  -6.069  15.666  1.00  0.00    -0.068 N 
HETATM   34  H   UNL     1      42.164  -5.097  15.773  1.00  0.00     0.280 HD
HETATM   35  C   UNL     1      40.365  -5.996  15.246  1.00  0.00     0.254 C 
HETATM   36  C   UNL     1      40.222  -5.271  13.888  1.00  0.00     0.150 C 
BRANCH  33  37
HETATM   37  C   UNL     1      41.993  -6.762  17.000  1.00  0.00     0.230 C 
HETATM   38  C   UNL     1      40.797  -7.653  17.282  1.00  0.00     0.034 C 
ENDBRANCH  33  37
ENDBRANCH   1  30
TORSDOF 5
ENDMDL
MODEL 10
REMARK VINA RESULT:      -7.8     19.338     24.529
REMARK  5 active torsions:
REMARK  status: ('A' for Active; 'I' for Inactive)
REMARK    1  A    between atoms: C_2  and  N_3 
REMARK    2  A    between atoms: N_7  and  C_8 
REMARK    3  A    between atoms: N_14  and  C_15 
REMARK    4  A    between atoms: C_19  and  C_20 
REMARK       I    between atoms: C_20  and  N_21 
REMARK    5  A    between atoms: N_21  and  C_22 
ROOT
HETATM    1  C   UNL     1      47.513 -28.916  -0.239  1.00  0.00     0.071 A 
HETATM    2  C   UNL     1      47.953 -28.936  -1.578  1.00  0.00     0.143 A 
HETATM    3  F   UNL     1      47.213 -28.382  -2.551  1.00  0.00    -0.204 F 
HETATM    4  C   UNL     1      49.128 -29.571  -1.972  1.00  0.00     0.062 A 
HETATM    5  C   UNL     1      49.909 -30.222  -1.020  1.00  0.00     0.045 A 
HETATM    6  C   UNL     1      49.545 -30.220   0.334  1.00  0.00     0.051 A 
HETATM    7  N   UNL     1      50.367 -30.900   1.277  1.00  0.00    -0.350 N 
HETATM    8  C   UNL     1      51.381 -31.722   0.810  1.00  0.00     0.113 C 
HETATM    9  C   UNL     1      51.809 -31.813  -0.458  1.00  0.00     0.099 C 
HETATM   10  C   UNL     1      51.129 -30.946  -1.452  1.00  0.00     0.201 C 
HETATM   11  O   UNL     1      51.534 -30.852  -2.609  1.00  0.00    -0.286 OA
HETATM   12  C   UNL     1      48.361 -29.548   0.698  1.00  0.00     0.063 A 
ENDROOT
BRANCH   9  13
HETATM   13  C   UNL     1      52.892 -32.790  -0.791  1.00  0.00     0.275 C 
HETATM   14  N   UNL     1      53.885 -32.256  -1.582  1.00  0.00    -0.153 N 
HETATM   15  H   UNL     1      53.844 -31.268  -1.818  1.00  0.00     0.187 HD
HETATM   16  O   UNL     1      52.824 -33.936  -0.358  1.00  0.00    -0.267 OA
BRANCH  14  17
HETATM   17  C   UNL     1      54.879 -33.021  -2.137  1.00  0.00     0.708 A 
HETATM   18  N   UNL     1      55.252 -33.104  -3.392  1.00  0.00    -0.062 NA
HETATM   19  C   UNL     1      56.326 -33.959  -3.410  1.00  0.00     0.103 A 
HETATM   20  C   UNL     1      56.606 -34.429  -2.133  1.00  0.00     0.078 A 
HETATM   21  C   UNL     1      57.122 -34.380  -4.484  1.00  0.00     0.034 A 
HETATM   22  N   UNL     1      55.668 -33.816  -1.343  1.00  0.00    -0.187 N 
HETATM   23  C   UNL     1      57.641 -35.322  -1.851  1.00  0.00     0.032 A 
HETATM   24  H   UNL     1      55.573 -33.929  -0.346  1.00  0.00     0.184 HD
HETATM   25  C   UNL     1      58.425 -35.732  -2.935  1.00  0.00     0.002 A 
HETATM   26  C   UNL     1      58.175 -35.270  -4.230  1.00  0.00     0.002 A 
ENDBRANCH  14  17
ENDBRANCH   9  13
BRANCH   7  27
HETATM   27  C   UNL     1      50.009 -30.995   2.706  1.00  0.00     0.090 A 
HETATM   28  C   UNL     1      51.023 -30.755   3.799  1.00  0.00     0.028 A 
HETATM   29  C   UNL     1      49.916 -29.771   3.582  1.00  0.00     0.028 A 
ENDBRANCH   7  27
BRANCH   1  30
HETATM   30  N   UNL     1      46.337 -28.289   0.201  1.00  0.00    -0.375 N 
HETATM   31  C   UNL     1      45.958 -28.454   1.622  1.00  0.00     0.150 C 
HETATM   32  C   UNL     1      45.036 -29.680   1.804  1.00  0.00     0.254 C 
HETATM   33  N   UNL     1      43.801 -29.573   0.900  1.00  0.00    -0.068 N 
HETATM   34  H   UNL     1      43.292 -28.721   1.174  1.00  0.00     0.280 HD
HETATM   35  C   UNL     1      44.223 -29.373  -0.567  1.00  0.00     0.254 C 
HETATM   36  C   UNL     1      45.173 -28.160  -0.699  1.00  0.00     0.150 C 
BRANCH  33  37
HETATM   37  C   UNL     1      42.860 -30.747   1.036  1.00  0.00     0.230 C 
HETATM   38  C   UNL     1      41.741 -30.432   2.011  1.00  0.00     0.034 C 
ENDBRANCH  33  37
ENDBRANCH   1  30
TORSDOF 5
ENDMDL
