MODEL 1
REMARK VINA RESULT:      -9.4      0.000      0.000
REMARK  6 active torsions:
REMARK  status: ('A' for Active; 'I' for Inactive)
REMARK    1  A    between atoms: C_2  and  O_3 
REMARK    2  A    between atoms: C_2  and  C_4 
REMARK    3  A    between atoms: C_7  and  N_8 
REMARK       I    between atoms: N_8  and  C_9 
REMARK    4  A    between atoms: C_9  and  C_10 
REMARK    5  A    between atoms: C_13  and  C_14 
REMARK    6  A    between atoms: C_19  and  C_20 
ROOT
HETATM    1  C   UNL     1      42.529 -13.594   3.794  1.00  0.00     0.096 C 
HETATM    2  C   UNL     1      42.910 -14.870   4.167  1.00  0.00     0.138 C 
HETATM    3  N   UNL     1      43.288 -14.778   5.489  1.00  0.00    -0.240 N 
HETATM    4  C   UNL     1      43.803 -15.881   6.279  1.00  0.00     0.221 C 
HETATM    5  C   UNL     1      43.552 -17.224   5.571  1.00  0.00     0.068 C 
HETATM    6  C   UNL     1      43.851 -17.107   4.072  1.00  0.00     0.143 C 
HETATM    7  N   UNL     1      42.985 -16.058   3.500  1.00  0.00    -0.363 N 
HETATM    8  N   UNL     1      43.352 -13.516   5.936  1.00  0.00    -0.181 NA
HETATM    9  C   UNL     1      42.858 -12.801   4.921  1.00  0.00     0.160 C 
HETATM   10  H   UNL     1      43.094 -16.018   2.484  1.00  0.00     0.162 HD
ENDROOT
BRANCH   1  11
HETATM   11  C   UNL     1      41.965 -13.109   2.545  1.00  0.00     0.261 C 
HETATM   12  N   UNL     1      40.922 -13.882   2.072  1.00  0.00    -0.323 N 
HETATM   13  H   UNL     1      40.622 -14.632   2.684  1.00  0.00     0.169 HD
HETATM   14  O   UNL     1      42.391 -12.080   2.037  1.00  0.00    -0.267 OA
BRANCH  12  15
HETATM   15  C   UNL     1      40.148 -13.664   0.914  1.00  0.00     0.035 A 
HETATM   16  C   UNL     1      39.407 -12.506   0.677  1.00  0.00     0.030 A 
HETATM   17  C   UNL     1      38.642 -12.374  -0.488  1.00  0.00     0.012 A 
HETATM   18  C   UNL     1      38.600 -13.398  -1.443  1.00  0.00    -0.030 A 
HETATM   19  C   UNL     1      39.365 -14.549  -1.214  1.00  0.00     0.012 A 
HETATM   20  C   UNL     1      40.129 -14.681  -0.048  1.00  0.00     0.030 A 
BRANCH  18  21
HETATM   21  C   UNL     1      37.765 -13.228  -2.693  1.00  0.00     0.147 C 
HETATM   22  C   UNL     1      37.349 -11.776  -2.897  1.00  0.00     0.044 C 
BRANCH  21  23
HETATM   23  O   UNL     1      38.493 -13.668  -3.838  1.00  0.00    -0.391 OA
HETATM   24  H   UNL     1      38.016 -14.434  -4.200  1.00  0.00     0.210 HD
ENDBRANCH  21  23
ENDBRANCH  18  21
ENDBRANCH  12  15
ENDBRANCH   1  11
BRANCH   4  25
HETATM   25  C   UNL     1      43.183 -15.915   7.660  1.00  0.00     0.409 C 
HETATM   26  F   UNL     1      41.899 -16.337   7.636  1.00  0.00    -0.169 F 
HETATM   27  F   UNL     1      43.865 -16.796   8.442  1.00  0.00    -0.169 F 
HETATM   28  F   UNL     1      43.230 -14.731   8.304  1.00  0.00    -0.169 F 
ENDBRANCH   4  25
BRANCH   6  29
HETATM   29  C   UNL     1      43.688 -18.439   3.415  1.00  0.00     0.075 A 
HETATM   30  O   UNL     1      44.102 -19.523   4.134  1.00  0.00    -0.325 OA
HETATM   31  C   UNL     1      43.854 -20.622   3.377  1.00  0.00     0.142 A 
HETATM   32  C   UNL     1      43.284 -20.261   2.178  1.00  0.00     0.027 A 
HETATM   33  C   UNL     1      43.177 -18.849   2.200  1.00  0.00     0.037 A 
ENDBRANCH   6  29
TORSDOF 6
ENDMDL
MODEL 2
REMARK VINA RESULT:      -8.9      3.703      8.336
REMARK  6 active torsions:
REMARK  status: ('A' for Active; 'I' for Inactive)
REMARK    1  A    between atoms: C_2  and  O_3 
REMARK    2  A    between atoms: C_2  and  C_4 
REMARK    3  A    between atoms: C_7  and  N_8 
REMARK       I    between atoms: N_8  and  C_9 
REMARK    4  A    between atoms: C_9  and  C_10 
REMARK    5  A    between atoms: C_13  and  C_14 
REMARK    6  A    between atoms: C_19  and  C_20 
ROOT
HETATM    1  C   UNL     1      42.507 -13.130   2.046  1.00  0.00     0.096 C 
HETATM    2  C   UNL     1      41.503 -12.745   1.176  1.00  0.00     0.138 C 
HETATM    3  N   UNL     1      41.235 -11.427   1.473  1.00  0.00    -0.240 N 
HETATM    4  C   UNL     1      40.211 -10.627   0.825  1.00  0.00     0.221 C 
HETATM    5  C   UNL     1      39.706 -11.317  -0.454  1.00  0.00     0.068 C 
HETATM    6  C   UNL     1      39.515 -12.819  -0.215  1.00  0.00     0.143 C 
HETATM    7  N   UNL     1      40.806 -13.398   0.202  1.00  0.00    -0.363 N 
HETATM    8  N   UNL     1      41.854 -10.995   2.580  1.00  0.00    -0.181 NA
HETATM    9  C   UNL     1      42.652 -12.015   2.907  1.00  0.00     0.160 C 
HETATM   10  H   UNL     1      40.735 -14.416   0.280  1.00  0.00     0.162 HD
ENDROOT
BRANCH   1  11
HETATM   11  C   UNL     1      43.241 -14.381   2.139  1.00  0.00     0.261 C 
HETATM   12  N   UNL     1      42.652 -15.307   2.979  1.00  0.00    -0.323 N 
HETATM   13  H   UNL     1      41.749 -15.042   3.356  1.00  0.00     0.169 HD
HETATM   14  O   UNL     1      44.255 -14.550   1.474  1.00  0.00    -0.267 OA
BRANCH  12  15
HETATM   15  C   UNL     1      43.093 -16.617   3.257  1.00  0.00     0.035 A 
HETATM   16  C   UNL     1      43.047 -17.667   2.340  1.00  0.00     0.030 A 
HETATM   17  C   UNL     1      43.482 -18.949   2.701  1.00  0.00     0.012 A 
HETATM   18  C   UNL     1      43.972 -19.209   3.986  1.00  0.00    -0.030 A 
HETATM   19  C   UNL     1      44.039 -18.146   4.897  1.00  0.00     0.012 A 
HETATM   20  C   UNL     1      43.604 -16.866   4.536  1.00  0.00     0.030 A 
BRANCH  18  21
HETATM   21  C   UNL     1      44.434 -20.603   4.347  1.00  0.00     0.147 C 
HETATM   22  C   UNL     1      43.848 -21.063   5.676  1.00  0.00     0.044 C 
BRANCH  21  23
HETATM   23  O   UNL     1      44.059 -21.528   3.329  1.00  0.00    -0.391 OA
HETATM   24  H   UNL     1      43.540 -21.033   2.673  1.00  0.00     0.210 HD
ENDBRANCH  21  23
ENDBRANCH  18  21
ENDBRANCH  12  15
ENDBRANCH   1  11
BRANCH   4  25
HETATM   25  C   UNL     1      40.718  -9.241   0.485  1.00  0.00     0.409 C 
HETATM   26  F   UNL     1      40.000  -8.660  -0.502  1.00  0.00    -0.169 F 
HETATM   27  F   UNL     1      40.599  -8.434   1.575  1.00  0.00    -0.169 F 
HETATM   28  F   UNL     1      42.021  -9.211   0.138  1.00  0.00    -0.169 F 
ENDBRANCH   4  25
BRANCH   6  29
HETATM   29  C   UNL     1      38.941 -13.460  -1.438  1.00  0.00     0.075 A 
HETATM   30  O   UNL     1      37.712 -13.016  -1.833  1.00  0.00    -0.325 OA
HETATM   31  C   UNL     1      37.383 -13.702  -2.957  1.00  0.00     0.142 A 
HETATM   32  C   UNL     1      38.385 -14.583  -3.293  1.00  0.00     0.027 A 
HETATM   33  C   UNL     1      39.393 -14.428  -2.311  1.00  0.00     0.037 A 
ENDBRANCH   6  29
TORSDOF 6
ENDMDL
MODEL 3
REMARK VINA RESULT:      -8.6      4.532      8.097
REMARK  6 active torsions:
REMARK  status: ('A' for Active; 'I' for Inactive)
REMARK    1  A    between atoms: C_2  and  O_3 
REMARK    2  A    between atoms: C_2  and  C_4 
REMARK    3  A    between atoms: C_7  and  N_8 
REMARK       I    between atoms: N_8  and  C_9 
REMARK    4  A    between atoms: C_9  and  C_10 
REMARK    5  A    between atoms: C_13  and  C_14 
REMARK    6  A    between atoms: C_19  and  C_20 
ROOT
HETATM    1  C   UNL     1      41.603 -12.846   5.161  1.00  0.00     0.096 C 
HETATM    2  C   UNL     1      41.929 -11.772   5.969  1.00  0.00     0.138 C 
HETATM    3  N   UNL     1      41.193 -10.709   5.495  1.00  0.00    -0.240 N 
HETATM    4  C   UNL     1      41.257  -9.359   6.026  1.00  0.00     0.221 C 
HETATM    5  C   UNL     1      41.976  -9.340   7.386  1.00  0.00     0.068 C 
HETATM    6  C   UNL     1      43.213 -10.246   7.354  1.00  0.00     0.143 C 
HETATM    7  N   UNL     1      42.784 -11.617   7.022  1.00  0.00    -0.363 N 
HETATM    8  N   UNL     1      40.564 -10.970   4.341  1.00  0.00    -0.181 NA
HETATM    9  C   UNL     1      40.783 -12.275   4.156  1.00  0.00     0.160 C 
HETATM   10  H   UNL     1      43.574 -12.265   7.082  1.00  0.00     0.162 HD
ENDROOT
BRANCH   1  11
HETATM   11  C   UNL     1      42.008 -14.239   5.240  1.00  0.00     0.261 C 
HETATM   12  N   UNL     1      42.300 -14.801   4.011  1.00  0.00    -0.323 N 
HETATM   13  H   UNL     1      42.280 -14.163   3.224  1.00  0.00     0.169 HD
HETATM   14  O   UNL     1      42.106 -14.791   6.329  1.00  0.00    -0.267 OA
BRANCH  12  15
HETATM   15  C   UNL     1      42.750 -16.112   3.751  1.00  0.00     0.035 A 
HETATM   16  C   UNL     1      43.662 -16.797   4.555  1.00  0.00     0.030 A 
HETATM   17  C   UNL     1      44.080 -18.090   4.216  1.00  0.00     0.012 A 
HETATM   18  C   UNL     1      43.596 -18.726   3.066  1.00  0.00    -0.030 A 
HETATM   19  C   UNL     1      42.662 -18.045   2.275  1.00  0.00     0.012 A 
HETATM   20  C   UNL     1      42.245 -16.752   2.614  1.00  0.00     0.030 A 
BRANCH  18  21
HETATM   21  C   UNL     1      44.066 -20.124   2.725  1.00  0.00     0.147 C 
HETATM   22  C   UNL     1      43.878 -21.080   3.896  1.00  0.00     0.044 C 
BRANCH  21  23
HETATM   23  O   UNL     1      43.351 -20.624   1.596  1.00  0.00    -0.391 OA
HETATM   24  H   UNL     1      42.770 -19.908   1.289  1.00  0.00     0.210 HD
ENDBRANCH  21  23
ENDBRANCH  18  21
ENDBRANCH  12  15
ENDBRANCH   1  11
BRANCH   4  25
HETATM   25  C   UNL     1      39.877  -8.753   6.176  1.00  0.00     0.409 C 
HETATM   26  F   UNL     1      39.852  -7.754   7.087  1.00  0.00    -0.169 F 
HETATM   27  F   UNL     1      39.491  -8.205   4.991  1.00  0.00    -0.169 F 
HETATM   28  F   UNL     1      38.924  -9.649   6.501  1.00  0.00    -0.169 F 
ENDBRANCH   4  25
BRANCH   6  29
HETATM   29  C   UNL     1      43.949 -10.148   8.650  1.00  0.00     0.075 A 
HETATM   30  O   UNL     1      43.183 -10.100   9.779  1.00  0.00    -0.325 OA
HETATM   31  C   UNL     1      44.034 -10.032  10.835  1.00  0.00     0.142 A 
HETATM   32  C   UNL     1      45.339 -10.039  10.402  1.00  0.00     0.027 A 
HETATM   33  C   UNL     1      45.287 -10.112   8.989  1.00  0.00     0.037 A 
ENDBRANCH   6  29
TORSDOF 6
ENDMDL
MODEL 4
REMARK VINA RESULT:      -8.6      4.498      7.970
REMARK  6 active torsions:
REMARK  status: ('A' for Active; 'I' for Inactive)
REMARK    1  A    between atoms: C_2  and  O_3 
REMARK    2  A    between atoms: C_2  and  C_4 
REMARK    3  A    between atoms: C_7  and  N_8 
REMARK       I    between atoms: N_8  and  C_9 
REMARK    4  A    between atoms: C_9  and  C_10 
REMARK    5  A    between atoms: C_13  and  C_14 
REMARK    6  A    between atoms: C_19  and  C_20 
ROOT
HETATM    1  C   UNL     1      40.087 -12.591   4.208  1.00  0.00     0.096 C 
HETATM    2  C   UNL     1      40.477 -13.670   3.436  1.00  0.00     0.138 C 
HETATM    3  N   UNL     1      39.823 -13.527   2.233  1.00  0.00    -0.240 N 
HETATM    4  C   UNL     1      39.910 -14.467   1.130  1.00  0.00     0.221 C 
HETATM    5  C   UNL     1      41.077 -15.448   1.338  1.00  0.00     0.068 C 
HETATM    6  C   UNL     1      41.131 -15.919   2.796  1.00  0.00     0.143 C 
HETATM    7  N   UNL     1      41.294 -14.739   3.666  1.00  0.00    -0.363 N 
HETATM    8  N   UNL     1      38.909 -12.547   2.238  1.00  0.00    -0.181 NA
HETATM    9  C   UNL     1      39.093 -11.957   3.422  1.00  0.00     0.160 C 
HETATM   10  H   UNL     1      41.425 -15.027   4.639  1.00  0.00     0.162 HD
ENDROOT
BRANCH   1  11
HETATM   11  C   UNL     1      40.517 -12.178   5.533  1.00  0.00     0.261 C 
HETATM   12  N   UNL     1      41.773 -11.599   5.552  1.00  0.00    -0.323 N 
HETATM   13  H   UNL     1      42.200 -11.456   4.644  1.00  0.00     0.169 HD
HETATM   14  O   UNL     1      39.771 -12.316   6.494  1.00  0.00    -0.267 OA
BRANCH  12  15
HETATM   15  C   UNL     1      42.457 -11.069   6.664  1.00  0.00     0.035 A 
HETATM   16  C   UNL     1      42.046  -9.935   7.365  1.00  0.00     0.030 A 
HETATM   17  C   UNL     1      42.795  -9.454   8.446  1.00  0.00     0.012 A 
HETATM   18  C   UNL     1      43.973 -10.095   8.850  1.00  0.00    -0.030 A 
HETATM   19  C   UNL     1      44.370 -11.248   8.159  1.00  0.00     0.012 A 
HETATM   20  C   UNL     1      43.621 -11.728   7.078  1.00  0.00     0.030 A 
BRANCH  18  21
HETATM   21  C   UNL     1      44.761  -9.553  10.021  1.00  0.00     0.147 C 
HETATM   22  C   UNL     1      43.856  -8.874  11.041  1.00  0.00     0.044 C 
BRANCH  21  23
HETATM   23  O   UNL     1      45.479 -10.606  10.664  1.00  0.00    -0.391 OA
HETATM   24  H   UNL     1      45.691 -11.263   9.980  1.00  0.00     0.210 HD
ENDBRANCH  21  23
ENDBRANCH  18  21
ENDBRANCH  12  15
ENDBRANCH   1  11
BRANCH   4  25
HETATM   25  C   UNL     1      40.078 -13.756  -0.197  1.00  0.00     0.409 C 
HETATM   26  F   UNL     1      41.008 -12.776  -0.139  1.00  0.00    -0.169 F 
HETATM   27  F   UNL     1      40.509 -14.643  -1.135  1.00  0.00    -0.169 F 
HETATM   28  F   UNL     1      38.934 -13.229  -0.678  1.00  0.00    -0.169 F 
ENDBRANCH   4  25
BRANCH   6  29
HETATM   29  C   UNL     1      42.213 -16.937   2.962  1.00  0.00     0.075 A 
HETATM   30  O   UNL     1      42.881 -16.920   4.152  1.00  0.00    -0.325 OA
HETATM   31  C   UNL     1      43.797 -17.921   4.108  1.00  0.00     0.142 A 
HETATM   32  C   UNL     1      43.728 -18.584   2.905  1.00  0.00     0.027 A 
HETATM   33  C   UNL     1      42.704 -17.948   2.161  1.00  0.00     0.037 A 
ENDBRANCH   6  29
TORSDOF 6
ENDMDL
MODEL 5
REMARK VINA RESULT:      -8.3      1.589      1.996
REMARK  6 active torsions:
REMARK  status: ('A' for Active; 'I' for Inactive)
REMARK    1  A    between atoms: C_2  and  O_3 
REMARK    2  A    between atoms: C_2  and  C_4 
REMARK    3  A    between atoms: C_7  and  N_8 
REMARK       I    between atoms: N_8  and  C_9 
REMARK    4  A    between atoms: C_9  and  C_10 
REMARK    5  A    between atoms: C_13  and  C_14 
REMARK    6  A    between atoms: C_19  and  C_20 
ROOT
HETATM    1  C   UNL     1      41.183 -14.189   3.291  1.00  0.00     0.096 C 
HETATM    2  C   UNL     1      41.929 -15.262   3.743  1.00  0.00     0.138 C 
HETATM    3  N   UNL     1      42.408 -14.891   4.980  1.00  0.00    -0.240 N 
HETATM    4  C   UNL     1      43.280 -15.706   5.806  1.00  0.00     0.221 C 
HETATM    5  C   UNL     1      43.323 -17.155   5.292  1.00  0.00     0.068 C 
HETATM    6  C   UNL     1      43.416 -17.181   3.762  1.00  0.00     0.143 C 
HETATM    7  N   UNL     1      42.245 -16.476   3.206  1.00  0.00    -0.363 N 
HETATM    8  N   UNL     1      42.180 -13.603   5.273  1.00  0.00    -0.181 NA
HETATM    9  C   UNL     1      41.408 -13.187   4.266  1.00  0.00     0.160 C 
HETATM   10  H   UNL     1      42.230 -16.555   2.186  1.00  0.00     0.162 HD
ENDROOT
BRANCH   1  11
HETATM   11  C   UNL     1      40.379 -14.043   2.088  1.00  0.00     0.261 C 
HETATM   12  N   UNL     1      40.343 -12.750   1.600  1.00  0.00    -0.323 N 
HETATM   13  H   UNL     1      40.940 -12.086   2.080  1.00  0.00     0.169 HD
HETATM   14  O   UNL     1      39.848 -15.023   1.581  1.00  0.00    -0.267 OA
BRANCH  12  15
HETATM   15  C   UNL     1      39.685 -12.288   0.442  1.00  0.00     0.035 A 
HETATM   16  C   UNL     1      40.165 -12.474  -0.855  1.00  0.00     0.030 A 
HETATM   17  C   UNL     1      39.466 -11.962  -1.955  1.00  0.00     0.012 A 
HETATM   18  C   UNL     1      38.271 -11.251  -1.782  1.00  0.00    -0.030 A 
HETATM   19  C   UNL     1      37.780 -11.087  -0.480  1.00  0.00     0.012 A 
HETATM   20  C   UNL     1      38.480 -11.599   0.619  1.00  0.00     0.030 A 
BRANCH  18  21
HETATM   21  C   UNL     1      37.537 -10.709  -2.989  1.00  0.00     0.147 C 
HETATM   22  C   UNL     1      36.092 -11.191  -3.030  1.00  0.00     0.044 C 
BRANCH  21  23
HETATM   23  O   UNL     1      37.552  -9.283  -2.977  1.00  0.00    -0.391 OA
HETATM   24  H   UNL     1      38.150  -9.000  -3.689  1.00  0.00     0.210 HD
ENDBRANCH  21  23
ENDBRANCH  18  21
ENDBRANCH  12  15
ENDBRANCH   1  11
BRANCH   4  25
HETATM   25  C   UNL     1      42.845 -15.696   7.256  1.00  0.00     0.409 C 
HETATM   26  F   UNL     1      43.154 -14.536   7.877  1.00  0.00    -0.169 F 
HETATM   27  F   UNL     1      41.491 -15.821   7.323  1.00  0.00    -0.169 F 
HETATM   28  F   UNL     1      43.350 -16.715   7.980  1.00  0.00    -0.169 F 
ENDBRANCH   4  25
BRANCH   6  29
HETATM   29  C   UNL     1      43.545 -18.591   3.284  1.00  0.00     0.075 A 
HETATM   30  O   UNL     1      43.940 -19.511   4.212  1.00  0.00    -0.325 OA
HETATM   31  C   UNL     1      43.977 -20.716   3.588  1.00  0.00     0.142 A 
HETATM   32  C   UNL     1      43.610 -20.586   2.269  1.00  0.00     0.027 A 
HETATM   33  C   UNL     1      43.332 -19.212   2.069  1.00  0.00     0.037 A 
ENDBRANCH   6  29
TORSDOF 6
ENDMDL
MODEL 6
REMARK VINA RESULT:      -8.3     15.066     17.902
REMARK  6 active torsions:
REMARK  status: ('A' for Active; 'I' for Inactive)
REMARK    1  A    between atoms: C_2  and  O_3 
REMARK    2  A    between atoms: C_2  and  C_4 
REMARK    3  A    between atoms: C_7  and  N_8 
REMARK       I    between atoms: N_8  and  C_9 
REMARK    4  A    between atoms: C_9  and  C_10 
REMARK    5  A    between atoms: C_13  and  C_14 
REMARK    6  A    between atoms: C_19  and  C_20 
ROOT
HETATM    1  C   UNL     1      47.186 -28.503   0.596  1.00  0.00     0.096 C 
HETATM    2  C   UNL     1      45.955 -28.973   0.177  1.00  0.00     0.138 C 
HETATM    3  N   UNL     1      45.812 -28.542  -1.124  1.00  0.00    -0.240 N 
HETATM    4  C   UNL     1      44.639 -28.777  -1.947  1.00  0.00     0.221 C 
HETATM    5  C   UNL     1      43.733 -29.848  -1.315  1.00  0.00     0.068 C 
HETATM    6  C   UNL     1      43.617 -29.631   0.199  1.00  0.00     0.143 C 
HETATM    7  N   UNL     1      44.969 -29.692   0.788  1.00  0.00    -0.363 N 
HETATM    8  N   UNL     1      46.767 -27.683  -1.507  1.00  0.00    -0.181 NA
HETATM    9  C   UNL     1      47.618 -27.687  -0.478  1.00  0.00     0.160 C 
HETATM   10  H   UNL     1      44.917 -29.642   1.808  1.00  0.00     0.162 HD
ENDROOT
BRANCH   1  11
HETATM   11  C   UNL     1      47.898 -28.717   1.845  1.00  0.00     0.261 C 
HETATM   12  N   UNL     1      48.476 -29.969   1.945  1.00  0.00    -0.323 N 
HETATM   13  H   UNL     1      48.409 -30.547   1.115  1.00  0.00     0.169 HD
HETATM   14  O   UNL     1      47.978 -27.815   2.670  1.00  0.00    -0.267 OA
BRANCH  12  15
HETATM   15  C   UNL     1      49.255 -30.472   3.006  1.00  0.00     0.035 A 
HETATM   16  C   UNL     1      48.732 -31.169   4.096  1.00  0.00     0.030 A 
HETATM   17  C   UNL     1      49.570 -31.615   5.126  1.00  0.00     0.012 A 
HETATM   18  C   UNL     1      50.949 -31.375   5.089  1.00  0.00    -0.030 A 
HETATM   19  C   UNL     1      51.474 -30.696   3.981  1.00  0.00     0.012 A 
HETATM   20  C   UNL     1      50.636 -30.249   2.953  1.00  0.00     0.030 A 
BRANCH  18  21
HETATM   21  C   UNL     1      51.829 -31.869   6.215  1.00  0.00     0.147 C 
HETATM   22  C   UNL     1      52.599 -33.123   5.818  1.00  0.00     0.044 C 
BRANCH  21  23
HETATM   23  O   UNL     1      52.757 -30.856   6.599  1.00  0.00    -0.391 OA
HETATM   24  H   UNL     1      52.306 -30.002   6.490  1.00  0.00     0.210 HD
ENDBRANCH  21  23
ENDBRANCH  18  21
ENDBRANCH  12  15
ENDBRANCH   1  11
BRANCH   4  25
HETATM   25  C   UNL     1      45.018 -29.200  -3.350  1.00  0.00     0.409 C 
HETATM   26  F   UNL     1      46.037 -30.090  -3.360  1.00  0.00    -0.169 F 
HETATM   27  F   UNL     1      43.959 -29.820  -3.939  1.00  0.00    -0.169 F 
HETATM   28  F   UNL     1      45.345 -28.171  -4.158  1.00  0.00    -0.169 F 
ENDBRANCH   4  25
BRANCH   6  29
HETATM   29  C   UNL     1      42.666 -30.623   0.784  1.00  0.00     0.075 A 
HETATM   30  O   UNL     1      41.590 -30.110   1.450  1.00  0.00    -0.325 OA
HETATM   31  C   UNL     1      40.851 -31.162   1.882  1.00  0.00     0.142 A 
HETATM   32  C   UNL     1      41.434 -32.349   1.503  1.00  0.00     0.027 A 
HETATM   33  C   UNL     1      42.609 -32.002   0.793  1.00  0.00     0.037 A 
ENDBRANCH   6  29
TORSDOF 6
ENDMDL
MODEL 7
REMARK VINA RESULT:      -8.2      2.514      4.438
REMARK  6 active torsions:
REMARK  status: ('A' for Active; 'I' for Inactive)
REMARK    1  A    between atoms: C_2  and  O_3 
REMARK    2  A    between atoms: C_2  and  C_4 
REMARK    3  A    between atoms: C_7  and  N_8 
REMARK       I    between atoms: N_8  and  C_9 
REMARK    4  A    between atoms: C_9  and  C_10 
REMARK    5  A    between atoms: C_13  and  C_14 
REMARK    6  A    between atoms: C_19  and  C_20 
ROOT
HETATM    1  C   UNL     1      41.538 -14.407   3.415  1.00  0.00     0.096 C 
HETATM    2  C   UNL     1      42.336 -14.233   4.532  1.00  0.00     0.138 C 
HETATM    3  N   UNL     1      42.352 -15.451   5.174  1.00  0.00    -0.240 N 
HETATM    4  C   UNL     1      43.039 -15.714   6.426  1.00  0.00     0.221 C 
HETATM    5  C   UNL     1      44.019 -14.577   6.761  1.00  0.00     0.068 C 
HETATM    6  C   UNL     1      43.381 -13.213   6.471  1.00  0.00     0.143 C 
HETATM    7  N   UNL     1      43.008 -13.162   5.045  1.00  0.00    -0.363 N 
HETATM    8  N   UNL     1      41.485 -16.335   4.660  1.00  0.00    -0.181 NA
HETATM    9  C   UNL     1      41.018 -15.715   3.573  1.00  0.00     0.160 C 
HETATM   10  H   UNL     1      42.663 -12.231   4.798  1.00  0.00     0.162 HD
ENDROOT
BRANCH   1  11
HETATM   11  C   UNL     1      41.228 -13.492   2.329  1.00  0.00     0.261 C 
HETATM   12  N   UNL     1      40.075 -13.821   1.640  1.00  0.00    -0.323 N 
HETATM   13  H   UNL     1      39.547 -14.597   2.021  1.00  0.00     0.169 HD
HETATM   14  O   UNL     1      41.938 -12.515   2.126  1.00  0.00    -0.267 OA
BRANCH  12  15
HETATM   15  C   UNL     1      39.489 -13.122   0.565  1.00  0.00     0.035 A 
HETATM   16  C   UNL     1      38.870 -11.878   0.688  1.00  0.00     0.030 A 
HETATM   17  C   UNL     1      38.287 -11.259  -0.425  1.00  0.00     0.012 A 
HETATM   18  C   UNL     1      38.309 -11.869  -1.684  1.00  0.00    -0.030 A 
HETATM   19  C   UNL     1      38.953 -13.108  -1.809  1.00  0.00     0.012 A 
HETATM   20  C   UNL     1      39.535 -13.727  -0.696  1.00  0.00     0.030 A 
BRANCH  18  21
HETATM   21  C   UNL     1      37.672 -11.177  -2.868  1.00  0.00     0.147 C 
HETATM   22  C   UNL     1      36.668 -10.120  -2.426  1.00  0.00     0.044 C 
BRANCH  21  23
HETATM   23  O   UNL     1      38.671 -10.559  -3.677  1.00  0.00    -0.391 OA
HETATM   24  H   UNL     1      38.566 -10.912  -4.576  1.00  0.00     0.210 HD
ENDBRANCH  21  23
ENDBRANCH  18  21
ENDBRANCH  12  15
ENDBRANCH   1  11
BRANCH   4  25
HETATM   25  C   UNL     1      43.787 -17.030   6.385  1.00  0.00     0.409 C 
HETATM   26  F   UNL     1      44.373 -17.249   5.186  1.00  0.00    -0.169 F 
HETATM   27  F   UNL     1      44.789 -17.011   7.306  1.00  0.00    -0.169 F 
HETATM   28  F   UNL     1      43.022 -18.098   6.686  1.00  0.00    -0.169 F 
ENDBRANCH   4  25
BRANCH   6  29
HETATM   29  C   UNL     1      44.311 -12.118   6.884  1.00  0.00     0.075 A 
HETATM   30  O   UNL     1      44.204 -11.689   8.175  1.00  0.00    -0.325 OA
HETATM   31  C   UNL     1      45.135 -10.717   8.350  1.00  0.00     0.142 A 
HETATM   32  C   UNL     1      45.844 -10.515   7.189  1.00  0.00     0.027 A 
HETATM   33  C   UNL     1      45.311 -11.419   6.238  1.00  0.00     0.037 A 
ENDBRANCH   6  29
TORSDOF 6
ENDMDL
MODEL 8
REMARK VINA RESULT:      -8.1      3.931      5.813
REMARK  6 active torsions:
REMARK  status: ('A' for Active; 'I' for Inactive)
REMARK    1  A    between atoms: C_2  and  O_3 
REMARK    2  A    between atoms: C_2  and  C_4 
REMARK    3  A    between atoms: C_7  and  N_8 
REMARK       I    between atoms: N_8  and  C_9 
REMARK    4  A    between atoms: C_9  and  C_10 
REMARK    5  A    between atoms: C_13  and  C_14 
REMARK    6  A    between atoms: C_19  and  C_20 
ROOT
HETATM    1  C   UNL     1      40.735 -13.224   0.668  1.00  0.00     0.096 C 
HETATM    2  C   UNL     1      41.448 -13.564   1.803  1.00  0.00     0.138 C 
HETATM    3  N   UNL     1      41.401 -14.939   1.877  1.00  0.00    -0.240 N 
HETATM    4  C   UNL     1      41.989 -15.728   2.945  1.00  0.00     0.221 C 
HETATM    5  C   UNL     1      42.955 -14.877   3.785  1.00  0.00     0.068 C 
HETATM    6  C   UNL     1      42.358 -13.490   4.053  1.00  0.00     0.143 C 
HETATM    7  N   UNL     1      42.093 -12.834   2.758  1.00  0.00    -0.363 N 
HETATM    8  N   UNL     1      40.564 -15.491   0.988  1.00  0.00    -0.181 NA
HETATM    9  C   UNL     1      40.188 -14.456   0.232  1.00  0.00     0.160 C 
HETATM   10  H   UNL     1      41.780 -11.871   2.902  1.00  0.00     0.162 HD
ENDROOT
BRANCH   1  11
HETATM   11  C   UNL     1      40.519 -11.927   0.047  1.00  0.00     0.261 C 
HETATM   12  N   UNL     1      41.354 -11.682  -1.026  1.00  0.00    -0.323 N 
HETATM   13  H   UNL     1      41.948 -12.455  -1.302  1.00  0.00     0.169 HD
HETATM   14  O   UNL     1      39.632 -11.189   0.458  1.00  0.00    -0.267 OA
BRANCH  12  15
HETATM   15  C   UNL     1      41.375 -10.541  -1.854  1.00  0.00     0.035 A 
HETATM   16  C   UNL     1      40.755 -10.472  -3.103  1.00  0.00     0.030 A 
HETATM   17  C   UNL     1      40.842  -9.309  -3.879  1.00  0.00     0.012 A 
HETATM   18  C   UNL     1      41.552  -8.191  -3.425  1.00  0.00    -0.030 A 
HETATM   19  C   UNL     1      42.153  -8.256  -2.161  1.00  0.00     0.012 A 
HETATM   20  C   UNL     1      42.066  -9.418  -1.385  1.00  0.00     0.030 A 
BRANCH  18  21
HETATM   21  C   UNL     1      41.629  -6.949  -4.285  1.00  0.00     0.147 C 
HETATM   22  C   UNL     1      43.021  -6.760  -4.874  1.00  0.00     0.044 C 
BRANCH  21  23
HETATM   23  O   UNL     1      40.681  -7.023  -5.348  1.00  0.00    -0.391 OA
HETATM   24  H   UNL     1      39.828  -6.729  -4.987  1.00  0.00     0.210 HD
ENDBRANCH  21  23
ENDBRANCH  18  21
ENDBRANCH  12  15
ENDBRANCH   1  11
BRANCH   4  25
HETATM   25  C   UNL     1      42.721 -16.939   2.404  1.00  0.00     0.409 C 
HETATM   26  F   UNL     1      43.347 -16.679   1.234  1.00  0.00    -0.169 F 
HETATM   27  F   UNL     1      43.689 -17.314   3.285  1.00  0.00    -0.169 F 
HETATM   28  F   UNL     1      41.932 -18.018   2.234  1.00  0.00    -0.169 F 
ENDBRANCH   4  25
BRANCH   6  29
HETATM   29  C   UNL     1      43.268 -12.707   4.943  1.00  0.00     0.075 A 
HETATM   30  O   UNL     1      43.467 -13.210   6.197  1.00  0.00    -0.325 OA
HETATM   31  C   UNL     1      44.327 -12.371   6.830  1.00  0.00     0.142 A 
HETATM   32  C   UNL     1      44.687 -11.335   6.000  1.00  0.00     0.027 A 
HETATM   33  C   UNL     1      44.002 -11.550   4.779  1.00  0.00     0.037 A 
ENDBRANCH   6  29
TORSDOF 6
ENDMDL
MODEL 9
REMARK VINA RESULT:      -8.0      2.818      4.871
REMARK  6 active torsions:
REMARK  status: ('A' for Active; 'I' for Inactive)
REMARK    1  A    between atoms: C_2  and  O_3 
REMARK    2  A    between atoms: C_2  and  C_4 
REMARK    3  A    between atoms: C_7  and  N_8 
REMARK       I    between atoms: N_8  and  C_9 
REMARK    4  A    between atoms: C_9  and  C_10 
REMARK    5  A    between atoms: C_13  and  C_14 
REMARK    6  A    between atoms: C_19  and  C_20 
ROOT
HETATM    1  C   UNL     1      40.352 -14.442   1.535  1.00  0.00     0.096 C 
HETATM    2  C   UNL     1      41.239 -14.591   2.587  1.00  0.00     0.138 C 
HETATM    3  N   UNL     1      41.480 -15.944   2.684  1.00  0.00    -0.240 N 
HETATM    4  C   UNL     1      42.328 -16.560   3.688  1.00  0.00     0.221 C 
HETATM    5  C   UNL     1      43.187 -15.503   4.403  1.00  0.00     0.068 C 
HETATM    6  C   UNL     1      42.353 -14.255   4.718  1.00  0.00     0.143 C 
HETATM    7  N   UNL     1      41.821 -13.712   3.453  1.00  0.00    -0.363 N 
HETATM    8  N   UNL     1      40.682 -16.684   1.902  1.00  0.00    -0.181 NA
HETATM    9  C   UNL     1      40.023 -15.773   1.180  1.00  0.00     0.160 C 
HETATM   10  H   UNL     1      41.336 -12.827   3.618  1.00  0.00     0.162 HD
ENDROOT
BRANCH   1  11
HETATM   11  C   UNL     1      39.811 -13.238   0.926  1.00  0.00     0.261 C 
HETATM   12  N   UNL     1      39.616 -13.348  -0.438  1.00  0.00    -0.323 N 
HETATM   13  H   UNL     1      39.789 -14.266  -0.830  1.00  0.00     0.169 HD
HETATM   14  O   UNL     1      39.534 -12.268   1.621  1.00  0.00    -0.267 OA
BRANCH  12  15
HETATM   15  C   UNL     1      39.079 -12.378  -1.309  1.00  0.00     0.035 A 
HETATM   16  C   UNL     1      39.795 -11.282  -1.791  1.00  0.00     0.030 A 
HETATM   17  C   UNL     1      39.183 -10.345  -2.634  1.00  0.00     0.012 A 
HETATM   18  C   UNL     1      37.842 -10.484  -3.013  1.00  0.00    -0.030 A 
HETATM   19  C   UNL     1      37.134 -11.599  -2.546  1.00  0.00     0.012 A 
HETATM   20  C   UNL     1      37.746 -12.534  -1.703  1.00  0.00     0.030 A 
BRANCH  18  21
HETATM   21  C   UNL     1      37.208  -9.457  -3.925  1.00  0.00     0.147 C 
HETATM   22  C   UNL     1      38.208  -8.909  -4.935  1.00  0.00     0.044 C 
BRANCH  21  23
HETATM   23  O   UNL     1      36.107 -10.033  -4.627  1.00  0.00    -0.391 OA
HETATM   24  H   UNL     1      36.181  -9.748  -5.553  1.00  0.00     0.210 HD
ENDBRANCH  21  23
ENDBRANCH  18  21
ENDBRANCH  12  15
ENDBRANCH   1  11
BRANCH   4  25
HETATM   25  C   UNL     1      43.228 -17.618   3.084  1.00  0.00     0.409 C 
HETATM   26  F   UNL     1      42.543 -18.720   2.706  1.00  0.00    -0.169 F 
HETATM   27  F   UNL     1      43.816 -17.125   1.959  1.00  0.00    -0.169 F 
HETATM   28  F   UNL     1      44.235 -18.000   3.895  1.00  0.00    -0.169 F 
ENDBRANCH   4  25
BRANCH   6  29
HETATM   29  C   UNL     1      43.175 -13.274   5.489  1.00  0.00     0.075 A 
HETATM   30  O   UNL     1      43.396 -12.068   4.890  1.00  0.00    -0.325 OA
HETATM   31  C   UNL     1      44.138 -11.326   5.752  1.00  0.00     0.142 A 
HETATM   32  C   UNL     1      44.397 -12.038   6.900  1.00  0.00     0.027 A 
HETATM   33  C   UNL     1      43.776 -13.299   6.731  1.00  0.00     0.037 A 
ENDBRANCH   6  29
TORSDOF 6
ENDMDL
MODEL 10
REMARK VINA RESULT:      -7.9      6.369      8.490
REMARK  6 active torsions:
REMARK  status: ('A' for Active; 'I' for Inactive)
REMARK    1  A    between atoms: C_2  and  O_3 
REMARK    2  A    between atoms: C_2  and  C_4 
REMARK    3  A    between atoms: C_7  and  N_8 
REMARK       I    between atoms: N_8  and  C_9 
REMARK    4  A    between atoms: C_9  and  C_10 
REMARK    5  A    between atoms: C_13  and  C_14 
REMARK    6  A    between atoms: C_19  and  C_20 
ROOT
HETATM    1  C   UNL     1      40.503 -10.584  -0.959  1.00  0.00     0.096 C 
HETATM    2  C   UNL     1      40.378 -11.924  -0.640  1.00  0.00     0.138 C 
HETATM    3  N   UNL     1      39.305 -12.384  -1.371  1.00  0.00    -0.240 N 
HETATM    4  C   UNL     1      38.786 -13.739  -1.312  1.00  0.00     0.221 C 
HETATM    5  C   UNL     1      39.782 -14.675  -0.606  1.00  0.00     0.068 C 
HETATM    6  C   UNL     1      40.379 -13.993   0.631  1.00  0.00     0.143 C 
HETATM    7  N   UNL     1      41.056 -12.754   0.204  1.00  0.00    -0.363 N 
HETATM    8  N   UNL     1      38.624 -11.408  -1.989  1.00  0.00    -0.181 NA
HETATM    9  C   UNL     1      39.371 -10.323  -1.769  1.00  0.00     0.160 C 
HETATM   10  H   UNL     1      41.544 -12.322   0.993  1.00  0.00     0.162 HD
ENDROOT
BRANCH   1  11
HETATM   11  C   UNL     1      41.506  -9.612  -0.555  1.00  0.00     0.261 C 
HETATM   12  N   UNL     1      41.541  -8.487  -1.359  1.00  0.00    -0.323 N 
HETATM   13  H   UNL     1      40.821  -8.436  -2.069  1.00  0.00     0.169 HD
HETATM   14  O   UNL     1      42.190  -9.811   0.441  1.00  0.00    -0.267 OA
BRANCH  12  15
HETATM   15  C   UNL     1      42.370  -7.356  -1.215  1.00  0.00     0.035 A 
HETATM   16  C   UNL     1      43.545  -7.153  -1.940  1.00  0.00     0.030 A 
HETATM   17  C   UNL     1      44.330  -6.014  -1.722  1.00  0.00     0.012 A 
HETATM   18  C   UNL     1      43.958  -5.053  -0.774  1.00  0.00    -0.030 A 
HETATM   19  C   UNL     1      42.765  -5.249  -0.065  1.00  0.00     0.012 A 
HETATM   20  C   UNL     1      41.982  -6.388  -0.283  1.00  0.00     0.030 A 
BRANCH  18  21
HETATM   21  C   UNL     1      44.825  -3.832  -0.559  1.00  0.00     0.147 C 
HETATM   22  C   UNL     1      44.111  -2.555  -0.985  1.00  0.00     0.044 C 
BRANCH  21  23
HETATM   23  O   UNL     1      45.194  -3.722   0.814  1.00  0.00    -0.391 OA
HETATM   24  H   UNL     1      46.129  -3.979   0.878  1.00  0.00     0.210 HD
ENDBRANCH  21  23
ENDBRANCH  18  21
ENDBRANCH  12  15
ENDBRANCH   1  11
BRANCH   4  25
HETATM   25  C   UNL     1      38.478 -14.279  -2.693  1.00  0.00     0.409 C 
HETATM   26  F   UNL     1      39.382 -13.877  -3.615  1.00  0.00    -0.169 F 
HETATM   27  F   UNL     1      38.529 -15.639  -2.670  1.00  0.00    -0.169 F 
HETATM   28  F   UNL     1      37.246 -13.958  -3.138  1.00  0.00    -0.169 F 
ENDBRANCH   4  25
BRANCH   6  29
HETATM   29  C   UNL     1      41.275 -14.945   1.354  1.00  0.00     0.075 A 
HETATM   30  O   UNL     1      42.584 -14.575   1.468  1.00  0.00    -0.325 OA
HETATM   31  C   UNL     1      43.216 -15.554   2.164  1.00  0.00     0.142 A 
HETATM   32  C   UNL     1      42.330 -16.550   2.503  1.00  0.00     0.027 A 
HETATM   33  C   UNL     1      41.074 -16.159   1.979  1.00  0.00     0.037 A 
ENDBRANCH   6  29
TORSDOF 6
ENDMDL
