MODEL 1
REMARK VINA RESULT:      -8.6      0.000      0.000
REMARK  6 active torsions:
REMARK  status: ('A' for Active; 'I' for Inactive)
REMARK       I    between atoms: N_2  and  C_3 
REMARK    1  A    between atoms: N_2  and  C_19 
REMARK       I    between atoms: C_3  and  N_4 
REMARK    2  A    between atoms: N_4  and  C_5 
REMARK    3  A    between atoms: C_12  and  C_13 
REMARK       I    between atoms: C_13  and  N_14 
REMARK    4  A    between atoms: C_19  and  C_20 
REMARK    5  A    between atoms: C_20  and  O_21 
REMARK    6  A    between atoms: O_21  and  C_22 
ROOT
HETATM    1  C   UNL     1      43.595 -12.889   6.760  1.00  0.00     0.154 C 
HETATM    2  N   UNL     1      43.298 -14.021   5.895  1.00  0.00    -0.336 N 
HETATM    3  C   UNL     1      42.606 -13.718   4.714  1.00  0.00     0.322 C 
HETATM    4  N   UNL     1      42.459 -14.786   3.859  1.00  0.00    -0.309 N 
HETATM    5  O   UNL     1      42.220 -12.576   4.473  1.00  0.00    -0.247 OA
HETATM    6  H   UNL     1      43.169 -15.495   3.943  1.00  0.00     0.170 HD
ENDROOT
BRANCH   4   7
HETATM    7  C   UNL     1      41.642 -14.849   2.711  1.00  0.00     0.037 A 
HETATM    8  C   UNL     1      41.677 -13.883   1.696  1.00  0.00     0.046 A 
HETATM    9  C   UNL     1      40.794 -13.991   0.600  1.00  0.00     0.030 A 
HETATM   10  C   UNL     1      39.924 -15.073   0.545  1.00  0.00     0.063 A 
HETATM   11  C   UNL     1      40.506 -13.225  -0.569  1.00  0.00     0.156 A 
HETATM   12  N   UNL     1      39.227 -14.918  -0.620  1.00  0.00    -0.277 N 
HETATM   13  C   UNL     1      39.863 -16.053   1.539  1.00  0.00     0.034 A 
HETATM   14  H   UNL     1      38.509 -15.529  -0.991  1.00  0.00     0.189 HD
HETATM   15  N   UNL     1      39.547 -13.816  -1.319  1.00  0.00    -0.168 NA
HETATM   16  C   UNL     1      40.731 -15.909   2.629  1.00  0.00     0.032 A 
BRANCH  11  17
HETATM   17  C   UNL     1      41.111 -11.948  -0.973  1.00  0.00     0.270 C 
HETATM   18  N   UNL     1      41.565 -11.929  -2.264  1.00  0.00    -0.365 N 
HETATM   19  H   UNL     1      41.429 -12.755  -2.836  1.00  0.00     0.159 HD
HETATM   20  H   UNL     1      41.959 -11.083  -2.643  1.00  0.00     0.159 HD
HETATM   21  O   UNL     1      41.202 -10.958  -0.255  1.00  0.00    -0.266 OA
ENDBRANCH  11  17
ENDBRANCH   4   7
BRANCH   2  22
HETATM   22  C   UNL     1      43.204 -15.335   6.556  1.00  0.00     0.153 C 
BRANCH  22  23
HETATM   23  C   UNL     1      44.401 -16.254   6.265  1.00  0.00     0.195 C 
BRANCH  23  24
HETATM   24  O   UNL     1      44.007 -17.617   6.475  1.00  0.00    -0.350 OA
BRANCH  24  25
HETATM   25  C   UNL     1      43.958 -18.308   5.298  1.00  0.00     0.068 A 
HETATM   26  C   UNL     1      44.013 -19.699   5.354  1.00  0.00     0.038 A 
HETATM   27  C   UNL     1      43.937 -20.446   4.178  1.00  0.00     0.026 A 
HETATM   28  C   UNL     1      43.791 -19.792   2.956  1.00  0.00     0.034 A 
HETATM   29 CL   UNL     1      43.695 -20.707   1.502  1.00  0.00    -0.084 Cl
HETATM   30  C   UNL     1      43.715 -18.398   2.902  1.00  0.00     0.026 A 
HETATM   31  C   UNL     1      43.794 -17.651   4.078  1.00  0.00     0.038 A 
ENDBRANCH  24  25
ENDBRANCH  23  24
ENDBRANCH  22  23
ENDBRANCH   2  22
TORSDOF 6
ENDMDL
MODEL 2
REMARK VINA RESULT:      -8.6      3.947      6.423
REMARK  6 active torsions:
REMARK  status: ('A' for Active; 'I' for Inactive)
REMARK       I    between atoms: N_2  and  C_3 
REMARK    1  A    between atoms: N_2  and  C_19 
REMARK       I    between atoms: C_3  and  N_4 
REMARK    2  A    between atoms: N_4  and  C_5 
REMARK    3  A    between atoms: C_12  and  C_13 
REMARK       I    between atoms: C_13  and  N_14 
REMARK    4  A    between atoms: C_19  and  C_20 
REMARK    5  A    between atoms: C_20  and  O_21 
REMARK    6  A    between atoms: O_21  and  C_22 
ROOT
HETATM    1  C   UNL     1      43.846 -20.037   5.682  1.00  0.00     0.154 C 
HETATM    2  N   UNL     1      44.099 -18.730   5.093  1.00  0.00    -0.336 N 
HETATM    3  C   UNL     1      43.543 -17.639   5.775  1.00  0.00     0.322 C 
HETATM    4  N   UNL     1      43.911 -16.414   5.268  1.00  0.00    -0.309 N 
HETATM    5  O   UNL     1      42.831 -17.797   6.765  1.00  0.00    -0.247 OA
HETATM    6  H   UNL     1      44.797 -16.402   4.793  1.00  0.00     0.170 HD
ENDROOT
BRANCH   4   7
HETATM    7  C   UNL     1      43.359 -15.158   5.599  1.00  0.00     0.037 A 
HETATM    8  C   UNL     1      44.123 -14.099   6.107  1.00  0.00     0.046 A 
HETATM    9  C   UNL     1      43.489 -12.887   6.457  1.00  0.00     0.030 A 
HETATM   10  C   UNL     1      42.119 -12.769   6.266  1.00  0.00     0.063 A 
HETATM   11  C   UNL     1      43.895 -11.639   7.017  1.00  0.00     0.156 A 
HETATM   12  N   UNL     1      41.806 -11.501   6.669  1.00  0.00    -0.277 N 
HETATM   13  C   UNL     1      41.327 -13.804   5.764  1.00  0.00     0.034 A 
HETATM   14  H   UNL     1      40.892 -11.063   6.661  1.00  0.00     0.189 HD
HETATM   15  N   UNL     1      42.848 -10.789   7.129  1.00  0.00    -0.168 NA
HETATM   16  C   UNL     1      41.976 -15.005   5.448  1.00  0.00     0.032 A 
BRANCH  11  17
HETATM   17  C   UNL     1      45.243 -11.250   7.456  1.00  0.00     0.270 C 
HETATM   18  N   UNL     1      46.149 -11.131   6.437  1.00  0.00    -0.365 N 
HETATM   19  H   UNL     1      45.830 -11.281   5.486  1.00  0.00     0.159 HD
HETATM   20  H   UNL     1      47.088 -10.829   6.637  1.00  0.00     0.159 HD
HETATM   21  O   UNL     1      45.563 -11.026   8.618  1.00  0.00    -0.266 OA
ENDBRANCH  11  17
ENDBRANCH   4   7
BRANCH   2  22
HETATM   22  C   UNL     1      44.358 -18.712   3.642  1.00  0.00     0.153 C 
BRANCH  22  23
HETATM   23  C   UNL     1      43.163 -18.216   2.813  1.00  0.00     0.195 C 
BRANCH  23  24
HETATM   24  O   UNL     1      43.576 -17.096   2.020  1.00  0.00    -0.350 OA
BRANCH  24  25
HETATM   25  C   UNL     1      42.622 -16.119   2.001  1.00  0.00     0.068 A 
HETATM   26  C   UNL     1      41.293 -16.502   2.173  1.00  0.00     0.038 A 
HETATM   27  C   UNL     1      40.288 -15.533   2.190  1.00  0.00     0.026 A 
HETATM   28  C   UNL     1      40.626 -14.188   2.050  1.00  0.00     0.034 A 
HETATM   29 CL   UNL     1      39.392 -12.990   2.071  1.00  0.00    -0.084 Cl
HETATM   30  C   UNL     1      41.960 -13.804   1.898  1.00  0.00     0.026 A 
HETATM   31  C   UNL     1      42.965 -14.773   1.879  1.00  0.00     0.038 A 
ENDBRANCH  24  25
ENDBRANCH  23  24
ENDBRANCH  22  23
ENDBRANCH   2  22
TORSDOF 6
ENDMDL
MODEL 3
REMARK VINA RESULT:      -8.4      1.813      2.247
REMARK  6 active torsions:
REMARK  status: ('A' for Active; 'I' for Inactive)
REMARK       I    between atoms: N_2  and  C_3 
REMARK    1  A    between atoms: N_2  and  C_19 
REMARK       I    between atoms: C_3  and  N_4 
REMARK    2  A    between atoms: N_4  and  C_5 
REMARK    3  A    between atoms: C_12  and  C_13 
REMARK       I    between atoms: C_13  and  N_14 
REMARK    4  A    between atoms: C_19  and  C_20 
REMARK    5  A    between atoms: C_20  and  O_21 
REMARK    6  A    between atoms: O_21  and  C_22 
ROOT
HETATM    1  C   UNL     1      40.852 -12.106   5.724  1.00  0.00     0.154 C 
HETATM    2  N   UNL     1      41.502 -12.625   4.529  1.00  0.00    -0.336 N 
HETATM    3  C   UNL     1      40.686 -12.739   3.395  1.00  0.00     0.322 C 
HETATM    4  N   UNL     1      41.360 -13.105   2.253  1.00  0.00    -0.309 N 
HETATM    5  O   UNL     1      39.485 -12.482   3.441  1.00  0.00    -0.247 OA
HETATM    6  H   UNL     1      42.333 -12.849   2.237  1.00  0.00     0.170 HD
ENDROOT
BRANCH   4   7
HETATM    7  C   UNL     1      40.795 -13.500   1.023  1.00  0.00     0.037 A 
HETATM    8  C   UNL     1      40.670 -12.635  -0.073  1.00  0.00     0.046 A 
HETATM    9  C   UNL     1      40.050 -13.093  -1.256  1.00  0.00     0.030 A 
HETATM   10  C   UNL     1      39.596 -14.405  -1.310  1.00  0.00     0.063 A 
HETATM   11  C   UNL     1      39.713 -12.532  -2.524  1.00  0.00     0.156 A 
HETATM   12  N   UNL     1      39.074 -14.556  -2.563  1.00  0.00    -0.277 N 
HETATM   13  C   UNL     1      39.703 -15.293  -0.237  1.00  0.00     0.034 A 
HETATM   14  H   UNL     1      38.659 -15.392  -2.958  1.00  0.00     0.189 HD
HETATM   15  N   UNL     1      39.124 -13.450  -3.325  1.00  0.00    -0.168 NA
HETATM   16  C   UNL     1      40.299 -14.807   0.934  1.00  0.00     0.032 A 
BRANCH  11  17
HETATM   17  C   UNL     1      39.926 -11.150  -2.976  1.00  0.00     0.270 C 
HETATM   18  N   UNL     1      38.825 -10.576  -3.553  1.00  0.00    -0.365 N 
HETATM   19  H   UNL     1      37.966 -11.113  -3.596  1.00  0.00     0.159 HD
HETATM   20  H   UNL     1      38.864  -9.617  -3.858  1.00  0.00     0.159 HD
HETATM   21  O   UNL     1      40.974 -10.526  -2.851  1.00  0.00    -0.266 OA
ENDBRANCH  11  17
ENDBRANCH   4   7
BRANCH   2  22
HETATM   22  C   UNL     1      42.677 -13.486   4.753  1.00  0.00     0.153 C 
BRANCH  22  23
HETATM   23  C   UNL     1      42.316 -14.946   5.066  1.00  0.00     0.195 C 
BRANCH  23  24
HETATM   24  O   UNL     1      43.522 -15.700   5.243  1.00  0.00    -0.350 OA
BRANCH  24  25
HETATM   25  C   UNL     1      43.569 -16.771   4.397  1.00  0.00     0.068 A 
HETATM   26  C   UNL     1      44.268 -17.902   4.813  1.00  0.00     0.038 A 
HETATM   27  C   UNL     1      44.316 -19.031   3.992  1.00  0.00     0.026 A 
HETATM   28  C   UNL     1      43.650 -19.020   2.769  1.00  0.00     0.034 A 
HETATM   29 CL   UNL     1      43.705 -20.408   1.754  1.00  0.00    -0.084 Cl
HETATM   30  C   UNL     1      42.932 -17.894   2.361  1.00  0.00     0.026 A 
HETATM   31  C   UNL     1      42.886 -16.765   3.181  1.00  0.00     0.038 A 
ENDBRANCH  24  25
ENDBRANCH  23  24
ENDBRANCH  22  23
ENDBRANCH   2  22
TORSDOF 6
ENDMDL
MODEL 4
REMARK VINA RESULT:      -8.2      3.077      7.081
REMARK  6 active torsions:
REMARK  status: ('A' for Active; 'I' for Inactive)
REMARK       I    between atoms: N_2  and  C_3 
REMARK    1  A    between atoms: N_2  and  C_19 
REMARK       I    between atoms: C_3  and  N_4 
REMARK    2  A    between atoms: N_4  and  C_5 
REMARK    3  A    between atoms: C_12  and  C_13 
REMARK       I    between atoms: C_13  and  N_14 
REMARK    4  A    between atoms: C_19  and  C_20 
REMARK    5  A    between atoms: C_20  and  O_21 
REMARK    6  A    between atoms: O_21  and  C_22 
ROOT
HETATM    1  C   UNL     1      39.287 -13.662  -0.578  1.00  0.00     0.154 C 
HETATM    2  N   UNL     1      40.594 -13.800   0.049  1.00  0.00    -0.336 N 
HETATM    3  C   UNL     1      40.769 -14.942   0.842  1.00  0.00     0.322 C 
HETATM    4  N   UNL     1      42.053 -15.108   1.311  1.00  0.00    -0.309 N 
HETATM    5  O   UNL     1      39.848 -15.730   1.043  1.00  0.00    -0.247 OA
HETATM    6  H   UNL     1      42.768 -14.690   0.740  1.00  0.00     0.170 HD
ENDROOT
BRANCH   4   7
HETATM    7  C   UNL     1      42.487 -16.028   2.288  1.00  0.00     0.037 A 
HETATM    8  C   UNL     1      42.232 -15.865   3.657  1.00  0.00     0.046 A 
HETATM    9  C   UNL     1      42.741 -16.806   4.578  1.00  0.00     0.030 A 
HETATM   10  C   UNL     1      43.467 -17.888   4.097  1.00  0.00     0.063 A 
HETATM   11  C   UNL     1      42.732 -16.966   5.995  1.00  0.00     0.156 A 
HETATM   12  N   UNL     1      43.800 -18.619   5.202  1.00  0.00    -0.277 N 
HETATM   13  C   UNL     1      43.740 -18.082   2.741  1.00  0.00     0.034 A 
HETATM   14  H   UNL     1      44.325 -19.486   5.229  1.00  0.00     0.189 HD
HETATM   15  N   UNL     1      43.377 -18.096   6.365  1.00  0.00    -0.168 NA
HETATM   16  C   UNL     1      43.246 -17.120   1.850  1.00  0.00     0.032 A 
BRANCH  11  17
HETATM   17  C   UNL     1      42.139 -16.065   6.994  1.00  0.00     0.270 C 
HETATM   18  N   UNL     1      40.805 -15.826   6.808  1.00  0.00    -0.365 N 
HETATM   19  H   UNL     1      40.332 -16.294   6.043  1.00  0.00     0.159 HD
HETATM   20  H   UNL     1      40.303 -15.252   7.466  1.00  0.00     0.159 HD
HETATM   21  O   UNL     1      42.747 -15.566   7.935  1.00  0.00    -0.266 OA
ENDBRANCH  11  17
ENDBRANCH   4   7
BRANCH   2  22
HETATM   22  C   UNL     1      41.335 -12.547   0.284  1.00  0.00     0.153 C 
BRANCH  22  23
HETATM   23  C   UNL     1      40.786 -11.723   1.459  1.00  0.00     0.195 C 
BRANCH  23  24
HETATM   24  O   UNL     1      40.709 -12.558   2.622  1.00  0.00    -0.350 OA
BRANCH  24  25
HETATM   25  C   UNL     1      41.724 -12.292   3.495  1.00  0.00     0.068 A 
HETATM   26  C   UNL     1      41.513 -12.565   4.845  1.00  0.00     0.038 A 
HETATM   27  C   UNL     1      42.535 -12.335   5.768  1.00  0.00     0.026 A 
HETATM   28  C   UNL     1      43.764 -11.850   5.327  1.00  0.00     0.034 A 
HETATM   29 CL   UNL     1      45.028 -11.566   6.460  1.00  0.00    -0.084 Cl
HETATM   30  C   UNL     1      43.982 -11.596   3.971  1.00  0.00     0.026 A 
HETATM   31  C   UNL     1      42.960 -11.823   3.048  1.00  0.00     0.038 A 
ENDBRANCH  24  25
ENDBRANCH  23  24
ENDBRANCH  22  23
ENDBRANCH   2  22
TORSDOF 6
ENDMDL
MODEL 5
REMARK VINA RESULT:      -8.2      6.010      8.930
REMARK  6 active torsions:
REMARK  status: ('A' for Active; 'I' for Inactive)
REMARK       I    between atoms: N_2  and  C_3 
REMARK    1  A    between atoms: N_2  and  C_19 
REMARK       I    between atoms: C_3  and  N_4 
REMARK    2  A    between atoms: N_4  and  C_5 
REMARK    3  A    between atoms: C_12  and  C_13 
REMARK       I    between atoms: C_13  and  N_14 
REMARK    4  A    between atoms: C_19  and  C_20 
REMARK    5  A    between atoms: C_20  and  O_21 
REMARK    6  A    between atoms: O_21  and  C_22 
ROOT
HETATM    1  C   UNL     1      45.875  -9.835   8.136  1.00  0.00     0.154 C 
HETATM    2  N   UNL     1      44.736 -10.735   8.241  1.00  0.00    -0.336 N 
HETATM    3  C   UNL     1      44.657 -11.732   7.258  1.00  0.00     0.322 C 
HETATM    4  N   UNL     1      43.646 -12.642   7.463  1.00  0.00    -0.309 N 
HETATM    5  O   UNL     1      45.464 -11.786   6.334  1.00  0.00    -0.247 OA
HETATM    6  H   UNL     1      43.372 -12.760   8.424  1.00  0.00     0.170 HD
ENDROOT
BRANCH   4   7
HETATM    7  C   UNL     1      43.186 -13.619   6.555  1.00  0.00     0.037 A 
HETATM    8  C   UNL     1      42.284 -13.335   5.520  1.00  0.00     0.046 A 
HETATM    9  C   UNL     1      41.836 -14.378   4.680  1.00  0.00     0.030 A 
HETATM   10  C   UNL     1      42.321 -15.662   4.890  1.00  0.00     0.063 A 
HETATM   11  C   UNL     1      40.929 -14.497   3.585  1.00  0.00     0.156 A 
HETATM   12  N   UNL     1      41.733 -16.432   3.926  1.00  0.00    -0.277 N 
HETATM   13  C   UNL     1      43.219 -15.981   5.911  1.00  0.00     0.034 A 
HETATM   14  H   UNL     1      41.863 -17.425   3.771  1.00  0.00     0.189 HD
HETATM   15  N   UNL     1      40.886 -15.768   3.121  1.00  0.00    -0.168 NA
HETATM   16  C   UNL     1      43.629 -14.933   6.747  1.00  0.00     0.032 A 
BRANCH  11  17
HETATM   17  C   UNL     1      40.102 -13.440   2.987  1.00  0.00     0.270 C 
HETATM   18  N   UNL     1      38.816 -13.823   2.718  1.00  0.00    -0.365 N 
HETATM   19  H   UNL     1      38.528 -14.762   2.970  1.00  0.00     0.159 HD
HETATM   20  H   UNL     1      38.163 -13.154   2.345  1.00  0.00     0.159 HD
HETATM   21  O   UNL     1      40.486 -12.300   2.752  1.00  0.00    -0.266 OA
ENDBRANCH  11  17
ENDBRANCH   4   7
BRANCH   2  22
HETATM   22  C   UNL     1      43.546 -10.197   8.925  1.00  0.00     0.153 C 
BRANCH  22  23
HETATM   23  C   UNL     1      43.715 -10.083  10.448  1.00  0.00     0.195 C 
BRANCH  23  24
HETATM   24  O   UNL     1      42.420 -10.077  11.064  1.00  0.00    -0.350 OA
BRANCH  24  25
HETATM   25  C   UNL     1      42.424  -9.358  12.225  1.00  0.00     0.068 A 
HETATM   26  C   UNL     1      43.317  -8.293  12.330  1.00  0.00     0.038 A 
HETATM   27  C   UNL     1      43.334  -7.513  13.488  1.00  0.00     0.026 A 
HETATM   28  C   UNL     1      42.445  -7.798  14.522  1.00  0.00     0.034 A 
HETATM   29 CL   UNL     1      42.461  -6.838  15.951  1.00  0.00    -0.084 Cl
HETATM   30  C   UNL     1      41.536  -8.852  14.408  1.00  0.00     0.026 A 
HETATM   31  C   UNL     1      41.521  -9.633  13.251  1.00  0.00     0.038 A 
ENDBRANCH  24  25
ENDBRANCH  23  24
ENDBRANCH  22  23
ENDBRANCH   2  22
TORSDOF 6
ENDMDL
MODEL 6
REMARK VINA RESULT:      -8.2      3.853      7.448
REMARK  6 active torsions:
REMARK  status: ('A' for Active; 'I' for Inactive)
REMARK       I    between atoms: N_2  and  C_3 
REMARK    1  A    between atoms: N_2  and  C_19 
REMARK       I    between atoms: C_3  and  N_4 
REMARK    2  A    between atoms: N_4  and  C_5 
REMARK    3  A    between atoms: C_12  and  C_13 
REMARK       I    between atoms: C_13  and  N_14 
REMARK    4  A    between atoms: C_19  and  C_20 
REMARK    5  A    between atoms: C_20  and  O_21 
REMARK    6  A    between atoms: O_21  and  C_22 
ROOT
HETATM    1  C   UNL     1      39.534 -10.929   2.960  1.00  0.00     0.154 C 
HETATM    2  N   UNL     1      40.850 -11.510   2.737  1.00  0.00    -0.336 N 
HETATM    3  C   UNL     1      40.924 -12.906   2.848  1.00  0.00     0.322 C 
HETATM    4  N   UNL     1      42.148 -13.432   2.503  1.00  0.00    -0.309 N 
HETATM    5  O   UNL     1      39.949 -13.574   3.181  1.00  0.00    -0.247 OA
HETATM    6  H   UNL     1      42.676 -12.879   1.849  1.00  0.00     0.170 HD
ENDROOT
BRANCH   4   7
HETATM    7  C   UNL     1      42.591 -14.755   2.708  1.00  0.00     0.037 A 
HETATM    8  C   UNL     1      42.971 -15.247   3.964  1.00  0.00     0.046 A 
HETATM    9  C   UNL     1      43.448 -16.571   4.080  1.00  0.00     0.030 A 
HETATM   10  C   UNL     1      43.508 -17.363   2.940  1.00  0.00     0.063 A 
HETATM   11  C   UNL     1      43.946 -17.396   5.132  1.00  0.00     0.156 A 
HETATM   12  N   UNL     1      43.979 -18.573   3.365  1.00  0.00    -0.277 N 
HETATM   13  C   UNL     1      43.139 -16.905   1.673  1.00  0.00     0.034 A 
HETATM   14  H   UNL     1      44.142 -19.399   2.802  1.00  0.00     0.189 HD
HETATM   15  N   UNL     1      44.257 -18.633   4.679  1.00  0.00    -0.168 NA
HETATM   16  C   UNL     1      42.693 -15.580   1.581  1.00  0.00     0.032 A 
BRANCH  11  17
HETATM   17  C   UNL     1      44.142 -17.029   6.541  1.00  0.00     0.270 C 
HETATM   18  N   UNL     1      43.377 -17.750   7.417  1.00  0.00    -0.365 N 
HETATM   19  H   UNL     1      42.777 -18.480   7.049  1.00  0.00     0.159 HD
HETATM   20  H   UNL     1      43.474 -17.597   8.408  1.00  0.00     0.159 HD
HETATM   21  O   UNL     1      44.924 -16.172   6.939  1.00  0.00    -0.266 OA
ENDBRANCH  11  17
ENDBRANCH   4   7
BRANCH   2  22
HETATM   22  C   UNL     1      42.002 -10.629   3.006  1.00  0.00     0.153 C 
BRANCH  22  23
HETATM   23  C   UNL     1      42.288 -10.436   4.503  1.00  0.00     0.195 C 
BRANCH  23  24
HETATM   24  O   UNL     1      43.332 -11.335   4.900  1.00  0.00    -0.350 OA
BRANCH  24  25
HETATM   25  C   UNL     1      43.843 -10.998   6.121  1.00  0.00     0.068 A 
HETATM   26  C   UNL     1      42.974 -10.453   7.065  1.00  0.00     0.038 A 
HETATM   27  C   UNL     1      43.449 -10.121   8.335  1.00  0.00     0.026 A 
HETATM   28  C   UNL     1      44.785 -10.352   8.652  1.00  0.00     0.034 A 
HETATM   29 CL   UNL     1      45.375  -9.945  10.217  1.00  0.00    -0.084 Cl
HETATM   30  C   UNL     1      45.651 -10.917   7.713  1.00  0.00     0.026 A 
HETATM   31  C   UNL     1      45.177 -11.247   6.442  1.00  0.00     0.038 A 
ENDBRANCH  24  25
ENDBRANCH  23  24
ENDBRANCH  22  23
ENDBRANCH   2  22
TORSDOF 6
ENDMDL
MODEL 7
REMARK VINA RESULT:      -8.1      3.508      7.478
REMARK  6 active torsions:
REMARK  status: ('A' for Active; 'I' for Inactive)
REMARK       I    between atoms: N_2  and  C_3 
REMARK    1  A    between atoms: N_2  and  C_19 
REMARK       I    between atoms: C_3  and  N_4 
REMARK    2  A    between atoms: N_4  and  C_5 
REMARK    3  A    between atoms: C_12  and  C_13 
REMARK       I    between atoms: C_13  and  N_14 
REMARK    4  A    between atoms: C_19  and  C_20 
REMARK    5  A    between atoms: C_20  and  O_21 
REMARK    6  A    between atoms: O_21  and  C_22 
ROOT
HETATM    1  C   UNL     1      39.141 -14.070  -0.989  1.00  0.00     0.154 C 
HETATM    2  N   UNL     1      40.471 -13.997  -0.400  1.00  0.00    -0.336 N 
HETATM    3  C   UNL     1      40.755 -14.956   0.582  1.00  0.00     0.322 C 
HETATM    4  N   UNL     1      42.059 -14.941   1.020  1.00  0.00    -0.309 N 
HETATM    5  O   UNL     1      39.902 -15.755   0.962  1.00  0.00    -0.247 OA
HETATM    6  H   UNL     1      42.725 -14.588   0.354  1.00  0.00     0.170 HD
ENDROOT
BRANCH   4   7
HETATM    7  C   UNL     1      42.588 -15.629   2.132  1.00  0.00     0.037 A 
HETATM    8  C   UNL     1      42.914 -16.992   2.102  1.00  0.00     0.046 A 
HETATM    9  C   UNL     1      43.396 -17.620   3.271  1.00  0.00     0.030 A 
HETATM   10  C   UNL     1      43.558 -16.858   4.421  1.00  0.00     0.063 A 
HETATM   11  C   UNL     1      43.787 -18.940   3.642  1.00  0.00     0.156 A 
HETATM   12  N   UNL     1      44.051 -17.721   5.360  1.00  0.00    -0.277 N 
HETATM   13  C   UNL     1      43.243 -15.499   4.487  1.00  0.00     0.034 A 
HETATM   14  H   UNL     1      44.298 -17.508   6.319  1.00  0.00     0.189 HD
HETATM   15  N   UNL     1      44.201 -18.985   4.930  1.00  0.00    -0.168 NA
HETATM   16  C   UNL     1      42.742 -14.906   3.321  1.00  0.00     0.032 A 
BRANCH  11  17
HETATM   17  C   UNL     1      43.760 -20.150   2.808  1.00  0.00     0.270 C 
HETATM   18  N   UNL     1      44.024 -21.306   3.492  1.00  0.00    -0.365 N 
HETATM   19  H   UNL     1      44.182 -21.251   4.493  1.00  0.00     0.159 HD
HETATM   20  H   UNL     1      43.988 -22.190   3.012  1.00  0.00     0.159 HD
HETATM   21  O   UNL     1      43.510 -20.167   1.608  1.00  0.00    -0.266 OA
ENDBRANCH  11  17
ENDBRANCH   4   7
BRANCH   2  22
HETATM   22  C   UNL     1      41.120 -12.673  -0.431  1.00  0.00     0.153 C 
BRANCH  22  23
HETATM   23  C   UNL     1      40.462 -11.647   0.505  1.00  0.00     0.195 C 
BRANCH  23  24
HETATM   24  O   UNL     1      40.088 -12.299   1.726  1.00  0.00    -0.350 OA
BRANCH  24  25
HETATM   25  C   UNL     1      40.907 -11.935   2.757  1.00  0.00     0.068 A 
HETATM   26  C   UNL     1      40.475 -12.192   4.056  1.00  0.00     0.038 A 
HETATM   27  C   UNL     1      41.294 -11.863   5.138  1.00  0.00     0.026 A 
HETATM   28  C   UNL     1      42.544 -11.294   4.906  1.00  0.00     0.034 A 
HETATM   29 CL   UNL     1      43.558 -10.887   6.236  1.00  0.00    -0.084 Cl
HETATM   30  C   UNL     1      42.986 -11.056   3.603  1.00  0.00     0.026 A 
HETATM   31  C   UNL     1      42.166 -11.383   2.521  1.00  0.00     0.038 A 
ENDBRANCH  24  25
ENDBRANCH  23  24
ENDBRANCH  22  23
ENDBRANCH   2  22
TORSDOF 6
ENDMDL
MODEL 8
REMARK VINA RESULT:      -8.0      6.076      9.575
REMARK  6 active torsions:
REMARK  status: ('A' for Active; 'I' for Inactive)
REMARK       I    between atoms: N_2  and  C_3 
REMARK    1  A    between atoms: N_2  and  C_19 
REMARK       I    between atoms: C_3  and  N_4 
REMARK    2  A    between atoms: N_4  and  C_5 
REMARK    3  A    between atoms: C_12  and  C_13 
REMARK       I    between atoms: C_13  and  N_14 
REMARK    4  A    between atoms: C_19  and  C_20 
REMARK    5  A    between atoms: C_20  and  O_21 
REMARK    6  A    between atoms: O_21  and  C_22 
ROOT
HETATM    1  C   UNL     1      46.214  -9.565   8.172  1.00  0.00     0.154 C 
HETATM    2  N   UNL     1      45.011 -10.378   8.277  1.00  0.00    -0.336 N 
HETATM    3  C   UNL     1      44.808 -11.298   7.239  1.00  0.00     0.322 C 
HETATM    4  N   UNL     1      43.736 -12.139   7.436  1.00  0.00    -0.309 N 
HETATM    5  O   UNL     1      45.567 -11.354   6.275  1.00  0.00    -0.247 OA
HETATM    6  H   UNL     1      43.496 -12.298   8.400  1.00  0.00     0.170 HD
ENDROOT
BRANCH   4   7
HETATM    7  C   UNL     1      43.159 -13.014   6.493  1.00  0.00     0.037 A 
HETATM    8  C   UNL     1      43.376 -14.399   6.503  1.00  0.00     0.046 A 
HETATM    9  C   UNL     1      42.799 -15.203   5.496  1.00  0.00     0.030 A 
HETATM   10  C   UNL     1      42.008 -14.598   4.528  1.00  0.00     0.063 A 
HETATM   11  C   UNL     1      42.813 -16.587   5.153  1.00  0.00     0.156 A 
HETATM   12  N   UNL     1      41.583 -15.616   3.721  1.00  0.00    -0.277 N 
HETATM   13  C   UNL     1      41.772 -13.222   4.486  1.00  0.00     0.034 A 
HETATM   14  H   UNL     1      40.978 -15.544   2.912  1.00  0.00     0.189 HD
HETATM   15  N   UNL     1      42.047 -16.829   4.063  1.00  0.00    -0.168 NA
HETATM   16  C   UNL     1      42.376 -12.443   5.482  1.00  0.00     0.032 A 
BRANCH  11  17
HETATM   17  C   UNL     1      43.545 -17.670   5.825  1.00  0.00     0.270 C 
HETATM   18  N   UNL     1      43.269 -17.784   7.161  1.00  0.00    -0.365 N 
HETATM   19  H   UNL     1      42.582 -17.159   7.568  1.00  0.00     0.159 HD
HETATM   20  H   UNL     1      43.692 -18.524   7.697  1.00  0.00     0.159 HD
HETATM   21  O   UNL     1      44.328 -18.435   5.272  1.00  0.00    -0.266 OA
ENDBRANCH  11  17
ENDBRANCH   4   7
BRANCH   2  22
HETATM   22  C   UNL     1      43.900  -9.794   9.051  1.00  0.00     0.153 C 
BRANCH  22  23
HETATM   23  C   UNL     1      44.097  -9.892  10.571  1.00  0.00     0.195 C 
BRANCH  23  24
HETATM   24  O   UNL     1      42.827 -10.132  11.193  1.00  0.00    -0.350 OA
BRANCH  24  25
HETATM   25  C   UNL     1      42.674  -9.378  12.321  1.00  0.00     0.068 A 
HETATM   26  C   UNL     1      43.486  -8.255  12.472  1.00  0.00     0.038 A 
HETATM   27  C   UNL     1      43.343  -7.440  13.595  1.00  0.00     0.026 A 
HETATM   28  C   UNL     1      42.377  -7.748  14.550  1.00  0.00     0.034 A 
HETATM   29 CL   UNL     1      42.196  -6.745  15.937  1.00  0.00    -0.084 Cl
HETATM   30  C   UNL     1      41.549  -8.861  14.389  1.00  0.00     0.026 A 
HETATM   31  C   UNL     1      41.693  -9.678  13.267  1.00  0.00     0.038 A 
ENDBRANCH  24  25
ENDBRANCH  23  24
ENDBRANCH  22  23
ENDBRANCH   2  22
TORSDOF 6
ENDMDL
MODEL 9
REMARK VINA RESULT:      -8.0      5.482      9.565
REMARK  6 active torsions:
REMARK  status: ('A' for Active; 'I' for Inactive)
REMARK       I    between atoms: N_2  and  C_3 
REMARK    1  A    between atoms: N_2  and  C_19 
REMARK       I    between atoms: C_3  and  N_4 
REMARK    2  A    between atoms: N_4  and  C_5 
REMARK    3  A    between atoms: C_12  and  C_13 
REMARK       I    between atoms: C_13  and  N_14 
REMARK    4  A    between atoms: C_19  and  C_20 
REMARK    5  A    between atoms: C_20  and  O_21 
REMARK    6  A    between atoms: O_21  and  C_22 
ROOT
HETATM    1  C   UNL     1      45.874 -11.433   6.469  1.00  0.00     0.154 C 
HETATM    2  N   UNL     1      44.676 -10.788   6.985  1.00  0.00    -0.336 N 
HETATM    3  C   UNL     1      44.695 -10.474   8.352  1.00  0.00     0.322 C 
HETATM    4  N   UNL     1      43.606  -9.749   8.777  1.00  0.00    -0.309 N 
HETATM    5  O   UNL     1      45.641 -10.794   9.068  1.00  0.00    -0.247 OA
HETATM    6  H   UNL     1      43.168  -9.188   8.065  1.00  0.00     0.170 HD
ENDROOT
BRANCH   4   7
HETATM    7  C   UNL     1      43.241  -9.469  10.110  1.00  0.00     0.037 A 
HETATM    8  C   UNL     1      42.118 -10.036  10.729  1.00  0.00     0.046 A 
HETATM    9  C   UNL     1      41.792  -9.669  12.053  1.00  0.00     0.030 A 
HETATM   10  C   UNL     1      42.612  -8.767  12.719  1.00  0.00     0.063 A 
HETATM   11  C   UNL     1      40.754  -9.982  12.980  1.00  0.00     0.156 A 
HETATM   12  N   UNL     1      42.063  -8.630  13.963  1.00  0.00    -0.277 N 
HETATM   13  C   UNL     1      43.738  -8.183  12.133  1.00  0.00     0.034 A 
HETATM   14  H   UNL     1      42.404  -8.054  14.723  1.00  0.00     0.189 HD
HETATM   15  N   UNL     1      40.942  -9.344  14.159  1.00  0.00    -0.168 NA
HETATM   16  C   UNL     1      44.024  -8.543  10.810  1.00  0.00     0.032 A 
BRANCH  11  17
HETATM   17  C   UNL     1      39.593 -10.855  12.763  1.00  0.00     0.270 C 
HETATM   18  N   UNL     1      38.915 -10.604  11.601  1.00  0.00    -0.365 N 
HETATM   19  H   UNL     1      39.268  -9.883  10.982  1.00  0.00     0.159 HD
HETATM   20  H   UNL     1      38.128 -11.179  11.347  1.00  0.00     0.159 HD
HETATM   21  O   UNL     1      39.239 -11.752  13.522  1.00  0.00    -0.266 OA
ENDBRANCH  11  17
ENDBRANCH   4   7
BRANCH   2  22
HETATM   22  C   UNL     1      43.427 -11.056   6.249  1.00  0.00     0.153 C 
BRANCH  22  23
HETATM   23  C   UNL     1      43.075 -12.550   6.165  1.00  0.00     0.195 C 
BRANCH  23  24
HETATM   24  O   UNL     1      42.136 -12.750   5.100  1.00  0.00    -0.350 OA
BRANCH  24  25
HETATM   25  C   UNL     1      42.394 -13.906   4.419  1.00  0.00     0.068 A 
HETATM   26  C   UNL     1      42.027 -15.111   5.014  1.00  0.00     0.038 A 
HETATM   27  C   UNL     1      42.246 -16.313   4.340  1.00  0.00     0.026 A 
HETATM   28  C   UNL     1      42.816 -16.296   3.070  1.00  0.00     0.034 A 
HETATM   29 CL   UNL     1      43.087 -17.776   2.234  1.00  0.00    -0.084 Cl
HETATM   30  C   UNL     1      43.165 -15.087   2.465  1.00  0.00     0.026 A 
HETATM   31  C   UNL     1      42.949 -13.884   3.139  1.00  0.00     0.038 A 
ENDBRANCH  24  25
ENDBRANCH  23  24
ENDBRANCH  22  23
ENDBRANCH   2  22
TORSDOF 6
ENDMDL
MODEL 10
REMARK VINA RESULT:      -7.8      4.638      8.217
REMARK  6 active torsions:
REMARK  status: ('A' for Active; 'I' for Inactive)
REMARK       I    between atoms: N_2  and  C_3 
REMARK    1  A    between atoms: N_2  and  C_19 
REMARK       I    between atoms: C_3  and  N_4 
REMARK    2  A    between atoms: N_4  and  C_5 
REMARK    3  A    between atoms: C_12  and  C_13 
REMARK       I    between atoms: C_13  and  N_14 
REMARK    4  A    between atoms: C_19  and  C_20 
REMARK    5  A    between atoms: C_20  and  O_21 
REMARK    6  A    between atoms: O_21  and  C_22 
ROOT
HETATM    1  C   UNL     1      40.225 -10.828   5.210  1.00  0.00     0.154 C 
HETATM    2  N   UNL     1      41.474 -11.417   4.749  1.00  0.00    -0.336 N 
HETATM    3  C   UNL     1      41.388 -12.739   4.289  1.00  0.00     0.322 C 
HETATM    4  N   UNL     1      42.555 -13.218   3.739  1.00  0.00    -0.309 N 
HETATM    5  O   UNL     1      40.335 -13.369   4.344  1.00  0.00    -0.247 OA
HETATM    6  H   UNL     1      43.161 -12.513   3.353  1.00  0.00     0.170 HD
ENDROOT
BRANCH   4   7
HETATM    7  C   UNL     1      42.842 -14.554   3.388  1.00  0.00     0.037 A 
HETATM    8  C   UNL     1      42.978 -15.580   4.333  1.00  0.00     0.046 A 
HETATM    9  C   UNL     1      43.312 -16.883   3.904  1.00  0.00     0.030 A 
HETATM   10  C   UNL     1      43.475 -17.119   2.546  1.00  0.00     0.063 A 
HETATM   11  C   UNL     1      43.567 -18.138   4.533  1.00  0.00     0.156 A 
HETATM   12  N   UNL     1      43.766 -18.451   2.443  1.00  0.00    -0.277 N 
HETATM   13  C   UNL     1      43.348 -16.121   1.577  1.00  0.00     0.034 A 
HETATM   14  H   UNL     1      43.939 -18.977   1.595  1.00  0.00     0.189 HD
HETATM   15  N   UNL     1      43.832 -19.099   3.618  1.00  0.00    -0.168 NA
HETATM   16  C   UNL     1      43.042 -14.831   2.030  1.00  0.00     0.032 A 
BRANCH  11  17
HETATM   17  C   UNL     1      43.576 -18.433   5.973  1.00  0.00     0.270 C 
HETATM   18  N   UNL     1      43.517 -19.768   6.269  1.00  0.00    -0.365 N 
HETATM   19  H   UNL     1      43.505 -20.433   5.504  1.00  0.00     0.159 HD
HETATM   20  H   UNL     1      43.560 -20.069   7.230  1.00  0.00     0.159 HD
HETATM   21  O   UNL     1      43.647 -17.589   6.860  1.00  0.00    -0.266 OA
ENDBRANCH  11  17
ENDBRANCH   4   7
BRANCH   2  22
HETATM   22  C   UNL     1      42.708 -10.855   5.328  1.00  0.00     0.153 C 
BRANCH  22  23
HETATM   23  C   UNL     1      42.678 -10.762   6.861  1.00  0.00     0.195 C 
BRANCH  23  24
HETATM   24  O   UNL     1      43.965 -10.339   7.330  1.00  0.00    -0.350 OA
BRANCH  24  25
HETATM   25  C   UNL     1      43.892  -9.825   8.593  1.00  0.00     0.068 A 
HETATM   26  C   UNL     1      42.692  -9.237   8.990  1.00  0.00     0.038 A 
HETATM   27  C   UNL     1      42.564  -8.726  10.282  1.00  0.00     0.026 A 
HETATM   28  C   UNL     1      43.633  -8.822  11.170  1.00  0.00     0.034 A 
HETATM   29 CL   UNL     1      43.479  -8.194  12.765  1.00  0.00    -0.084 Cl
HETATM   30  C   UNL     1      44.828  -9.430  10.779  1.00  0.00     0.026 A 
HETATM   31  C   UNL     1      44.957  -9.940   9.486  1.00  0.00     0.038 A 
ENDBRANCH  24  25
ENDBRANCH  23  24
ENDBRANCH  22  23
ENDBRANCH   2  22
TORSDOF 6
ENDMDL
