MODEL 1
REMARK VINA RESULT:      -8.0      0.000      0.000
REMARK  6 active torsions:
REMARK  status: ('A' for Active; 'I' for Inactive)
REMARK    1  A    between atoms: C_2  and  O_3 
REMARK    2  A    between atoms: O_3  and  C_4 
REMARK    3  A    between atoms: C_9  and  S_10 
REMARK    4  A    between atoms: S_10  and  C_11 
REMARK    5  A    between atoms: C_11  and  C_12 
REMARK       I    between atoms: C_12  and  N_13 
REMARK    6  A    between atoms: N_13  and  C_14 
ROOT
HETATM    1  C   UNL     1      44.528 -11.760   7.200  1.00  0.00     0.069 A 
HETATM    2  C   UNL     1      43.740 -12.902   7.334  1.00  0.00     0.050 A 
HETATM    3  C   UNL     1      42.835 -13.268   6.317  1.00  0.00    -0.004 A 
HETATM    4  C   UNL     1      42.707 -12.484   5.157  1.00  0.00     0.068 A 
HETATM    5  N   UNL     1      41.859 -12.801   4.166  1.00  0.00    -0.241 NA
HETATM    6  C   UNL     1      41.099 -13.917   4.285  1.00  0.00     0.100 A 
HETATM    7  C   UNL     1      41.165 -14.773   5.382  1.00  0.00    -0.026 A 
HETATM    8  C   UNL     1      40.324 -16.006   5.535  1.00  0.00     0.051 C 
HETATM    9  C   UNL     1      42.041 -14.418   6.415  1.00  0.00     0.023 A 
HETATM   10  C   UNL     1      43.494 -11.348   5.048  1.00  0.00     0.035 A 
HETATM   11  C   UNL     1      44.397 -10.984   6.052  1.00  0.00     0.039 A 
ENDROOT
BRANCH   6  12
HETATM   12  S   UNL     1      40.020 -14.160   2.890  1.00  0.00    -0.096 SA
BRANCH  12  13
HETATM   13  C   UNL     1      41.248 -14.429   1.558  1.00  0.00     0.142 C 
HETATM   14  C   UNL     1      40.519 -14.950   0.324  1.00  0.00     0.031 C 
BRANCH  13  15
HETATM   15  C   UNL     1      42.375 -15.393   1.935  1.00  0.00     0.236 C 
HETATM   16  N   UNL     1      41.951 -16.596   2.468  1.00  0.00    -0.326 N 
HETATM   17  H   UNL     1      40.994 -16.602   2.811  1.00  0.00     0.169 HD
HETATM   18  O   UNL     1      43.539 -15.087   1.681  1.00  0.00    -0.272 OA
BRANCH  16  19
HETATM   19  C   UNL     1      42.736 -17.710   2.819  1.00  0.00     0.034 A 
HETATM   20  C   UNL     1      42.837 -18.868   2.048  1.00  0.00     0.029 A 
HETATM   21  C   UNL     1      43.637 -19.934   2.472  1.00  0.00     0.002 A 
HETATM   22  C   UNL     1      44.338 -19.852   3.673  1.00  0.00     0.000 A 
HETATM   23  C   UNL     1      44.240 -18.703   4.452  1.00  0.00     0.002 A 
HETATM   24  C   UNL     1      43.442 -17.638   4.028  1.00  0.00     0.029 A 
ENDBRANCH  16  19
ENDBRANCH  13  15
ENDBRANCH  12  13
ENDBRANCH   6  12
BRANCH   1  25
HETATM   25  O   UNL     1      45.449 -11.303   8.100  1.00  0.00    -0.351 OA
BRANCH  25  26
HETATM   26  C   UNL     1      46.185 -10.134   7.745  1.00  0.00     0.171 C 
HETATM   27  C   UNL     1      45.803  -9.027   8.712  1.00  0.00     0.034 C 
ENDBRANCH  25  26
ENDBRANCH   1  25
TORSDOF 6
ENDMDL
MODEL 2
REMARK VINA RESULT:      -8.0      2.004      7.476
REMARK  6 active torsions:
REMARK  status: ('A' for Active; 'I' for Inactive)
REMARK    1  A    between atoms: C_2  and  O_3 
REMARK    2  A    between atoms: O_3  and  C_4 
REMARK    3  A    between atoms: C_9  and  S_10 
REMARK    4  A    between atoms: S_10  and  C_11 
REMARK    5  A    between atoms: C_11  and  C_12 
REMARK       I    between atoms: C_12  and  N_13 
REMARK    6  A    between atoms: N_13  and  C_14 
ROOT
HETATM    1  C   UNL     1      43.932 -18.328   3.625  1.00  0.00     0.069 A 
HETATM    2  C   UNL     1      43.082 -17.841   2.633  1.00  0.00     0.050 A 
HETATM    3  C   UNL     1      42.458 -16.585   2.783  1.00  0.00    -0.004 A 
HETATM    4  C   UNL     1      42.675 -15.811   3.936  1.00  0.00     0.068 A 
HETATM    5  N   UNL     1      42.100 -14.611   4.113  1.00  0.00    -0.241 NA
HETATM    6  C   UNL     1      41.282 -14.125   3.147  1.00  0.00     0.100 A 
HETATM    7  C   UNL     1      41.018 -14.803   1.958  1.00  0.00    -0.026 A 
HETATM    8  C   UNL     1      40.108 -14.286   0.884  1.00  0.00     0.051 C 
HETATM    9  C   UNL     1      41.610 -16.062   1.797  1.00  0.00     0.023 A 
HETATM   10  C   UNL     1      43.516 -16.318   4.913  1.00  0.00     0.035 A 
HETATM   11  C   UNL     1      44.143 -17.561   4.767  1.00  0.00     0.039 A 
ENDROOT
BRANCH   6  12
HETATM   12  S   UNL     1      40.595 -12.539   3.568  1.00  0.00    -0.096 SA
BRANCH  12  13
HETATM   13  C   UNL     1      41.092 -12.413   5.327  1.00  0.00     0.142 C 
HETATM   14  C   UNL     1      39.859 -12.076   6.158  1.00  0.00     0.031 C 
BRANCH  13  15
HETATM   15  C   UNL     1      42.190 -11.380   5.591  1.00  0.00     0.236 C 
HETATM   16  N   UNL     1      42.742 -11.436   6.857  1.00  0.00    -0.326 N 
HETATM   17  H   UNL     1      42.189 -11.938   7.547  1.00  0.00     0.169 HD
HETATM   18  O   UNL     1      42.555 -10.643   4.676  1.00  0.00    -0.272 OA
BRANCH  16  19
HETATM   19  C   UNL     1      43.822 -10.688   7.362  1.00  0.00     0.034 A 
HETATM   20  C   UNL     1      43.685  -9.465   8.020  1.00  0.00     0.029 A 
HETATM   21  C   UNL     1      44.813  -8.783   8.488  1.00  0.00     0.002 A 
HETATM   22  C   UNL     1      46.086  -9.315   8.297  1.00  0.00     0.000 A 
HETATM   23  C   UNL     1      46.233 -10.531   7.637  1.00  0.00     0.002 A 
HETATM   24  C   UNL     1      45.107 -11.213   7.171  1.00  0.00     0.029 A 
ENDBRANCH  16  19
ENDBRANCH  13  15
ENDBRANCH  12  13
ENDBRANCH   6  12
BRANCH   1  25
HETATM   25  O   UNL     1      44.607 -19.516   3.598  1.00  0.00    -0.351 OA
BRANCH  25  26
HETATM   26  C   UNL     1      43.842 -20.706   3.784  1.00  0.00     0.171 C 
HETATM   27  C   UNL     1      43.782 -20.999   5.272  1.00  0.00     0.034 C 
ENDBRANCH  25  26
ENDBRANCH   1  25
TORSDOF 6
ENDMDL
MODEL 3
REMARK VINA RESULT:      -7.9      3.062      6.896
REMARK  6 active torsions:
REMARK  status: ('A' for Active; 'I' for Inactive)
REMARK    1  A    between atoms: C_2  and  O_3 
REMARK    2  A    between atoms: O_3  and  C_4 
REMARK    3  A    between atoms: C_9  and  S_10 
REMARK    4  A    between atoms: S_10  and  C_11 
REMARK    5  A    between atoms: C_11  and  C_12 
REMARK       I    between atoms: C_12  and  N_13 
REMARK    6  A    between atoms: N_13  and  C_14 
ROOT
HETATM    1  C   UNL     1      43.834 -18.544   3.428  1.00  0.00     0.069 A 
HETATM    2  C   UNL     1      43.872 -17.512   4.364  1.00  0.00     0.050 A 
HETATM    3  C   UNL     1      43.085 -16.356   4.185  1.00  0.00    -0.004 A 
HETATM    4  C   UNL     1      42.259 -16.221   3.055  1.00  0.00     0.068 A 
HETATM    5  N   UNL     1      41.494 -15.137   2.850  1.00  0.00    -0.241 NA
HETATM    6  C   UNL     1      41.516 -14.136   3.764  1.00  0.00     0.100 A 
HETATM    7  C   UNL     1      42.284 -14.179   4.927  1.00  0.00    -0.026 A 
HETATM    8  C   UNL     1      42.329 -13.077   5.942  1.00  0.00     0.051 C 
HETATM    9  C   UNL     1      43.090 -15.309   5.116  1.00  0.00     0.023 A 
HETATM   10  C   UNL     1      42.242 -17.255   2.132  1.00  0.00     0.035 A 
HETATM   11  C   UNL     1      43.017 -18.406   2.309  1.00  0.00     0.039 A 
ENDROOT
BRANCH   6  12
HETATM   12  S   UNL     1      40.463 -12.775   3.312  1.00  0.00    -0.096 SA
BRANCH  12  13
HETATM   13  C   UNL     1      41.497 -11.957   2.040  1.00  0.00     0.142 C 
HETATM   14  C   UNL     1      41.694 -10.499   2.438  1.00  0.00     0.031 C 
BRANCH  13  15
HETATM   15  C   UNL     1      40.919 -12.031   0.624  1.00  0.00     0.236 C 
HETATM   16  N   UNL     1      40.057 -13.090   0.409  1.00  0.00    -0.326 N 
HETATM   17  H   UNL     1      40.120 -13.843   1.089  1.00  0.00     0.169 HD
HETATM   18  O   UNL     1      41.182 -11.138  -0.180  1.00  0.00    -0.272 OA
BRANCH  16  19
HETATM   19  C   UNL     1      39.303 -13.368  -0.747  1.00  0.00     0.034 A 
HETATM   20  C   UNL     1      38.275 -12.553  -1.223  1.00  0.00     0.029 A 
HETATM   21  C   UNL     1      37.570 -12.904  -2.378  1.00  0.00     0.002 A 
HETATM   22  C   UNL     1      37.882 -14.075  -3.063  1.00  0.00     0.000 A 
HETATM   23  C   UNL     1      38.902 -14.898  -2.594  1.00  0.00     0.002 A 
HETATM   24  C   UNL     1      39.607 -14.546  -1.440  1.00  0.00     0.029 A 
ENDBRANCH  16  19
ENDBRANCH  13  15
ENDBRANCH  12  13
ENDBRANCH   6  12
BRANCH   1  25
HETATM   25  O   UNL     1      44.532 -19.717   3.489  1.00  0.00    -0.351 OA
BRANCH  25  26
HETATM   26  C   UNL     1      43.817 -20.881   3.900  1.00  0.00     0.171 C 
HETATM   27  C   UNL     1      43.811 -20.917   5.417  1.00  0.00     0.034 C 
ENDBRANCH  25  26
ENDBRANCH   1  25
TORSDOF 6
ENDMDL
MODEL 4
REMARK VINA RESULT:      -7.9      1.586      2.469
REMARK  6 active torsions:
REMARK  status: ('A' for Active; 'I' for Inactive)
REMARK    1  A    between atoms: C_2  and  O_3 
REMARK    2  A    between atoms: O_3  and  C_4 
REMARK    3  A    between atoms: C_9  and  S_10 
REMARK    4  A    between atoms: S_10  and  C_11 
REMARK    5  A    between atoms: C_11  and  C_12 
REMARK       I    between atoms: C_12  and  N_13 
REMARK    6  A    between atoms: N_13  and  C_14 
ROOT
HETATM    1  C   UNL     1      44.206 -12.128   6.677  1.00  0.00     0.069 A 
HETATM    2  C   UNL     1      44.058 -11.374   5.514  1.00  0.00     0.050 A 
HETATM    3  C   UNL     1      43.054 -11.694   4.578  1.00  0.00    -0.004 A 
HETATM    4  C   UNL     1      42.193 -12.783   4.797  1.00  0.00     0.068 A 
HETATM    5  N   UNL     1      41.224 -13.118   3.930  1.00  0.00    -0.241 NA
HETATM    6  C   UNL     1      41.067 -12.380   2.803  1.00  0.00     0.100 A 
HETATM    7  C   UNL     1      41.853 -11.269   2.502  1.00  0.00    -0.026 A 
HETATM    8  C   UNL     1      41.701 -10.449   1.256  1.00  0.00     0.051 C 
HETATM    9  C   UNL     1      42.871 -10.945   3.407  1.00  0.00     0.023 A 
HETATM   10  C   UNL     1      42.362 -13.526   5.955  1.00  0.00     0.035 A 
HETATM   11  C   UNL     1      43.353 -13.208   6.890  1.00  0.00     0.039 A 
ENDROOT
BRANCH   6  12
HETATM   12  S   UNL     1      39.755 -12.988   1.767  1.00  0.00    -0.096 SA
BRANCH  12  13
HETATM   13  C   UNL     1      40.654 -14.251   0.791  1.00  0.00     0.142 C 
HETATM   14  C   UNL     1      39.818 -14.605  -0.433  1.00  0.00     0.031 C 
BRANCH  13  15
HETATM   15  C   UNL     1      40.985 -15.524   1.575  1.00  0.00     0.236 C 
HETATM   16  N   UNL     1      42.325 -15.684   1.875  1.00  0.00    -0.326 N 
HETATM   17  H   UNL     1      42.962 -15.118   1.320  1.00  0.00     0.169 HD
HETATM   18  O   UNL     1      40.070 -16.258   1.943  1.00  0.00    -0.272 OA
BRANCH  16  19
HETATM   19  C   UNL     1      42.920 -16.691   2.657  1.00  0.00     0.034 A 
HETATM   20  C   UNL     1      43.190 -17.980   2.195  1.00  0.00     0.029 A 
HETATM   21  C   UNL     1      43.781 -18.926   3.040  1.00  0.00     0.002 A 
HETATM   22  C   UNL     1      44.100 -18.592   4.354  1.00  0.00     0.000 A 
HETATM   23  C   UNL     1      43.830 -17.311   4.825  1.00  0.00     0.002 A 
HETATM   24  C   UNL     1      43.241 -16.366   3.981  1.00  0.00     0.029 A 
ENDBRANCH  16  19
ENDBRANCH  13  15
ENDBRANCH  12  13
ENDBRANCH   6  12
BRANCH   1  25
HETATM   25  O   UNL     1      45.124 -11.917   7.667  1.00  0.00    -0.351 OA
BRANCH  25  26
HETATM   26  C   UNL     1      45.742 -10.633   7.721  1.00  0.00     0.171 C 
HETATM   27  C   UNL     1      45.434 -10.021   9.075  1.00  0.00     0.034 C 
ENDBRANCH  25  26
ENDBRANCH   1  25
TORSDOF 6
ENDMDL
MODEL 5
REMARK VINA RESULT:      -7.8      2.856      6.656
REMARK  6 active torsions:
REMARK  status: ('A' for Active; 'I' for Inactive)
REMARK    1  A    between atoms: C_2  and  O_3 
REMARK    2  A    between atoms: O_3  and  C_4 
REMARK    3  A    between atoms: C_9  and  S_10 
REMARK    4  A    between atoms: S_10  and  C_11 
REMARK    5  A    between atoms: C_11  and  C_12 
REMARK       I    between atoms: C_12  and  N_13 
REMARK    6  A    between atoms: N_13  and  C_14 
ROOT
HETATM    1  C   UNL     1      43.692 -18.367   3.169  1.00  0.00     0.069 A 
HETATM    2  C   UNL     1      43.968 -17.467   4.197  1.00  0.00     0.050 A 
HETATM    3  C   UNL     1      43.225 -16.275   4.320  1.00  0.00    -0.004 A 
HETATM    4  C   UNL     1      42.202 -15.971   3.405  1.00  0.00     0.068 A 
HETATM    5  N   UNL     1      41.472 -14.848   3.490  1.00  0.00    -0.241 NA
HETATM    6  C   UNL     1      41.727 -13.975   4.496  1.00  0.00     0.100 A 
HETATM    7  C   UNL     1      42.703 -14.191   5.467  1.00  0.00    -0.026 A 
HETATM    8  C   UNL     1      43.006 -13.231   6.578  1.00  0.00     0.051 C 
HETATM    9  C   UNL     1      43.468 -15.358   5.351  1.00  0.00     0.023 A 
HETATM   10  C   UNL     1      41.950 -16.875   2.384  1.00  0.00     0.035 A 
HETATM   11  C   UNL     1      42.681 -18.062   2.262  1.00  0.00     0.039 A 
ENDROOT
BRANCH   6  12
HETATM   12  S   UNL     1      40.681 -12.536   4.432  1.00  0.00    -0.096 SA
BRANCH  12  13
HETATM   13  C   UNL     1      41.459 -11.615   3.054  1.00  0.00     0.142 C 
HETATM   14  C   UNL     1      41.543 -10.142   3.440  1.00  0.00     0.031 C 
BRANCH  13  15
HETATM   15  C   UNL     1      40.726 -11.756   1.717  1.00  0.00     0.236 C 
HETATM   16  N   UNL     1      41.121 -12.837   0.954  1.00  0.00    -0.326 N 
HETATM   17  H   UNL     1      42.019 -13.242   1.210  1.00  0.00     0.169 HD
HETATM   18  O   UNL     1      39.812 -10.977   1.448  1.00  0.00    -0.272 OA
BRANCH  16  19
HETATM   19  C   UNL     1      40.574 -13.281  -0.265  1.00  0.00     0.034 A 
HETATM   20  C   UNL     1      39.757 -14.405  -0.390  1.00  0.00     0.029 A 
HETATM   21  C   UNL     1      39.257 -14.781  -1.641  1.00  0.00     0.002 A 
HETATM   22  C   UNL     1      39.574 -14.040  -2.776  1.00  0.00     0.000 A 
HETATM   23  C   UNL     1      40.393 -12.920  -2.663  1.00  0.00     0.002 A 
HETATM   24  C   UNL     1      40.892 -12.544  -1.413  1.00  0.00     0.029 A 
ENDBRANCH  16  19
ENDBRANCH  13  15
ENDBRANCH  12  13
ENDBRANCH   6  12
BRANCH   1  25
HETATM   25  O   UNL     1      44.324 -19.558   2.945  1.00  0.00    -0.351 OA
BRANCH  25  26
HETATM   26  C   UNL     1      43.674 -20.739   3.411  1.00  0.00     0.171 C 
HETATM   27  C   UNL     1      43.983 -20.894   4.889  1.00  0.00     0.034 C 
ENDBRANCH  25  26
ENDBRANCH   1  25
TORSDOF 6
ENDMDL
MODEL 6
REMARK VINA RESULT:      -7.4      2.624      6.963
REMARK  6 active torsions:
REMARK  status: ('A' for Active; 'I' for Inactive)
REMARK    1  A    between atoms: C_2  and  O_3 
REMARK    2  A    between atoms: O_3  and  C_4 
REMARK    3  A    between atoms: C_9  and  S_10 
REMARK    4  A    between atoms: S_10  and  C_11 
REMARK    5  A    between atoms: C_11  and  C_12 
REMARK       I    between atoms: C_12  and  N_13 
REMARK    6  A    between atoms: N_13  and  C_14 
ROOT
HETATM    1  C   UNL     1      42.237 -17.150   2.772  1.00  0.00     0.069 A 
HETATM    2  C   UNL     1      42.988 -16.570   3.793  1.00  0.00     0.050 A 
HETATM    3  C   UNL     1      42.602 -15.333   4.349  1.00  0.00    -0.004 A 
HETATM    4  C   UNL     1      41.461 -14.661   3.876  1.00  0.00     0.068 A 
HETATM    5  N   UNL     1      41.060 -13.483   4.380  1.00  0.00    -0.241 NA
HETATM    6  C   UNL     1      41.779 -12.921   5.383  1.00  0.00     0.100 A 
HETATM    7  C   UNL     1      42.912 -13.514   5.938  1.00  0.00    -0.026 A 
HETATM    8  C   UNL     1      43.724 -12.900   7.039  1.00  0.00     0.051 C 
HETATM    9  C   UNL     1      43.327 -14.732   5.387  1.00  0.00     0.023 A 
HETATM   10  C   UNL     1      40.734 -15.250   2.853  1.00  0.00     0.035 A 
HETATM   11  C   UNL     1      41.110 -16.481   2.303  1.00  0.00     0.039 A 
ENDROOT
BRANCH   6  12
HETATM   12  S   UNL     1      41.113 -11.354   5.904  1.00  0.00    -0.096 SA
BRANCH  12  13
HETATM   13  C   UNL     1      42.134 -10.207   4.906  1.00  0.00     0.142 C 
HETATM   14  C   UNL     1      41.441  -8.849   4.866  1.00  0.00     0.031 C 
BRANCH  13  15
HETATM   15  C   UNL     1      42.401 -10.691   3.478  1.00  0.00     0.236 C 
HETATM   16  N   UNL     1      41.318 -10.592   2.625  1.00  0.00    -0.326 N 
HETATM   17  H   UNL     1      40.416 -10.488   3.082  1.00  0.00     0.169 HD
HETATM   18  O   UNL     1      43.535 -11.051   3.167  1.00  0.00    -0.272 OA
BRANCH  16  19
HETATM   19  C   UNL     1      41.279 -10.865   1.244  1.00  0.00     0.034 A 
HETATM   20  C   UNL     1      41.524  -9.914   0.253  1.00  0.00     0.029 A 
HETATM   21  C   UNL     1      41.460 -10.268  -1.099  1.00  0.00     0.002 A 
HETATM   22  C   UNL     1      41.145 -11.573  -1.470  1.00  0.00     0.000 A 
HETATM   23  C   UNL     1      40.894 -12.528  -0.489  1.00  0.00     0.002 A 
HETATM   24  C   UNL     1      40.959 -12.175   0.862  1.00  0.00     0.029 A 
ENDBRANCH  16  19
ENDBRANCH  13  15
ENDBRANCH  12  13
ENDBRANCH   6  12
BRANCH   1  25
HETATM   25  O   UNL     1      42.492 -18.344   2.159  1.00  0.00    -0.351 OA
BRANCH  25  26
HETATM   26  C   UNL     1      43.623 -19.084   2.617  1.00  0.00     0.171 C 
HETATM   27  C   UNL     1      43.637 -20.417   1.889  1.00  0.00     0.034 C 
ENDBRANCH  25  26
ENDBRANCH   1  25
TORSDOF 6
ENDMDL
MODEL 7
REMARK VINA RESULT:      -7.4      2.064      7.109
REMARK  6 active torsions:
REMARK  status: ('A' for Active; 'I' for Inactive)
REMARK    1  A    between atoms: C_2  and  O_3 
REMARK    2  A    between atoms: O_3  and  C_4 
REMARK    3  A    between atoms: C_9  and  S_10 
REMARK    4  A    between atoms: S_10  and  C_11 
REMARK    5  A    between atoms: C_11  and  C_12 
REMARK       I    between atoms: C_12  and  N_13 
REMARK    6  A    between atoms: N_13  and  C_14 
ROOT
HETATM    1  C   UNL     1      43.508 -17.948   3.400  1.00  0.00     0.069 A 
HETATM    2  C   UNL     1      42.911 -17.365   2.283  1.00  0.00     0.050 A 
HETATM    3  C   UNL     1      42.061 -16.249   2.430  1.00  0.00    -0.004 A 
HETATM    4  C   UNL     1      41.796 -15.714   3.703  1.00  0.00     0.068 A 
HETATM    5  N   UNL     1      40.995 -14.651   3.883  1.00  0.00    -0.241 NA
HETATM    6  C   UNL     1      40.422 -14.071   2.799  1.00  0.00     0.100 A 
HETATM    7  C   UNL     1      40.635 -14.511   1.494  1.00  0.00    -0.026 A 
HETATM    8  C   UNL     1      40.001 -13.888   0.287  1.00  0.00     0.051 C 
HETATM    9  C   UNL     1      41.458 -15.631   1.326  1.00  0.00     0.023 A 
HETATM   10  C   UNL     1      42.393 -16.314   4.800  1.00  0.00     0.035 A 
HETATM   11  C   UNL     1      43.242 -17.418   4.659  1.00  0.00     0.039 A 
ENDROOT
BRANCH   6  12
HETATM   12  S   UNL     1      39.376 -12.699   3.234  1.00  0.00    -0.096 SA
BRANCH  12  13
HETATM   13  C   UNL     1      40.632 -11.395   3.517  1.00  0.00     0.142 C 
HETATM   14  C   UNL     1      41.655 -11.454   2.389  1.00  0.00     0.031 C 
BRANCH  13  15
HETATM   15  C   UNL     1      41.346 -11.501   4.867  1.00  0.00     0.236 C 
HETATM   16  N   UNL     1      42.648 -11.037   4.868  1.00  0.00    -0.326 N 
HETATM   17  H   UNL     1      43.075 -10.948   3.950  1.00  0.00     0.169 HD
HETATM   18  O   UNL     1      40.722 -11.904   5.848  1.00  0.00    -0.272 OA
BRANCH  16  19
HETATM   19  C   UNL     1      43.521 -10.917   5.966  1.00  0.00     0.034 A 
HETATM   20  C   UNL     1      43.181 -10.297   7.169  1.00  0.00     0.029 A 
HETATM   21  C   UNL     1      44.111 -10.214   8.210  1.00  0.00     0.002 A 
HETATM   22  C   UNL     1      45.389 -10.746   8.055  1.00  0.00     0.000 A 
HETATM   23  C   UNL     1      45.739 -11.361   6.857  1.00  0.00     0.002 A 
HETATM   24  C   UNL     1      44.810 -11.445   5.817  1.00  0.00     0.029 A 
ENDBRANCH  16  19
ENDBRANCH  13  15
ENDBRANCH  12  13
ENDBRANCH   6  12
BRANCH   1  25
HETATM   25  O   UNL     1      44.358 -19.018   3.395  1.00  0.00    -0.351 OA
BRANCH  25  26
HETATM   26  C   UNL     1      43.778 -20.312   3.239  1.00  0.00     0.171 C 
HETATM   27  C   UNL     1      43.645 -20.591   1.752  1.00  0.00     0.034 C 
ENDBRANCH  25  26
ENDBRANCH   1  25
TORSDOF 6
ENDMDL
MODEL 8
REMARK VINA RESULT:      -7.3      2.866      4.213
REMARK  6 active torsions:
REMARK  status: ('A' for Active; 'I' for Inactive)
REMARK    1  A    between atoms: C_2  and  O_3 
REMARK    2  A    between atoms: O_3  and  C_4 
REMARK    3  A    between atoms: C_9  and  S_10 
REMARK    4  A    between atoms: S_10  and  C_11 
REMARK    5  A    between atoms: C_11  and  C_12 
REMARK       I    between atoms: C_12  and  N_13 
REMARK    6  A    between atoms: N_13  and  C_14 
ROOT
HETATM    1  C   UNL     1      43.899  -9.017  10.892  1.00  0.00     0.069 A 
HETATM    2  C   UNL     1      42.869  -8.933   9.957  1.00  0.00     0.050 A 
HETATM    3  C   UNL     1      42.984  -9.577   8.708  1.00  0.00    -0.004 A 
HETATM    4  C   UNL     1      44.141 -10.306   8.382  1.00  0.00     0.068 A 
HETATM    5  N   UNL     1      44.287 -10.934   7.205  1.00  0.00    -0.241 NA
HETATM    6  C   UNL     1      43.283 -10.866   6.296  1.00  0.00     0.100 A 
HETATM    7  C   UNL     1      42.087 -10.189   6.528  1.00  0.00    -0.026 A 
HETATM    8  C   UNL     1      40.972 -10.095   5.530  1.00  0.00     0.051 C 
HETATM    9  C   UNL     1      41.960  -9.523   7.753  1.00  0.00     0.023 A 
HETATM   10  C   UNL     1      45.158 -10.370   9.323  1.00  0.00     0.035 A 
HETATM   11  C   UNL     1      45.046  -9.737  10.565  1.00  0.00     0.039 A 
ENDROOT
BRANCH   6  12
HETATM   12  S   UNL     1      43.666 -11.734   4.791  1.00  0.00    -0.096 SA
BRANCH  12  13
HETATM   13  C   UNL     1      42.636 -13.236   4.997  1.00  0.00     0.142 C 
HETATM   14  C   UNL     1      42.779 -13.729   6.433  1.00  0.00     0.031 C 
BRANCH  13  15
HETATM   15  C   UNL     1      42.985 -14.368   4.027  1.00  0.00     0.236 C 
HETATM   16  N   UNL     1      43.088 -15.616   4.612  1.00  0.00    -0.326 N 
HETATM   17  H   UNL     1      43.206 -15.612   5.622  1.00  0.00     0.169 HD
HETATM   18  O   UNL     1      43.072 -14.124   2.825  1.00  0.00    -0.272 OA
BRANCH  16  19
HETATM   19  C   UNL     1      43.300 -16.853   3.975  1.00  0.00     0.034 A 
HETATM   20  C   UNL     1      42.725 -17.212   2.756  1.00  0.00     0.029 A 
HETATM   21  C   UNL     1      42.984 -18.466   2.192  1.00  0.00     0.002 A 
HETATM   22  C   UNL     1      43.815 -19.372   2.846  1.00  0.00     0.000 A 
HETATM   23  C   UNL     1      44.390 -19.026   4.065  1.00  0.00     0.002 A 
HETATM   24  C   UNL     1      44.132 -17.773   4.627  1.00  0.00     0.029 A 
ENDBRANCH  16  19
ENDBRANCH  13  15
ENDBRANCH  12  13
ENDBRANCH   6  12
BRANCH   1  25
HETATM   25  O   UNL     1      43.909  -8.455  12.137  1.00  0.00    -0.351 OA
BRANCH  25  26
HETATM   26  C   UNL     1      42.747  -7.730  12.535  1.00  0.00     0.171 C 
HETATM   27  C   UNL     1      42.810  -7.531  14.039  1.00  0.00     0.034 C 
ENDBRANCH  25  26
ENDBRANCH   1  25
TORSDOF 6
ENDMDL
MODEL 9
REMARK VINA RESULT:      -7.1      3.278      6.907
REMARK  6 active torsions:
REMARK  status: ('A' for Active; 'I' for Inactive)
REMARK    1  A    between atoms: C_2  and  O_3 
REMARK    2  A    between atoms: O_3  and  C_4 
REMARK    3  A    between atoms: C_9  and  S_10 
REMARK    4  A    between atoms: S_10  and  C_11 
REMARK    5  A    between atoms: C_11  and  C_12 
REMARK       I    between atoms: C_12  and  N_13 
REMARK    6  A    between atoms: N_13  and  C_14 
ROOT
HETATM    1  C   UNL     1      42.782 -16.622   2.228  1.00  0.00     0.069 A 
HETATM    2  C   UNL     1      43.293 -15.371   2.572  1.00  0.00     0.050 A 
HETATM    3  C   UNL     1      42.423 -14.313   2.908  1.00  0.00    -0.004 A 
HETATM    4  C   UNL     1      41.030 -14.499   2.892  1.00  0.00     0.068 A 
HETATM    5  N   UNL     1      40.171 -13.517   3.208  1.00  0.00    -0.241 NA
HETATM    6  C   UNL     1      40.662 -12.302   3.556  1.00  0.00     0.100 A 
HETATM    7  C   UNL     1      42.025 -12.020   3.623  1.00  0.00    -0.026 A 
HETATM    8  C   UNL     1      42.585 -10.679   3.995  1.00  0.00     0.051 C 
HETATM    9  C   UNL     1      42.907 -13.049   3.272  1.00  0.00     0.023 A 
HETATM   10  C   UNL     1      40.542 -15.748   2.539  1.00  0.00     0.035 A 
HETATM   11  C   UNL     1      41.401 -16.802   2.210  1.00  0.00     0.039 A 
ENDROOT
BRANCH   6  12
HETATM   12  S   UNL     1      39.378 -11.124   3.914  1.00  0.00    -0.096 SA
BRANCH  12  13
HETATM   13  C   UNL     1      39.398 -10.127   2.377  1.00  0.00     0.142 C 
HETATM   14  C   UNL     1      38.032  -9.471   2.206  1.00  0.00     0.031 C 
BRANCH  13  15
HETATM   15  C   UNL     1      39.745 -10.928   1.120  1.00  0.00     0.236 C 
HETATM   16  N   UNL     1      38.790 -11.853   0.743  1.00  0.00    -0.326 N 
HETATM   17  H   UNL     1      38.121 -12.102   1.467  1.00  0.00     0.169 HD
HETATM   18  O   UNL     1      40.774 -10.659   0.501  1.00  0.00    -0.272 OA
BRANCH  16  19
HETATM   19  C   UNL     1      38.779 -12.663  -0.408  1.00  0.00     0.034 A 
HETATM   20  C   UNL     1      37.926 -12.464  -1.494  1.00  0.00     0.029 A 
HETATM   21  C   UNL     1      37.976 -13.320  -2.600  1.00  0.00     0.002 A 
HETATM   22  C   UNL     1      38.874 -14.384  -2.625  1.00  0.00     0.000 A 
HETATM   23  C   UNL     1      39.725 -14.594  -1.544  1.00  0.00     0.002 A 
HETATM   24  C   UNL     1      39.676 -13.738  -0.440  1.00  0.00     0.029 A 
ENDBRANCH  16  19
ENDBRANCH  13  15
ENDBRANCH  12  13
ENDBRANCH   6  12
BRANCH   1  25
HETATM   25  O   UNL     1      43.510 -17.729   1.896  1.00  0.00    -0.351 OA
BRANCH  25  26
HETATM   26  C   UNL     1      43.627 -18.753   2.883  1.00  0.00     0.171 C 
HETATM   27  C   UNL     1      43.552 -20.095   2.178  1.00  0.00     0.034 C 
ENDBRANCH  25  26
ENDBRANCH   1  25
TORSDOF 6
ENDMDL
MODEL 10
REMARK VINA RESULT:      -7.0     15.833     16.992
REMARK  6 active torsions:
REMARK  status: ('A' for Active; 'I' for Inactive)
REMARK    1  A    between atoms: C_2  and  O_3 
REMARK    2  A    between atoms: O_3  and  C_4 
REMARK    3  A    between atoms: C_9  and  S_10 
REMARK    4  A    between atoms: S_10  and  C_11 
REMARK    5  A    between atoms: C_11  and  C_12 
REMARK       I    between atoms: C_12  and  N_13 
REMARK    6  A    between atoms: N_13  and  C_14 
ROOT
HETATM    1  C   UNL     1      42.524 -30.435   2.327  1.00  0.00     0.069 A 
HETATM    2  C   UNL     1      42.549 -29.952   1.020  1.00  0.00     0.050 A 
HETATM    3  C   UNL     1      43.748 -29.459   0.464  1.00  0.00    -0.004 A 
HETATM    4  C   UNL     1      44.932 -29.438   1.221  1.00  0.00     0.068 A 
HETATM    5  N   UNL     1      46.092 -28.978   0.727  1.00  0.00    -0.241 NA
HETATM    6  C   UNL     1      46.126 -28.519  -0.548  1.00  0.00     0.100 A 
HETATM    7  C   UNL     1      45.015 -28.515  -1.389  1.00  0.00    -0.026 A 
HETATM    8  C   UNL     1      45.032 -28.001  -2.798  1.00  0.00     0.051 C 
HETATM    9  C   UNL     1      43.808 -28.981  -0.852  1.00  0.00     0.023 A 
HETATM   10  C   UNL     1      44.883 -29.914   2.522  1.00  0.00     0.035 A 
HETATM   11  C   UNL     1      43.698 -30.410   3.075  1.00  0.00     0.039 A 
ENDROOT
BRANCH   6  12
HETATM   12  S   UNL     1      47.738 -27.928  -1.018  1.00  0.00    -0.096 SA
BRANCH  12  13
HETATM   13  C   UNL     1      48.566 -29.507  -1.437  1.00  0.00     0.142 C 
HETATM   14  C   UNL     1      47.587 -30.378  -2.216  1.00  0.00     0.031 C 
BRANCH  13  15
HETATM   15  C   UNL     1      49.087 -30.279  -0.221  1.00  0.00     0.236 C 
HETATM   16  N   UNL     1      49.204 -29.526   0.932  1.00  0.00    -0.326 N 
HETATM   17  H   UNL     1      49.211 -28.519   0.792  1.00  0.00     0.169 HD
HETATM   18  O   UNL     1      49.288 -31.488  -0.318  1.00  0.00    -0.272 OA
BRANCH  16  19
HETATM   19  C   UNL     1      49.560 -29.969   2.220  1.00  0.00     0.034 A 
HETATM   20  C   UNL     1      50.875 -30.176   2.638  1.00  0.00     0.029 A 
HETATM   21  C   UNL     1      51.144 -30.624   3.936  1.00  0.00     0.002 A 
HETATM   22  C   UNL     1      50.100 -30.872   4.823  1.00  0.00     0.000 A 
HETATM   23  C   UNL     1      48.784 -30.675   4.414  1.00  0.00     0.002 A 
HETATM   24  C   UNL     1      48.516 -30.227   3.118  1.00  0.00     0.029 A 
ENDBRANCH  16  19
ENDBRANCH  13  15
ENDBRANCH  12  13
ENDBRANCH   6  12
BRANCH   1  25
HETATM   25  O   UNL     1      41.439 -30.951   2.977  1.00  0.00    -0.351 OA
BRANCH  25  26
HETATM   26  C   UNL     1      41.273 -30.601   4.350  1.00  0.00     0.171 C 
HETATM   27  C   UNL     1      40.131 -31.428   4.911  1.00  0.00     0.034 C 
ENDBRANCH  25  26
ENDBRANCH   1  25
TORSDOF 6
ENDMDL
