MODEL 1
REMARK VINA RESULT:      -9.8      0.000      0.000
REMARK  6 active torsions:
REMARK  status: ('A' for Active; 'I' for Inactive)
REMARK    1  A    between atoms: C_9  and  C_10 
REMARK       I    between atoms: C_10  and  N_11 
REMARK    2  A    between atoms: N_11  and  N_12 
REMARK       I    between atoms: N_12  and  C_13 
REMARK       I    between atoms: C_13  and  N_14 
REMARK    3  A    between atoms: N_14  and  C_15 
REMARK    4  A    between atoms: C_15  and  C_16 
REMARK    5  A    between atoms: C_16  and  C_17 
REMARK    6  A    between atoms: C_16  and  C_27 
ROOT
HETATM    1  N   UNL     1      42.653 -11.773   6.532  1.00  0.00    -0.249 N 
HETATM    2  C   UNL     1      43.164 -13.007   6.860  1.00  0.00     0.334 C 
HETATM    3  N   UNL     1      43.231 -13.841   5.771  1.00  0.00    -0.341 N 
HETATM    4  O   UNL     1      43.491 -13.322   7.998  1.00  0.00    -0.246 OA
HETATM    5  H   UNL     1      42.694 -11.428   5.578  1.00  0.00     0.192 HD
HETATM    6  H   UNL     1      42.531 -13.650   5.065  1.00  0.00     0.164 HD
ENDROOT
BRANCH   1   7
HETATM    7  N   UNL     1      42.547 -10.808   7.544  1.00  0.00    -0.261 N 
HETATM    8  C   UNL     1      43.635  -9.984   7.761  1.00  0.00     0.291 C 
HETATM    9  O   UNL     1      44.762 -10.191   7.336  1.00  0.00    -0.264 OA
HETATM   10  H   UNL     1      41.612 -10.415   7.694  1.00  0.00     0.190 HD
BRANCH   8  11
HETATM   11  C   UNL     1      43.286  -8.728   8.567  1.00  0.00     0.157 A 
HETATM   12  C   UNL     1      43.171  -8.760  10.044  1.00  0.00     0.016 A 
HETATM   13  C   UNL     1      43.286  -9.920  10.818  1.00  0.00     0.015 A 
HETATM   14  C   UNL     1      42.923  -7.543  10.683  1.00  0.00     0.046 A 
HETATM   15  C   UNL     1      43.186  -9.850  12.213  1.00  0.00     0.001 A 
HETATM   16  C   UNL     1      42.961  -8.628  12.842  1.00  0.00     0.001 A 
HETATM   17  C   UNL     1      42.824  -7.472  12.078  1.00  0.00     0.018 A 
HETATM   18  C   UNL     1      42.749  -6.324   9.875  1.00  0.00     0.272 A 
HETATM   19  O   UNL     1      42.531  -5.235  10.395  1.00  0.00    -0.266 OA
HETATM   20  N   UNL     1      42.832  -6.485   8.513  1.00  0.00    -0.242 N 
HETATM   21  N   UNL     1      43.112  -7.645   7.860  1.00  0.00    -0.166 NA
HETATM   22  H   UNL     1      42.717  -5.652   7.942  1.00  0.00     0.192 HD
ENDBRANCH   8  11
ENDBRANCH   1   7
BRANCH   3  23
HETATM   23  C   UNL     1      43.581 -15.244   5.963  1.00  0.00     0.139 C 
BRANCH  23  24
HETATM   24  C   UNL     1      43.593 -16.065   4.652  1.00  0.00     0.079 C 
BRANCH  24  25
HETATM   25  C   UNL     1      43.669 -17.552   4.922  1.00  0.00    -0.020 A 
HETATM   26  C   UNL     1      43.728 -18.596   3.936  1.00  0.00    -0.001 A 
HETATM   27  C   UNL     1      43.794 -19.813   4.615  1.00  0.00     0.042 A 
HETATM   28  C   UNL     1      43.731 -18.619   2.525  1.00  0.00     0.014 A 
HETATM   29  C   UNL     1      43.865 -21.048   3.958  1.00  0.00     0.030 A 
HETATM   30  N   UNL     1      43.769 -19.530   5.959  1.00  0.00    -0.365 N 
HETATM   31  C   UNL     1      43.871 -21.040   2.562  1.00  0.00     0.002 A 
HETATM   32  C   UNL     1      43.805 -19.844   1.852  1.00  0.00     0.001 A 
HETATM   33  H   UNL     1      43.800 -20.226   6.691  1.00  0.00     0.165 HD
HETATM   34  C   UNL     1      43.701 -18.179   6.157  1.00  0.00     0.097 A 
ENDBRANCH  24  25
BRANCH  24  35
HETATM   35  C   UNL     1      42.402 -15.730   3.765  1.00  0.00    -0.007 A 
HETATM   36  S   UNL     1      42.635 -14.791   2.345  1.00  0.00    -0.106 SA
HETATM   37  C   UNL     1      40.975 -14.848   1.950  1.00  0.00     0.050 A 
HETATM   38  C   UNL     1      40.247 -15.561   2.876  1.00  0.00     0.008 A 
HETATM   39  C   UNL     1      41.069 -16.071   3.920  1.00  0.00     0.016 A 
ENDBRANCH  24  35
ENDBRANCH  23  24
ENDBRANCH   3  23
TORSDOF 6
ENDMDL
MODEL 2
REMARK VINA RESULT:      -9.8      6.132      9.659
REMARK  6 active torsions:
REMARK  status: ('A' for Active; 'I' for Inactive)
REMARK    1  A    between atoms: C_9  and  C_10 
REMARK       I    between atoms: C_10  and  N_11 
REMARK    2  A    between atoms: N_11  and  N_12 
REMARK       I    between atoms: N_12  and  C_13 
REMARK       I    between atoms: C_13  and  N_14 
REMARK    3  A    between atoms: N_14  and  C_15 
REMARK    4  A    between atoms: C_15  and  C_16 
REMARK    5  A    between atoms: C_16  and  C_17 
REMARK    6  A    between atoms: C_16  and  C_27 
ROOT
HETATM    1  N   UNL     1      38.973 -14.297   2.382  1.00  0.00    -0.249 N 
HETATM    2  C   UNL     1      38.984 -12.934   2.567  1.00  0.00     0.334 C 
HETATM    3  N   UNL     1      38.019 -12.307   1.817  1.00  0.00    -0.341 N 
HETATM    4  O   UNL     1      39.782 -12.358   3.297  1.00  0.00    -0.246 OA
HETATM    5  H   UNL     1      38.139 -14.772   2.051  1.00  0.00     0.192 HD
HETATM    6  H   UNL     1      37.784 -12.793   0.961  1.00  0.00     0.164 HD
ENDROOT
BRANCH   1   7
HETATM    7  N   UNL     1      39.892 -15.072   3.103  1.00  0.00    -0.261 N 
HETATM    8  C   UNL     1      41.182 -15.159   2.611  1.00  0.00     0.291 C 
HETATM    9  O   UNL     1      41.519 -14.842   1.480  1.00  0.00    -0.264 OA
HETATM   10  H   UNL     1      39.766 -15.090   4.120  1.00  0.00     0.190 HD
BRANCH   8  11
HETATM   11  C   UNL     1      42.189 -15.659   3.652  1.00  0.00     0.157 A 
HETATM   12  C   UNL     1      42.859 -16.973   3.515  1.00  0.00     0.016 A 
HETATM   13  C   UNL     1      42.589 -17.893   2.496  1.00  0.00     0.015 A 
HETATM   14  C   UNL     1      43.816 -17.296   4.480  1.00  0.00     0.046 A 
HETATM   15  C   UNL     1      43.291 -19.103   2.433  1.00  0.00     0.001 A 
HETATM   16  C   UNL     1      44.258 -19.406   3.388  1.00  0.00     0.001 A 
HETATM   17  C   UNL     1      44.519 -18.506   4.418  1.00  0.00     0.018 A 
HETATM   18  C   UNL     1      44.072 -16.358   5.586  1.00  0.00     0.272 A 
HETATM   19  O   UNL     1      44.903 -16.601   6.455  1.00  0.00    -0.266 OA
HETATM   20  N   UNL     1      43.319 -15.209   5.591  1.00  0.00    -0.242 N 
HETATM   21  N   UNL     1      42.412 -14.844   4.647  1.00  0.00    -0.166 NA
HETATM   22  H   UNL     1      43.487 -14.550   6.347  1.00  0.00     0.192 HD
ENDBRANCH   8  11
ENDBRANCH   1   7
BRANCH   3  23
HETATM   23  C   UNL     1      37.998 -10.849   1.751  1.00  0.00     0.139 C 
BRANCH  23  24
HETATM   24  C   UNL     1      38.635 -10.279   0.462  1.00  0.00     0.079 C 
BRANCH  24  25
HETATM   25  C   UNL     1      39.467 -11.317  -0.259  1.00  0.00    -0.020 A 
HETATM   26  C   UNL     1      38.988 -12.285  -1.207  1.00  0.00    -0.001 A 
HETATM   27  C   UNL     1      40.084 -13.038  -1.629  1.00  0.00     0.042 A 
HETATM   28  C   UNL     1      37.721 -12.591  -1.748  1.00  0.00     0.014 A 
HETATM   29  C   UNL     1      39.980 -14.077  -2.563  1.00  0.00     0.030 A 
HETATM   30  N   UNL     1      41.187 -12.559  -0.964  1.00  0.00    -0.365 N 
HETATM   31  C   UNL     1      38.714 -14.355  -3.084  1.00  0.00     0.002 A 
HETATM   32  C   UNL     1      37.599 -13.625  -2.684  1.00  0.00     0.001 A 
HETATM   33  H   UNL     1      42.123 -12.923  -1.072  1.00  0.00     0.165 HD
HETATM   34  C   UNL     1      40.832 -11.524  -0.144  1.00  0.00     0.097 A 
ENDBRANCH  24  25
BRANCH  24  35
HETATM   35  C   UNL     1      37.589  -9.675  -0.465  1.00  0.00    -0.007 A 
HETATM   36  S   UNL     1      38.089  -8.750  -1.825  1.00  0.00    -0.106 SA
HETATM   37  C   UNL     1      36.477  -8.452  -2.302  1.00  0.00     0.050 A 
HETATM   38  C   UNL     1      35.568  -9.035  -1.449  1.00  0.00     0.008 A 
HETATM   39  C   UNL     1      36.209  -9.742  -0.392  1.00  0.00     0.016 A 
ENDBRANCH  24  35
ENDBRANCH  23  24
ENDBRANCH   3  23
TORSDOF 6
ENDMDL
MODEL 3
REMARK VINA RESULT:      -9.6      6.137     10.277
REMARK  6 active torsions:
REMARK  status: ('A' for Active; 'I' for Inactive)
REMARK    1  A    between atoms: C_9  and  C_10 
REMARK       I    between atoms: C_10  and  N_11 
REMARK    2  A    between atoms: N_11  and  N_12 
REMARK       I    between atoms: N_12  and  C_13 
REMARK       I    between atoms: C_13  and  N_14 
REMARK    3  A    between atoms: N_14  and  C_15 
REMARK    4  A    between atoms: C_15  and  C_16 
REMARK    5  A    between atoms: C_16  and  C_17 
REMARK    6  A    between atoms: C_16  and  C_27 
ROOT
HETATM    1  N   UNL     1      39.029 -14.202   2.246  1.00  0.00    -0.249 N 
HETATM    2  C   UNL     1      39.276 -12.852   2.152  1.00  0.00     0.334 C 
HETATM    3  N   UNL     1      38.345 -12.214   1.368  1.00  0.00    -0.341 N 
HETATM    4  O   UNL     1      40.230 -12.301   2.688  1.00  0.00    -0.246 OA
HETATM    5  H   UNL     1      38.100 -14.576   2.082  1.00  0.00     0.192 HD
HETATM    6  H   UNL     1      37.944 -12.801   0.648  1.00  0.00     0.164 HD
ENDROOT
BRANCH   1   7
HETATM    7  N   UNL     1      39.889 -14.981   3.035  1.00  0.00    -0.261 N 
HETATM    8  C   UNL     1      41.079 -15.396   2.467  1.00  0.00     0.291 C 
HETATM    9  O   UNL     1      41.327 -15.370   1.271  1.00  0.00    -0.264 OA
HETATM   10  H   UNL     1      39.883 -14.779   4.040  1.00  0.00     0.190 HD
BRANCH   8  11
HETATM   11  C   UNL     1      42.107 -15.864   3.502  1.00  0.00     0.157 A 
HETATM   12  C   UNL     1      42.800 -17.167   3.375  1.00  0.00     0.016 A 
HETATM   13  C   UNL     1      42.534 -18.106   2.371  1.00  0.00     0.015 A 
HETATM   14  C   UNL     1      43.772 -17.460   4.333  1.00  0.00     0.046 A 
HETATM   15  C   UNL     1      43.257 -19.303   2.316  1.00  0.00     0.001 A 
HETATM   16  C   UNL     1      44.241 -19.576   3.264  1.00  0.00     0.001 A 
HETATM   17  C   UNL     1      44.497 -18.658   4.278  1.00  0.00     0.018 A 
HETATM   18  C   UNL     1      44.025 -16.503   5.424  1.00  0.00     0.272 A 
HETATM   19  O   UNL     1      44.870 -16.719   6.285  1.00  0.00    -0.266 OA
HETATM   20  N   UNL     1      43.251 -15.368   5.422  1.00  0.00    -0.242 N 
HETATM   21  N   UNL     1      42.326 -15.032   4.483  1.00  0.00    -0.166 NA
HETATM   22  H   UNL     1      43.416 -14.695   6.167  1.00  0.00     0.192 HD
ENDBRANCH   8  11
ENDBRANCH   1   7
BRANCH   3  23
HETATM   23  C   UNL     1      38.548 -10.814   1.013  1.00  0.00     0.139 C 
BRANCH  23  24
HETATM   24  C   UNL     1      38.979 -10.604  -0.458  1.00  0.00     0.079 C 
BRANCH  24  25
HETATM   25  C   UNL     1      40.233  -9.763  -0.560  1.00  0.00    -0.020 A 
HETATM   26  C   UNL     1      40.758  -9.157  -1.753  1.00  0.00    -0.001 A 
HETATM   27  C   UNL     1      41.920  -8.471  -1.399  1.00  0.00     0.042 A 
HETATM   28  C   UNL     1      40.352  -9.128  -3.104  1.00  0.00     0.014 A 
HETATM   29  C   UNL     1      42.693  -7.756  -2.323  1.00  0.00     0.030 A 
HETATM   30  N   UNL     1      42.105  -8.653  -0.050  1.00  0.00    -0.365 N 
HETATM   31  C   UNL     1      42.265  -7.742  -3.653  1.00  0.00     0.002 A 
HETATM   32  C   UNL     1      41.112  -8.418  -4.041  1.00  0.00     0.001 A 
HETATM   33  H   UNL     1      42.875  -8.269   0.479  1.00  0.00     0.165 HD
HETATM   34  C   UNL     1      41.097  -9.420   0.466  1.00  0.00     0.097 A 
ENDBRANCH  24  25
BRANCH  24  35
HETATM   35  C   UNL     1      39.145 -11.927  -1.192  1.00  0.00    -0.007 A 
HETATM   36  S   UNL     1      37.803 -12.622  -2.010  1.00  0.00    -0.106 SA
HETATM   37  C   UNL     1      38.723 -13.967  -2.522  1.00  0.00     0.050 A 
HETATM   38  C   UNL     1      40.025 -13.902  -2.081  1.00  0.00     0.008 A 
HETATM   39  C   UNL     1      40.269 -12.725  -1.317  1.00  0.00     0.016 A 
ENDBRANCH  24  35
ENDBRANCH  23  24
ENDBRANCH   3  23
TORSDOF 6
ENDMDL
MODEL 4
REMARK VINA RESULT:      -9.6      2.963      4.363
REMARK  6 active torsions:
REMARK  status: ('A' for Active; 'I' for Inactive)
REMARK    1  A    between atoms: C_9  and  C_10 
REMARK       I    between atoms: C_10  and  N_11 
REMARK    2  A    between atoms: N_11  and  N_12 
REMARK       I    between atoms: N_12  and  C_13 
REMARK       I    between atoms: C_13  and  N_14 
REMARK    3  A    between atoms: N_14  and  C_15 
REMARK    4  A    between atoms: C_15  and  C_16 
REMARK    5  A    between atoms: C_16  and  C_17 
REMARK    6  A    between atoms: C_16  and  C_27 
ROOT
HETATM    1  N   UNL     1      43.634 -11.271   6.640  1.00  0.00    -0.249 N 
HETATM    2  C   UNL     1      42.665 -10.964   5.712  1.00  0.00     0.334 C 
HETATM    3  N   UNL     1      43.116 -11.132   4.425  1.00  0.00    -0.341 N 
HETATM    4  O   UNL     1      41.547 -10.564   6.011  1.00  0.00    -0.246 OA
HETATM    5  H   UNL     1      44.406 -11.886   6.403  1.00  0.00     0.192 HD
HETATM    6  H   UNL     1      44.113 -10.994   4.318  1.00  0.00     0.164 HD
ENDROOT
BRANCH   1   7
HETATM    7  N   UNL     1      43.308 -11.166   7.999  1.00  0.00    -0.261 N 
HETATM    8  C   UNL     1      44.317 -10.810   8.875  1.00  0.00     0.291 C 
HETATM    9  O   UNL     1      45.510 -10.836   8.610  1.00  0.00    -0.264 OA
HETATM   10  H   UNL     1      42.357 -10.847   8.211  1.00  0.00     0.190 HD
BRANCH   8  11
HETATM   11  C   UNL     1      43.793 -10.322  10.229  1.00  0.00     0.157 A 
HETATM   12  C   UNL     1      43.394  -8.912  10.445  1.00  0.00     0.016 A 
HETATM   13  C   UNL     1      43.526  -7.901   9.488  1.00  0.00     0.015 A 
HETATM   14  C   UNL     1      42.859  -8.594  11.696  1.00  0.00     0.046 A 
HETATM   15  C   UNL     1      43.098  -6.598   9.774  1.00  0.00     0.001 A 
HETATM   16  C   UNL     1      42.546  -6.295  11.016  1.00  0.00     0.001 A 
HETATM   17  C   UNL     1      42.430  -7.291  11.982  1.00  0.00     0.018 A 
HETATM   18  C   UNL     1      42.763  -9.639  12.729  1.00  0.00     0.272 A 
HETATM   19  O   UNL     1      42.299  -9.403  13.839  1.00  0.00    -0.266 OA
HETATM   20  N   UNL     1      43.233 -10.881  12.378  1.00  0.00    -0.242 N 
HETATM   21  N   UNL     1      43.720 -11.236  11.158  1.00  0.00    -0.166 NA
HETATM   22  H   UNL     1      43.170 -11.614  13.079  1.00  0.00     0.192 HD
ENDBRANCH   8  11
ENDBRANCH   1   7
BRANCH   3  23
HETATM   23  C   UNL     1      42.285 -10.686   3.312  1.00  0.00     0.139 C 
BRANCH  23  24
HETATM   24  C   UNL     1      42.147 -11.734   2.183  1.00  0.00     0.079 C 
BRANCH  24  25
HETATM   25  C   UNL     1      41.540 -13.025   2.689  1.00  0.00    -0.020 A 
HETATM   26  C   UNL     1      42.048 -14.351   2.466  1.00  0.00    -0.001 A 
HETATM   27  C   UNL     1      41.191 -15.244   3.109  1.00  0.00     0.042 A 
HETATM   28  C   UNL     1      43.161 -14.876   1.775  1.00  0.00     0.014 A 
HETATM   29  C   UNL     1      41.390 -16.631   3.100  1.00  0.00     0.030 A 
HETATM   30  N   UNL     1      40.196 -14.501   3.696  1.00  0.00    -0.365 N 
HETATM   31  C   UNL     1      42.501 -17.122   2.411  1.00  0.00     0.002 A 
HETATM   32  C   UNL     1      43.376 -16.259   1.757  1.00  0.00     0.001 A 
HETATM   33  H   UNL     1      39.430 -14.889   4.228  1.00  0.00     0.165 HD
HETATM   34  C   UNL     1      40.396 -13.169   3.457  1.00  0.00     0.097 A 
ENDBRANCH  24  25
BRANCH  24  35
HETATM   35  C   UNL     1      41.363 -11.189   0.997  1.00  0.00    -0.007 A 
HETATM   36  S   UNL     1      40.887  -9.538   0.978  1.00  0.00    -0.106 SA
HETATM   37  C   UNL     1      40.121  -9.705  -0.539  1.00  0.00     0.050 A 
HETATM   38  C   UNL     1      40.215 -10.988  -1.028  1.00  0.00     0.008 A 
HETATM   39  C   UNL     1      40.933 -11.842  -0.144  1.00  0.00     0.016 A 
ENDBRANCH  24  35
ENDBRANCH  23  24
ENDBRANCH   3  23
TORSDOF 6
ENDMDL
MODEL 5
REMARK VINA RESULT:      -9.5      5.985      9.634
REMARK  6 active torsions:
REMARK  status: ('A' for Active; 'I' for Inactive)
REMARK    1  A    between atoms: C_9  and  C_10 
REMARK       I    between atoms: C_10  and  N_11 
REMARK    2  A    between atoms: N_11  and  N_12 
REMARK       I    between atoms: N_12  and  C_13 
REMARK       I    between atoms: C_13  and  N_14 
REMARK    3  A    between atoms: N_14  and  C_15 
REMARK    4  A    between atoms: C_15  and  C_16 
REMARK    5  A    between atoms: C_16  and  C_17 
REMARK    6  A    between atoms: C_16  and  C_27 
ROOT
HETATM    1  N   UNL     1      39.017 -13.246   2.979  1.00  0.00    -0.249 N 
HETATM    2  C   UNL     1      39.573 -12.066   2.541  1.00  0.00     0.334 C 
HETATM    3  N   UNL     1      38.723 -11.376   1.712  1.00  0.00    -0.341 N 
HETATM    4  O   UNL     1      40.703 -11.700   2.841  1.00  0.00    -0.246 OA
HETATM    5  H   UNL     1      38.011 -13.374   2.993  1.00  0.00     0.192 HD
HETATM    6  H   UNL     1      38.086 -11.967   1.193  1.00  0.00     0.164 HD
ENDROOT
BRANCH   1   7
HETATM    7  N   UNL     1      39.765 -14.048   3.853  1.00  0.00    -0.261 N 
HETATM    8  C   UNL     1      40.431 -15.134   3.315  1.00  0.00     0.291 C 
HETATM    9  O   UNL     1      40.215 -15.605   2.208  1.00  0.00    -0.264 OA
HETATM   10  H   UNL     1      40.201 -13.565   4.646  1.00  0.00     0.190 HD
BRANCH   8  11
HETATM   11  C   UNL     1      41.525 -15.684   4.236  1.00  0.00     0.157 A 
HETATM   12  C   UNL     1      42.409 -16.795   3.813  1.00  0.00     0.016 A 
HETATM   13  C   UNL     1      42.285 -17.483   2.601  1.00  0.00     0.015 A 
HETATM   14  C   UNL     1      43.422 -17.166   4.701  1.00  0.00     0.046 A 
HETATM   15  C   UNL     1      43.184 -18.506   2.276  1.00  0.00     0.001 A 
HETATM   16  C   UNL     1      44.204 -18.855   3.158  1.00  0.00     0.001 A 
HETATM   17  C   UNL     1      44.322 -18.190   4.375  1.00  0.00     0.018 A 
HETATM   18  C   UNL     1      43.531 -16.484   6.001  1.00  0.00     0.272 A 
HETATM   19  O   UNL     1      44.404 -16.778   6.809  1.00  0.00    -0.266 OA
HETATM   20  N   UNL     1      42.591 -15.514   6.255  1.00  0.00    -0.242 N 
HETATM   21  N   UNL     1      41.620 -15.098   5.399  1.00  0.00    -0.166 NA
HETATM   22  H   UNL     1      42.656 -15.031   7.147  1.00  0.00     0.192 HD
ENDBRANCH   8  11
ENDBRANCH   1   7
BRANCH   3  23
HETATM   23  C   UNL     1      39.211 -10.191   1.012  1.00  0.00     0.139 C 
BRANCH  23  24
HETATM   24  C   UNL     1      40.235 -10.509  -0.102  1.00  0.00     0.079 C 
BRANCH  24  25
HETATM   25  C   UNL     1      39.576 -11.151  -1.303  1.00  0.00    -0.020 A 
HETATM   26  C   UNL     1      39.399 -12.560  -1.527  1.00  0.00    -0.001 A 
HETATM   27  C   UNL     1      38.743 -12.713  -2.749  1.00  0.00     0.042 A 
HETATM   28  C   UNL     1      39.736 -13.722  -0.801  1.00  0.00     0.014 A 
HETATM   29  C   UNL     1      38.405 -13.964  -3.280  1.00  0.00     0.030 A 
HETATM   30  N   UNL     1      38.533 -11.454  -3.258  1.00  0.00    -0.365 N 
HETATM   31  C   UNL     1      38.748 -15.097  -2.539  1.00  0.00     0.002 A 
HETATM   32  C   UNL     1      39.404 -14.981  -1.316  1.00  0.00     0.001 A 
HETATM   33  H   UNL     1      38.080 -11.262  -4.139  1.00  0.00     0.165 HD
HETATM   34  C   UNL     1      39.022 -10.509  -2.398  1.00  0.00     0.097 A 
ENDBRANCH  24  25
BRANCH  24  35
HETATM   35  C   UNL     1      41.029  -9.275  -0.508  1.00  0.00    -0.007 A 
HETATM   36  S   UNL     1      40.461  -7.713  -0.068  1.00  0.00    -0.106 SA
HETATM   37  C   UNL     1      41.781  -6.943  -0.830  1.00  0.00     0.050 A 
HETATM   38  C   UNL     1      42.640  -7.845  -1.415  1.00  0.00     0.008 A 
HETATM   39  C   UNL     1      42.209  -9.188  -1.227  1.00  0.00     0.016 A 
ENDBRANCH  24  35
ENDBRANCH  23  24
ENDBRANCH   3  23
TORSDOF 6
ENDMDL
MODEL 6
REMARK VINA RESULT:      -9.4      6.232      9.596
REMARK  6 active torsions:
REMARK  status: ('A' for Active; 'I' for Inactive)
REMARK    1  A    between atoms: C_9  and  C_10 
REMARK       I    between atoms: C_10  and  N_11 
REMARK    2  A    between atoms: N_11  and  N_12 
REMARK       I    between atoms: N_12  and  C_13 
REMARK       I    between atoms: C_13  and  N_14 
REMARK    3  A    between atoms: N_14  and  C_15 
REMARK    4  A    between atoms: C_15  and  C_16 
REMARK    5  A    between atoms: C_16  and  C_17 
REMARK    6  A    between atoms: C_16  and  C_27 
ROOT
HETATM    1  N   UNL     1      40.855 -14.163  -0.532  1.00  0.00    -0.249 N 
HETATM    2  C   UNL     1      41.688 -13.954   0.543  1.00  0.00     0.334 C 
HETATM    3  N   UNL     1      42.382 -15.089   0.883  1.00  0.00    -0.341 N 
HETATM    4  O   UNL     1      41.772 -12.884   1.134  1.00  0.00    -0.246 OA
HETATM    5  H   UNL     1      41.029 -14.918  -1.187  1.00  0.00     0.192 HD
HETATM    6  H   UNL     1      41.896 -15.949   0.660  1.00  0.00     0.164 HD
ENDROOT
BRANCH   1   7
HETATM    7  N   UNL     1      40.097 -13.082  -1.005  1.00  0.00    -0.261 N 
HETATM    8  C   UNL     1      39.884 -12.998  -2.368  1.00  0.00     0.291 C 
HETATM    9  O   UNL     1      40.508 -13.625  -3.212  1.00  0.00    -0.264 OA
HETATM   10  H   UNL     1      39.355 -12.746  -0.383  1.00  0.00     0.190 HD
BRANCH   8  11
HETATM   11  C   UNL     1      38.732 -12.057  -2.739  1.00  0.00     0.157 A 
HETATM   12  C   UNL     1      38.975 -10.650  -3.134  1.00  0.00     0.016 A 
HETATM   13  C   UNL     1      40.233 -10.037  -3.132  1.00  0.00     0.015 A 
HETATM   14  C   UNL     1      37.861  -9.904  -3.525  1.00  0.00     0.046 A 
HETATM   15  C   UNL     1      40.370  -8.707  -3.545  1.00  0.00     0.001 A 
HETATM   16  C   UNL     1      39.256  -7.978  -3.953  1.00  0.00     0.001 A 
HETATM   17  C   UNL     1      37.997  -8.573  -3.939  1.00  0.00     0.018 A 
HETATM   18  C   UNL     1      36.525 -10.523  -3.482  1.00  0.00     0.272 A 
HETATM   19  O   UNL     1      35.521  -9.905  -3.817  1.00  0.00    -0.266 OA
HETATM   20  N   UNL     1      36.474 -11.821  -3.036  1.00  0.00    -0.242 N 
HETATM   21  N   UNL     1      37.542 -12.589  -2.688  1.00  0.00    -0.166 NA
HETATM   22  H   UNL     1      35.560 -12.263  -3.004  1.00  0.00     0.192 HD
ENDBRANCH   8  11
ENDBRANCH   1   7
BRANCH   3  23
HETATM   23  C   UNL     1      43.178 -15.102   2.106  1.00  0.00     0.139 C 
BRANCH  23  24
HETATM   24  C   UNL     1      42.381 -15.534   3.359  1.00  0.00     0.079 C 
BRANCH  24  25
HETATM   25  C   UNL     1      43.041 -16.695   4.070  1.00  0.00    -0.020 A 
HETATM   26  C   UNL     1      43.231 -18.019   3.546  1.00  0.00    -0.001 A 
HETATM   27  C   UNL     1      43.882 -18.771   4.525  1.00  0.00     0.042 A 
HETATM   28  C   UNL     1      42.911 -18.651   2.326  1.00  0.00     0.014 A 
HETATM   29  C   UNL     1      44.231 -20.116   4.347  1.00  0.00     0.030 A 
HETATM   30  N   UNL     1      44.077 -17.946   5.607  1.00  0.00    -0.365 N 
HETATM   31  C   UNL     1      43.903 -20.714   3.128  1.00  0.00     0.002 A 
HETATM   32  C   UNL     1      43.253 -19.994   2.130  1.00  0.00     0.001 A 
HETATM   33  H   UNL     1      44.524 -18.228   6.468  1.00  0.00     0.165 HD
HETATM   34  C   UNL     1      43.583 -16.698   5.345  1.00  0.00     0.097 A 
ENDBRANCH  24  25
BRANCH  24  35
HETATM   35  C   UNL     1      42.150 -14.369   4.311  1.00  0.00    -0.007 A 
HETATM   36  S   UNL     1      40.632 -14.201   5.100  1.00  0.00    -0.106 SA
HETATM   37  C   UNL     1      41.131 -12.782   5.908  1.00  0.00     0.050 A 
HETATM   38  C   UNL     1      42.422 -12.431   5.588  1.00  0.00     0.008 A 
HETATM   39  C   UNL     1      43.011 -13.346   4.671  1.00  0.00     0.016 A 
ENDBRANCH  24  35
ENDBRANCH  23  24
ENDBRANCH   3  23
TORSDOF 6
ENDMDL
MODEL 7
REMARK VINA RESULT:      -9.4      2.873     10.837
REMARK  6 active torsions:
REMARK  status: ('A' for Active; 'I' for Inactive)
REMARK    1  A    between atoms: C_9  and  C_10 
REMARK       I    between atoms: C_10  and  N_11 
REMARK    2  A    between atoms: N_11  and  N_12 
REMARK       I    between atoms: N_12  and  C_13 
REMARK       I    between atoms: C_13  and  N_14 
REMARK    3  A    between atoms: N_14  and  C_15 
REMARK    4  A    between atoms: C_15  and  C_16 
REMARK    5  A    between atoms: C_16  and  C_17 
REMARK    6  A    between atoms: C_16  and  C_27 
ROOT
HETATM    1  N   UNL     1      43.629 -12.585   7.864  1.00  0.00    -0.249 N 
HETATM    2  C   UNL     1      43.541 -11.216   7.958  1.00  0.00     0.334 C 
HETATM    3  N   UNL     1      43.518 -10.792   9.265  1.00  0.00    -0.341 N 
HETATM    4  O   UNL     1      43.465 -10.475   6.985  1.00  0.00    -0.246 OA
HETATM    5  H   UNL     1      44.007 -13.137   8.628  1.00  0.00     0.192 HD
HETATM    6  H   UNL     1      43.118 -11.464   9.907  1.00  0.00     0.164 HD
ENDROOT
BRANCH   1   7
HETATM    7  N   UNL     1      43.684 -13.160   6.586  1.00  0.00    -0.261 N 
HETATM    8  C   UNL     1      42.997 -14.343   6.386  1.00  0.00     0.291 C 
HETATM    9  O   UNL     1      42.570 -15.061   7.279  1.00  0.00    -0.264 OA
HETATM   10  H   UNL     1      43.747 -12.505   5.800  1.00  0.00     0.190 HD
BRANCH   8  11
HETATM   11  C   UNL     1      42.770 -14.663   4.905  1.00  0.00     0.157 A 
HETATM   12  C   UNL     1      43.184 -15.959   4.318  1.00  0.00     0.016 A 
HETATM   13  C   UNL     1      43.872 -16.956   5.018  1.00  0.00     0.015 A 
HETATM   14  C   UNL     1      42.860 -16.175   2.977  1.00  0.00     0.046 A 
HETATM   15  C   UNL     1      44.202 -18.161   4.386  1.00  0.00     0.001 A 
HETATM   16  C   UNL     1      43.856 -18.376   3.054  1.00  0.00     0.001 A 
HETATM   17  C   UNL     1      43.189 -17.381   2.344  1.00  0.00     0.018 A 
HETATM   18  C   UNL     1      42.181 -15.112   2.216  1.00  0.00     0.272 A 
HETATM   19  O   UNL     1      41.878 -15.260   1.038  1.00  0.00    -0.266 OA
HETATM   20  N   UNL     1      41.921 -13.950   2.902  1.00  0.00    -0.242 N 
HETATM   21  N   UNL     1      42.184 -13.722   4.217  1.00  0.00    -0.166 NA
HETATM   22  H   UNL     1      41.449 -13.209   2.391  1.00  0.00     0.192 HD
ENDBRANCH   8  11
ENDBRANCH   1   7
BRANCH   3  23
HETATM   23  C   UNL     1      43.250  -9.388   9.557  1.00  0.00     0.139 C 
BRANCH  23  24
HETATM   24  C   UNL     1      41.744  -9.061   9.694  1.00  0.00     0.079 C 
BRANCH  24  25
HETATM   25  C   UNL     1      41.264  -9.217  11.120  1.00  0.00    -0.020 A 
HETATM   26  C   UNL     1      41.833  -8.596  12.284  1.00  0.00    -0.001 A 
HETATM   27  C   UNL     1      41.083  -9.004  13.388  1.00  0.00     0.042 A 
HETATM   28  C   UNL     1      42.918  -7.721  12.503  1.00  0.00     0.014 A 
HETATM   29  C   UNL     1      41.360  -8.582  14.695  1.00  0.00     0.030 A 
HETATM   30  N   UNL     1      40.101  -9.845  12.924  1.00  0.00    -0.365 N 
HETATM   31  C   UNL     1      42.439  -7.714  14.881  1.00  0.00     0.002 A 
HETATM   32  C   UNL     1      43.209  -7.288  13.802  1.00  0.00     0.001 A 
HETATM   33  H   UNL     1      39.411 -10.296  13.508  1.00  0.00     0.165 HD
HETATM   34  C   UNL     1      40.194  -9.976  11.566  1.00  0.00     0.097 A 
ENDBRANCH  24  25
BRANCH  24  35
HETATM   35  C   UNL     1      41.415  -7.676   9.154  1.00  0.00    -0.007 A 
HETATM   36  S   UNL     1      42.326  -7.033   7.846  1.00  0.00    -0.106 SA
HETATM   37  C   UNL     1      41.425  -5.582   7.842  1.00  0.00     0.050 A 
HETATM   38  C   UNL     1      40.453  -5.573   8.815  1.00  0.00     0.008 A 
HETATM   39  C   UNL     1      40.444  -6.781   9.569  1.00  0.00     0.016 A 
ENDBRANCH  24  35
ENDBRANCH  23  24
ENDBRANCH   3  23
TORSDOF 6
ENDMDL
MODEL 8
REMARK VINA RESULT:      -9.4      3.227     10.129
REMARK  6 active torsions:
REMARK  status: ('A' for Active; 'I' for Inactive)
REMARK    1  A    between atoms: C_9  and  C_10 
REMARK       I    between atoms: C_10  and  N_11 
REMARK    2  A    between atoms: N_11  and  N_12 
REMARK       I    between atoms: N_12  and  C_13 
REMARK       I    between atoms: C_13  and  N_14 
REMARK    3  A    between atoms: N_14  and  C_15 
REMARK    4  A    between atoms: C_15  and  C_16 
REMARK    5  A    between atoms: C_16  and  C_17 
REMARK    6  A    between atoms: C_16  and  C_27 
ROOT
HETATM    1  N   UNL     1      43.448 -12.616   7.736  1.00  0.00    -0.249 N 
HETATM    2  C   UNL     1      44.090 -11.408   7.881  1.00  0.00     0.334 C 
HETATM    3  N   UNL     1      43.719 -10.766   9.037  1.00  0.00    -0.341 N 
HETATM    4  O   UNL     1      44.877 -10.959   7.057  1.00  0.00    -0.246 OA
HETATM    5  H   UNL     1      43.071 -13.107   8.541  1.00  0.00     0.192 HD
HETATM    6  H   UNL     1      42.780 -10.986   9.346  1.00  0.00     0.164 HD
ENDROOT
BRANCH   1   7
HETATM    7  N   UNL     1      43.746 -13.396   6.609  1.00  0.00    -0.261 N 
HETATM    8  C   UNL     1      42.933 -14.483   6.349  1.00  0.00     0.291 C 
HETATM    9  O   UNL     1      42.150 -14.975   7.148  1.00  0.00    -0.264 OA
HETATM   10  H   UNL     1      44.146 -12.894   5.809  1.00  0.00     0.190 HD
BRANCH   8  11
HETATM   11  C   UNL     1      43.070 -15.006   4.915  1.00  0.00     0.157 A 
HETATM   12  C   UNL     1      43.413 -16.419   4.633  1.00  0.00     0.016 A 
HETATM   13  C   UNL     1      43.714 -17.368   5.617  1.00  0.00     0.015 A 
HETATM   14  C   UNL     1      43.437 -16.806   3.292  1.00  0.00     0.046 A 
HETATM   15  C   UNL     1      44.003 -18.690   5.257  1.00  0.00     0.001 A 
HETATM   16  C   UNL     1      44.004 -19.071   3.917  1.00  0.00     0.001 A 
HETATM   17  C   UNL     1      43.726 -18.129   2.931  1.00  0.00     0.018 A 
HETATM   18  C   UNL     1      43.173 -15.804   2.245  1.00  0.00     0.272 A 
HETATM   19  O   UNL     1      43.183 -16.101   1.055  1.00  0.00    -0.266 OA
HETATM   20  N   UNL     1      42.928 -14.525   2.681  1.00  0.00    -0.242 N 
HETATM   21  N   UNL     1      42.855 -14.123   3.978  1.00  0.00    -0.166 NA
HETATM   22  H   UNL     1      42.740 -13.823   1.971  1.00  0.00     0.192 HD
ENDBRANCH   8  11
ENDBRANCH   1   7
BRANCH   3  23
HETATM   23  C   UNL     1      44.163  -9.395   9.269  1.00  0.00     0.139 C 
BRANCH  23  24
HETATM   24  C   UNL     1      43.004  -8.403   9.523  1.00  0.00     0.079 C 
BRANCH  24  25
HETATM   25  C   UNL     1      41.673  -8.971   9.081  1.00  0.00    -0.020 A 
HETATM   26  C   UNL     1      41.210  -9.106   7.728  1.00  0.00    -0.001 A 
HETATM   27  C   UNL     1      39.939  -9.679   7.773  1.00  0.00     0.042 A 
HETATM   28  C   UNL     1      41.755  -8.794   6.464  1.00  0.00     0.014 A 
HETATM   29  C   UNL     1      39.188  -9.958   6.623  1.00  0.00     0.030 A 
HETATM   30  N   UNL     1      39.631  -9.881   9.096  1.00  0.00    -0.365 N 
HETATM   31  C   UNL     1      39.755  -9.641   5.387  1.00  0.00     0.002 A 
HETATM   32  C   UNL     1      41.020  -9.067   5.305  1.00  0.00     0.001 A 
HETATM   33  H   UNL     1      38.764 -10.281   9.427  1.00  0.00     0.165 HD
HETATM   34  C   UNL     1      40.664  -9.467   9.891  1.00  0.00     0.097 A 
ENDBRANCH  24  25
BRANCH  24  35
HETATM   35  C   UNL     1      42.953  -7.954  10.976  1.00  0.00    -0.007 A 
HETATM   36  S   UNL     1      42.152  -6.490  11.388  1.00  0.00    -0.106 SA
HETATM   37  C   UNL     1      42.513  -6.677  13.046  1.00  0.00     0.050 A 
HETATM   38  C   UNL     1      43.231  -7.824  13.293  1.00  0.00     0.008 A 
HETATM   39  C   UNL     1      43.483  -8.562  12.102  1.00  0.00     0.016 A 
ENDBRANCH  24  35
ENDBRANCH  23  24
ENDBRANCH   3  23
TORSDOF 6
ENDMDL
MODEL 9
REMARK VINA RESULT:      -9.2      3.573      9.519
REMARK  6 active torsions:
REMARK  status: ('A' for Active; 'I' for Inactive)
REMARK    1  A    between atoms: C_9  and  C_10 
REMARK       I    between atoms: C_10  and  N_11 
REMARK    2  A    between atoms: N_11  and  N_12 
REMARK       I    between atoms: N_12  and  C_13 
REMARK       I    between atoms: C_13  and  N_14 
REMARK    3  A    between atoms: N_14  and  C_15 
REMARK    4  A    between atoms: C_15  and  C_16 
REMARK    5  A    between atoms: C_16  and  C_17 
REMARK    6  A    between atoms: C_16  and  C_27 
ROOT
HETATM    1  N   UNL     1      41.999 -10.199   4.424  1.00  0.00    -0.249 N 
HETATM    2  C   UNL     1      41.126 -10.102   5.483  1.00  0.00     0.334 C 
HETATM    3  N   UNL     1      41.121  -8.841   6.029  1.00  0.00    -0.341 N 
HETATM    4  O   UNL     1      40.459 -11.042   5.897  1.00  0.00    -0.246 OA
HETATM    5  H   UNL     1      42.284  -9.374   3.906  1.00  0.00     0.192 HD
HETATM    6  H   UNL     1      41.999  -8.347   5.928  1.00  0.00     0.164 HD
ENDROOT
BRANCH   1   7
HETATM    7  N   UNL     1      42.093 -11.427   3.753  1.00  0.00    -0.261 N 
HETATM    8  C   UNL     1      43.347 -11.999   3.637  1.00  0.00     0.291 C 
HETATM    9  O   UNL     1      44.401 -11.412   3.832  1.00  0.00    -0.264 OA
HETATM   10  H   UNL     1      41.288 -12.054   3.847  1.00  0.00     0.190 HD
BRANCH   8  11
HETATM   11  C   UNL     1      43.297 -13.487   3.277  1.00  0.00     0.157 A 
HETATM   12  C   UNL     1      42.995 -14.522   4.293  1.00  0.00     0.016 A 
HETATM   13  C   UNL     1      42.810 -14.259   5.655  1.00  0.00     0.015 A 
HETATM   14  C   UNL     1      42.900 -15.840   3.841  1.00  0.00     0.046 A 
HETATM   15  C   UNL     1      42.505 -15.300   6.539  1.00  0.00     0.001 A 
HETATM   16  C   UNL     1      42.391 -16.608   6.075  1.00  0.00     0.001 A 
HETATM   17  C   UNL     1      42.594 -16.883   4.725  1.00  0.00     0.018 A 
HETATM   18  C   UNL     1      43.143 -16.136   2.419  1.00  0.00     0.272 A 
HETATM   19  O   UNL     1      43.070 -17.278   1.979  1.00  0.00    -0.266 OA
HETATM   20  N   UNL     1      43.468 -15.063   1.625  1.00  0.00    -0.242 N 
HETATM   21  N   UNL     1      43.528 -13.764   2.022  1.00  0.00    -0.166 NA
HETATM   22  H   UNL     1      43.635 -15.251   0.640  1.00  0.00     0.192 HD
ENDBRANCH   8  11
ENDBRANCH   1   7
BRANCH   3  23
HETATM   23  C   UNL     1      40.390  -8.601   7.269  1.00  0.00     0.139 C 
BRANCH  23  24
HETATM   24  C   UNL     1      41.100  -9.159   8.524  1.00  0.00     0.079 C 
BRANCH  24  25
HETATM   25  C   UNL     1      42.557  -8.753   8.572  1.00  0.00    -0.020 A 
HETATM   26  C   UNL     1      43.681  -9.565   8.197  1.00  0.00    -0.001 A 
HETATM   27  C   UNL     1      44.834  -8.804   8.390  1.00  0.00     0.042 A 
HETATM   28  C   UNL     1      43.827 -10.882   7.709  1.00  0.00     0.014 A 
HETATM   29  C   UNL     1      46.121  -9.287   8.119  1.00  0.00     0.030 A 
HETATM   30  N   UNL     1      44.436  -7.579   8.870  1.00  0.00    -0.365 N 
HETATM   31  C   UNL     1      46.234 -10.592   7.634  1.00  0.00     0.002 A 
HETATM   32  C   UNL     1      45.104 -11.381   7.431  1.00  0.00     0.001 A 
HETATM   33  H   UNL     1      45.065  -6.825   9.105  1.00  0.00     0.165 HD
HETATM   34  C   UNL     1      43.074  -7.534   8.978  1.00  0.00     0.097 A 
ENDBRANCH  24  25
BRANCH  24  35
HETATM   35  C   UNL     1      40.379  -8.762   9.805  1.00  0.00    -0.007 A 
HETATM   36  S   UNL     1      40.735  -9.583  11.272  1.00  0.00    -0.106 SA
HETATM   37  C   UNL     1      39.612  -8.643  12.151  1.00  0.00     0.050 A 
HETATM   38  C   UNL     1      38.970  -7.724  11.354  1.00  0.00     0.008 A 
HETATM   39  C   UNL     1      39.413  -7.790  10.003  1.00  0.00     0.016 A 
ENDBRANCH  24  35
ENDBRANCH  23  24
ENDBRANCH   3  23
TORSDOF 6
ENDMDL
MODEL 10
REMARK VINA RESULT:      -9.2      5.245      9.088
REMARK  6 active torsions:
REMARK  status: ('A' for Active; 'I' for Inactive)
REMARK    1  A    between atoms: C_9  and  C_10 
REMARK       I    between atoms: C_10  and  N_11 
REMARK    2  A    between atoms: N_11  and  N_12 
REMARK       I    between atoms: N_12  and  C_13 
REMARK       I    between atoms: C_13  and  N_14 
REMARK    3  A    between atoms: N_14  and  C_15 
REMARK    4  A    between atoms: C_15  and  C_16 
REMARK    5  A    between atoms: C_16  and  C_17 
REMARK    6  A    between atoms: C_16  and  C_27 
ROOT
HETATM    1  N   UNL     1      39.074 -13.925   2.399  1.00  0.00    -0.249 N 
HETATM    2  C   UNL     1      38.919 -12.574   2.192  1.00  0.00     0.334 C 
HETATM    3  N   UNL     1      38.310 -12.306   0.990  1.00  0.00    -0.341 N 
HETATM    4  O   UNL     1      39.307 -11.721   2.982  1.00  0.00    -0.246 OA
HETATM    5  H   UNL     1      38.483 -14.597   1.919  1.00  0.00     0.192 HD
HETATM    6  H   UNL     1      38.481 -13.005   0.279  1.00  0.00     0.164 HD
ENDROOT
BRANCH   1   7
HETATM    7  N   UNL     1      39.664 -14.350   3.598  1.00  0.00    -0.261 N 
HETATM    8  C   UNL     1      40.922 -14.919   3.528  1.00  0.00     0.291 C 
HETATM    9  O   UNL     1      41.449 -15.320   2.500  1.00  0.00    -0.264 OA
HETATM   10  H   UNL     1      39.433 -13.800   4.432  1.00  0.00     0.190 HD
BRANCH   8  11
HETATM   11  C   UNL     1      41.638 -14.962   4.881  1.00  0.00     0.157 A 
HETATM   12  C   UNL     1      42.561 -13.883   5.306  1.00  0.00     0.016 A 
HETATM   13  C   UNL     1      42.920 -12.793   4.506  1.00  0.00     0.015 A 
HETATM   14  C   UNL     1      43.101 -13.986   6.590  1.00  0.00     0.046 A 
HETATM   15  C   UNL     1      43.782 -11.807   5.002  1.00  0.00     0.001 A 
HETATM   16  C   UNL     1      44.298 -11.907   6.292  1.00  0.00     0.001 A 
HETATM   17  C   UNL     1      43.963 -13.000   7.087  1.00  0.00     0.018 A 
HETATM   18  C   UNL     1      42.771 -15.155   7.422  1.00  0.00     0.272 A 
HETATM   19  O   UNL     1      43.222 -15.285   8.555  1.00  0.00    -0.266 OA
HETATM   20  N   UNL     1      41.944 -16.090   6.850  1.00  0.00    -0.242 N 
HETATM   21  N   UNL     1      41.368 -16.003   5.621  1.00  0.00    -0.166 NA
HETATM   22  H   UNL     1      41.704 -16.902   7.413  1.00  0.00     0.192 HD
ENDBRANCH   8  11
ENDBRANCH   1   7
BRANCH   3  23
HETATM   23  C   UNL     1      38.224 -10.926   0.524  1.00  0.00     0.139 C 
BRANCH  23  24
HETATM   24  C   UNL     1      38.922 -10.687  -0.836  1.00  0.00     0.079 C 
BRANCH  24  25
HETATM   25  C   UNL     1      40.207  -9.904  -0.677  1.00  0.00    -0.020 A 
HETATM   26  C   UNL     1      40.889  -9.167  -1.704  1.00  0.00    -0.001 A 
HETATM   27  C   UNL     1      42.024  -8.594  -1.129  1.00  0.00     0.042 A 
HETATM   28  C   UNL     1      40.646  -8.932  -3.074  1.00  0.00     0.014 A 
HETATM   29  C   UNL     1      42.924  -7.799  -1.850  1.00  0.00     0.030 A 
HETATM   30  N   UNL     1      42.042  -8.969   0.192  1.00  0.00    -0.365 N 
HETATM   31  C   UNL     1      42.656  -7.581  -3.203  1.00  0.00     0.002 A 
HETATM   32  C   UNL     1      41.534  -8.138  -3.810  1.00  0.00     0.001 A 
HETATM   33  H   UNL     1      42.758  -8.701   0.853  1.00  0.00     0.165 HD
HETATM   34  C   UNL     1      40.956  -9.749   0.478  1.00  0.00     0.097 A 
ENDBRANCH  24  25
BRANCH  24  35
HETATM   35  C   UNL     1      39.164 -11.991  -1.583  1.00  0.00    -0.007 A 
HETATM   36  S   UNL     1      37.892 -12.699  -2.497  1.00  0.00    -0.106 SA
HETATM   37  C   UNL     1      38.873 -14.012  -2.975  1.00  0.00     0.050 A 
HETATM   38  C   UNL     1      40.143 -13.927  -2.453  1.00  0.00     0.008 A 
HETATM   39  C   UNL     1      40.312 -12.761  -1.653  1.00  0.00     0.016 A 
ENDBRANCH  24  35
ENDBRANCH  23  24
ENDBRANCH   3  23
TORSDOF 6
ENDMDL
