MODEL 1
REMARK VINA RESULT:      -9.2      0.000      0.000
REMARK  4 active torsions:
REMARK  status: ('A' for Active; 'I' for Inactive)
REMARK    1  A    between atoms: C_6  and  C_7 
REMARK    2  A    between atoms: C_7  and  C_8 
REMARK       I    between atoms: C_8  and  N_9 
REMARK    3  A    between atoms: N_9  and  C_10 
REMARK    4  A    between atoms: C_12  and  C_13 
ROOT
HETATM    1  C   UNL     1      42.458 -13.700   3.216  1.00  0.00     0.226 C 
HETATM    2  N   UNL     1      41.238 -13.502   2.589  1.00  0.00    -0.327 N 
HETATM    3  O   UNL     1      43.564 -13.436   2.751  1.00  0.00    -0.273 OA
HETATM    4  H   UNL     1      40.425 -13.855   3.076  1.00  0.00     0.169 HD
ENDROOT
BRANCH   1   5
HETATM    5  C   UNL     1      42.310 -14.270   4.622  1.00  0.00     0.144 C 
BRANCH   5   6
HETATM    6  C   UNL     1      43.071 -15.542   4.802  1.00  0.00    -0.021 A 
HETATM    7  C   UNL     1      43.087 -16.683   3.932  1.00  0.00    -0.001 A 
HETATM    8  C   UNL     1      43.930 -17.634   4.507  1.00  0.00     0.043 A 
HETATM    9  C   UNL     1      42.466 -17.000   2.707  1.00  0.00     0.015 A 
HETATM   10  C   UNL     1      44.189 -18.878   3.918  1.00  0.00     0.037 A 
HETATM   11  N   UNL     1      44.403 -17.101   5.682  1.00  0.00    -0.365 N 
HETATM   12  C   UNL     1      43.562 -19.178   2.699  1.00  0.00    -0.060 A 
HETATM   13  C   UNL     1      43.844 -20.483   2.013  1.00  0.00     0.048 C 
HETATM   14  C   UNL     1      42.720 -18.238   2.100  1.00  0.00     0.007 A 
HETATM   15  C   UNL     1      43.890 -15.848   5.873  1.00  0.00     0.097 A 
HETATM   16  H   UNL     1      45.037 -17.574   6.312  1.00  0.00     0.165 HD
ENDBRANCH   5   6
ENDBRANCH   1   5
BRANCH   2  17
HETATM   17  C   UNL     1      40.988 -12.894   1.342  1.00  0.00     0.035 A 
HETATM   18  C   UNL     1      40.360 -13.681   0.363  1.00  0.00     0.042 A 
HETATM   19  C   UNL     1      40.039 -13.159  -0.900  1.00  0.00    -0.021 A 
HETATM   20  C   UNL     1      40.372 -11.829  -1.179  1.00  0.00     0.012 A 
HETATM   21  C   UNL     1      41.002 -11.041  -0.215  1.00  0.00     0.003 A 
HETATM   22  C   UNL     1      41.307 -11.571   1.042  1.00  0.00     0.029 A 
BRANCH  19  23
HETATM   23  C   UNL     1      39.376 -13.974  -1.907  1.00  0.00     0.010 A 
HETATM   24  C   UNL     1      38.917 -13.647  -3.207  1.00  0.00     0.152 A 
HETATM   25  N   UNL     1      38.335 -14.678  -3.826  1.00  0.00    -0.187 NA
HETATM   26  N   UNL     1      38.411 -15.668  -2.926  1.00  0.00    -0.289 N 
HETATM   27  H   UNL     1      38.020 -16.572  -3.171  1.00  0.00     0.188 HD
HETATM   28  C   UNL     1      39.023 -15.300  -1.762  1.00  0.00     0.123 A 
ENDBRANCH  19  23
ENDBRANCH   2  17
TORSDOF 4
ENDMDL
MODEL 2
REMARK VINA RESULT:      -9.0      5.660      8.964
REMARK  4 active torsions:
REMARK  status: ('A' for Active; 'I' for Inactive)
REMARK    1  A    between atoms: C_6  and  C_7 
REMARK    2  A    between atoms: C_7  and  C_8 
REMARK       I    between atoms: C_8  and  N_9 
REMARK    3  A    between atoms: N_9  and  C_10 
REMARK    4  A    between atoms: C_12  and  C_13 
ROOT
HETATM    1  C   UNL     1      43.171 -12.569   6.077  1.00  0.00     0.226 C 
HETATM    2  N   UNL     1      44.411 -12.435   6.683  1.00  0.00    -0.327 N 
HETATM    3  O   UNL     1      42.226 -11.791   6.178  1.00  0.00    -0.273 OA
HETATM    4  H   UNL     1      45.049 -13.210   6.566  1.00  0.00     0.169 HD
ENDROOT
BRANCH   1   5
HETATM    5  C   UNL     1      43.079 -13.810   5.196  1.00  0.00     0.144 C 
BRANCH   5   6
HETATM    6  C   UNL     1      43.039 -15.071   5.994  1.00  0.00    -0.021 A 
HETATM    7  C   UNL     1      43.377 -16.395   5.556  1.00  0.00    -0.001 A 
HETATM    8  C   UNL     1      43.182 -17.254   6.637  1.00  0.00     0.043 A 
HETATM    9  C   UNL     1      43.833 -16.948   4.342  1.00  0.00     0.015 A 
HETATM   10  C   UNL     1      43.426 -18.632   6.569  1.00  0.00     0.037 A 
HETATM   11  N   UNL     1      42.736 -16.490   7.689  1.00  0.00    -0.365 N 
HETATM   12  C   UNL     1      43.878 -19.165   5.353  1.00  0.00    -0.060 A 
HETATM   13  C   UNL     1      44.191 -20.631   5.248  1.00  0.00     0.048 C 
HETATM   14  C   UNL     1      44.088 -18.323   4.258  1.00  0.00     0.007 A 
HETATM   15  C   UNL     1      42.641 -15.179   7.313  1.00  0.00     0.097 A 
HETATM   16  H   UNL     1      42.510 -16.852   8.605  1.00  0.00     0.165 HD
ENDBRANCH   5   6
ENDBRANCH   1   5
BRANCH   2  17
HETATM   17  C   UNL     1      44.886 -11.364   7.466  1.00  0.00     0.035 A 
HETATM   18  C   UNL     1      44.212 -11.108   8.672  1.00  0.00     0.042 A 
HETATM   19  C   UNL     1      44.627 -10.084   9.538  1.00  0.00    -0.021 A 
HETATM   20  C   UNL     1      45.726  -9.301   9.172  1.00  0.00     0.012 A 
HETATM   21  C   UNL     1      46.397  -9.543   7.972  1.00  0.00     0.003 A 
HETATM   22  C   UNL     1      45.980 -10.572   7.124  1.00  0.00     0.029 A 
BRANCH  19  23
HETATM   23  C   UNL     1      43.935  -9.831  10.794  1.00  0.00     0.010 A 
HETATM   24  C   UNL     1      43.451 -10.724  11.781  1.00  0.00     0.152 A 
HETATM   25  N   UNL     1      42.846 -10.099  12.795  1.00  0.00    -0.187 NA
HETATM   26  N   UNL     1      42.934  -8.803  12.462  1.00  0.00    -0.289 N 
HETATM   27  H   UNL     1      42.531  -8.117  13.091  1.00  0.00     0.188 HD
HETATM   28  C   UNL     1      43.574  -8.589  11.275  1.00  0.00     0.123 A 
ENDBRANCH  19  23
ENDBRANCH   2  17
TORSDOF 4
ENDMDL
MODEL 3
REMARK VINA RESULT:      -8.9      2.744      3.501
REMARK  4 active torsions:
REMARK  status: ('A' for Active; 'I' for Inactive)
REMARK    1  A    between atoms: C_6  and  C_7 
REMARK    2  A    between atoms: C_7  and  C_8 
REMARK       I    between atoms: C_8  and  N_9 
REMARK    3  A    between atoms: N_9  and  C_10 
REMARK    4  A    between atoms: C_12  and  C_13 
ROOT
HETATM    1  C   UNL     1      41.521 -15.070   1.127  1.00  0.00     0.226 C 
HETATM    2  N   UNL     1      41.336 -14.099   0.154  1.00  0.00    -0.327 N 
HETATM    3  O   UNL     1      40.651 -15.793   1.605  1.00  0.00    -0.273 OA
HETATM    4  H   UNL     1      42.142 -13.532  -0.067  1.00  0.00     0.169 HD
ENDROOT
BRANCH   1   5
HETATM    5  C   UNL     1      42.979 -15.201   1.555  1.00  0.00     0.144 C 
BRANCH   5   6
HETATM    6  C   UNL     1      43.118 -15.765   2.930  1.00  0.00    -0.021 A 
HETATM    7  C   UNL     1      43.407 -17.122   3.294  1.00  0.00    -0.001 A 
HETATM    8  C   UNL     1      43.434 -17.183   4.687  1.00  0.00     0.043 A 
HETATM    9  C   UNL     1      43.652 -18.308   2.573  1.00  0.00     0.015 A 
HETATM   10  C   UNL     1      43.699 -18.364   5.394  1.00  0.00     0.037 A 
HETATM   11  N   UNL     1      43.163 -15.920   5.156  1.00  0.00    -0.365 N 
HETATM   12  C   UNL     1      43.938 -19.535   4.660  1.00  0.00    -0.060 A 
HETATM   13  C   UNL     1      44.267 -20.813   5.377  1.00  0.00     0.048 C 
HETATM   14  C   UNL     1      43.925 -19.497   3.264  1.00  0.00     0.007 A 
HETATM   15  C   UNL     1      42.967 -15.061   4.110  1.00  0.00     0.097 A 
HETATM   16  H   UNL     1      43.116 -15.668   6.134  1.00  0.00     0.165 HD
ENDBRANCH   5   6
ENDBRANCH   1   5
BRANCH   2  17
HETATM   17  C   UNL     1      40.155 -13.786  -0.549  1.00  0.00     0.035 A 
HETATM   18  C   UNL     1      39.382 -12.723  -0.053  1.00  0.00     0.042 A 
HETATM   19  C   UNL     1      38.205 -12.312  -0.699  1.00  0.00    -0.021 A 
HETATM   20  C   UNL     1      37.800 -12.994  -1.851  1.00  0.00     0.012 A 
HETATM   21  C   UNL     1      38.558 -14.056  -2.346  1.00  0.00     0.003 A 
HETATM   22  C   UNL     1      39.733 -14.448  -1.700  1.00  0.00     0.029 A 
BRANCH  19  23
HETATM   23  C   UNL     1      37.413 -11.202  -0.190  1.00  0.00     0.010 A 
HETATM   24  C   UNL     1      36.890 -10.060  -0.846  1.00  0.00     0.152 A 
HETATM   25  N   UNL     1      36.223  -9.248  -0.021  1.00  0.00    -0.187 NA
HETATM   26  N   UNL     1      36.319  -9.860   1.168  1.00  0.00    -0.289 N 
HETATM   27  H   UNL     1      35.884  -9.420   1.971  1.00  0.00     0.188 HD
HETATM   28  C   UNL     1      37.021 -11.030   1.122  1.00  0.00     0.123 A 
ENDBRANCH  19  23
ENDBRANCH   2  17
TORSDOF 4
ENDMDL
MODEL 4
REMARK VINA RESULT:      -8.8      5.068      8.456
REMARK  4 active torsions:
REMARK  status: ('A' for Active; 'I' for Inactive)
REMARK    1  A    between atoms: C_6  and  C_7 
REMARK    2  A    between atoms: C_7  and  C_8 
REMARK       I    between atoms: C_8  and  N_9 
REMARK    3  A    between atoms: N_9  and  C_10 
REMARK    4  A    between atoms: C_12  and  C_13 
ROOT
HETATM    1  C   UNL     1      43.150 -13.045   5.365  1.00  0.00     0.226 C 
HETATM    2  N   UNL     1      43.434 -12.764   6.693  1.00  0.00    -0.327 N 
HETATM    3  O   UNL     1      43.549 -12.416   4.389  1.00  0.00    -0.273 OA
HETATM    4  H   UNL     1      42.955 -13.329   7.380  1.00  0.00     0.169 HD
ENDROOT
BRANCH   1   5
HETATM    5  C   UNL     1      42.283 -14.288   5.201  1.00  0.00     0.144 C 
BRANCH   5   6
HETATM    6  C   UNL     1      43.086 -15.546   5.213  1.00  0.00    -0.021 A 
HETATM    7  C   UNL     1      43.074 -16.602   4.242  1.00  0.00    -0.001 A 
HETATM    8  C   UNL     1      43.978 -17.574   4.670  1.00  0.00     0.043 A 
HETATM    9  C   UNL     1      42.381 -16.826   3.034  1.00  0.00     0.015 A 
HETATM   10  C   UNL     1      44.229 -18.750   3.953  1.00  0.00     0.037 A 
HETATM   11  N   UNL     1      44.514 -17.136   5.858  1.00  0.00    -0.365 N 
HETATM   12  C   UNL     1      43.530 -18.958   2.754  1.00  0.00    -0.060 A 
HETATM   13  C   UNL     1      43.800 -20.186   1.933  1.00  0.00     0.048 C 
HETATM   14  C   UNL     1      42.626 -17.994   2.300  1.00  0.00     0.007 A 
HETATM   15  C   UNL     1      43.982 -15.922   6.196  1.00  0.00     0.097 A 
HETATM   16  H   UNL     1      45.200 -17.643   6.399  1.00  0.00     0.165 HD
ENDBRANCH   5   6
ENDBRANCH   1   5
BRANCH   2  17
HETATM   17  C   UNL     1      44.290 -11.769   7.208  1.00  0.00     0.035 A 
HETATM   18  C   UNL     1      43.770 -10.941   8.216  1.00  0.00     0.042 A 
HETATM   19  C   UNL     1      44.551  -9.940   8.816  1.00  0.00    -0.021 A 
HETATM   20  C   UNL     1      45.869  -9.768   8.380  1.00  0.00     0.012 A 
HETATM   21  C   UNL     1      46.392 -10.582   7.374  1.00  0.00     0.003 A 
HETATM   22  C   UNL     1      45.606 -11.580   6.792  1.00  0.00     0.029 A 
BRANCH  19  23
HETATM   23  C   UNL     1      44.013  -9.093   9.870  1.00  0.00     0.010 A 
HETATM   24  C   UNL     1      43.919  -9.301  11.268  1.00  0.00     0.152 A 
HETATM   25  N   UNL     1      43.336  -8.282  11.906  1.00  0.00    -0.187 NA
HETATM   26  N   UNL     1      43.048  -7.419  10.921  1.00  0.00    -0.289 N 
HETATM   27  H   UNL     1      42.585  -6.550  11.165  1.00  0.00     0.188 HD
HETATM   28  C   UNL     1      43.430  -7.855   9.686  1.00  0.00     0.123 A 
ENDBRANCH  19  23
ENDBRANCH   2  17
TORSDOF 4
ENDMDL
MODEL 5
REMARK VINA RESULT:      -8.8      1.599      1.986
REMARK  4 active torsions:
REMARK  status: ('A' for Active; 'I' for Inactive)
REMARK    1  A    between atoms: C_6  and  C_7 
REMARK    2  A    between atoms: C_7  and  C_8 
REMARK       I    between atoms: C_8  and  N_9 
REMARK    3  A    between atoms: N_9  and  C_10 
REMARK    4  A    between atoms: C_12  and  C_13 
ROOT
HETATM    1  C   UNL     1      41.675 -14.006   4.521  1.00  0.00     0.226 C 
HETATM    2  N   UNL     1      41.763 -13.035   3.535  1.00  0.00    -0.327 N 
HETATM    3  O   UNL     1      40.683 -14.677   4.792  1.00  0.00    -0.273 OA
HETATM    4  H   UNL     1      42.628 -12.514   3.500  1.00  0.00     0.169 HD
ENDROOT
BRANCH   1   5
HETATM    5  C   UNL     1      42.993 -14.214   5.259  1.00  0.00     0.144 C 
BRANCH   5   6
HETATM    6  C   UNL     1      43.360 -15.657   5.370  1.00  0.00    -0.021 A 
HETATM    7  C   UNL     1      43.367 -16.641   4.327  1.00  0.00    -0.001 A 
HETATM    8  C   UNL     1      43.770 -17.849   4.896  1.00  0.00     0.043 A 
HETATM    9  C   UNL     1      43.070 -16.623   2.949  1.00  0.00     0.015 A 
HETATM   10  C   UNL     1      43.899 -19.034   4.159  1.00  0.00     0.037 A 
HETATM   11  N   UNL     1      43.992 -17.616   6.232  1.00  0.00    -0.365 N 
HETATM   12  C   UNL     1      43.598 -18.997   2.789  1.00  0.00    -0.060 A 
HETATM   13  C   UNL     1      43.762 -20.234   1.953  1.00  0.00     0.048 C 
HETATM   14  C   UNL     1      43.200 -17.797   2.195  1.00  0.00     0.007 A 
HETATM   15  C   UNL     1      43.744 -16.305   6.530  1.00  0.00     0.097 A 
HETATM   16  H   UNL     1      44.293 -18.318   6.895  1.00  0.00     0.165 HD
ENDBRANCH   5   6
ENDBRANCH   1   5
BRANCH   2  17
HETATM   17  C   UNL     1      40.785 -12.663   2.590  1.00  0.00     0.035 A 
HETATM   18  C   UNL     1      41.101 -12.858   1.236  1.00  0.00     0.042 A 
HETATM   19  C   UNL     1      40.184 -12.549   0.219  1.00  0.00    -0.021 A 
HETATM   20  C   UNL     1      38.938 -12.023   0.578  1.00  0.00     0.012 A 
HETATM   21  C   UNL     1      38.619 -11.818   1.922  1.00  0.00     0.003 A 
HETATM   22  C   UNL     1      39.538 -12.140   2.924  1.00  0.00     0.029 A 
BRANCH  19  23
HETATM   23  C   UNL     1      40.509 -12.766  -1.183  1.00  0.00     0.010 A 
HETATM   24  C   UNL     1      40.147 -13.812  -2.067  1.00  0.00     0.152 A 
HETATM   25  N   UNL     1      40.666 -13.662  -3.289  1.00  0.00    -0.187 NA
HETATM   26  N   UNL     1      41.368 -12.524  -3.194  1.00  0.00    -0.289 N 
HETATM   27  H   UNL     1      41.868 -12.199  -4.014  1.00  0.00     0.188 HD
HETATM   28  C   UNL     1      41.308 -11.949  -1.957  1.00  0.00     0.123 A 
ENDBRANCH  19  23
ENDBRANCH   2  17
TORSDOF 4
ENDMDL
MODEL 6
REMARK VINA RESULT:      -8.7      2.075      7.179
REMARK  4 active torsions:
REMARK  status: ('A' for Active; 'I' for Inactive)
REMARK    1  A    between atoms: C_6  and  C_7 
REMARK    2  A    between atoms: C_7  and  C_8 
REMARK       I    between atoms: C_8  and  N_9 
REMARK    3  A    between atoms: N_9  and  C_10 
REMARK    4  A    between atoms: C_12  and  C_13 
ROOT
HETATM    1  C   UNL     1      42.472 -13.309   3.395  1.00  0.00     0.226 C 
HETATM    2  N   UNL     1      42.170 -14.239   4.378  1.00  0.00    -0.327 N 
HETATM    3  O   UNL     1      43.520 -13.239   2.759  1.00  0.00    -0.273 OA
HETATM    4  H   UNL     1      41.295 -14.103   4.865  1.00  0.00     0.169 HD
ENDROOT
BRANCH   1   5
HETATM    5  C   UNL     1      41.320 -12.347   3.124  1.00  0.00     0.144 C 
BRANCH   5   6
HETATM    6  C   UNL     1      41.155 -12.055   1.669  1.00  0.00    -0.021 A 
HETATM    7  C   UNL     1      40.620 -12.921   0.658  1.00  0.00    -0.001 A 
HETATM    8  C   UNL     1      40.667 -12.229  -0.552  1.00  0.00     0.043 A 
HETATM    9  C   UNL     1      40.096 -14.230   0.654  1.00  0.00     0.015 A 
HETATM   10  C   UNL     1      40.213 -12.774  -1.760  1.00  0.00     0.037 A 
HETATM   11  N   UNL     1      41.216 -10.996  -0.294  1.00  0.00    -0.365 N 
HETATM   12  C   UNL     1      39.696 -14.078  -1.746  1.00  0.00    -0.060 A 
HETATM   13  C   UNL     1      39.160 -14.684  -3.011  1.00  0.00     0.048 C 
HETATM   14  C   UNL     1      39.631 -14.788  -0.544  1.00  0.00     0.007 A 
HETATM   15  C   UNL     1      41.518 -10.882   1.035  1.00  0.00     0.097 A 
HETATM   16  H   UNL     1      41.373 -10.281  -0.991  1.00  0.00     0.165 HD
ENDBRANCH   5   6
ENDBRANCH   1   5
BRANCH   2  17
HETATM   17  C   UNL     1      42.943 -15.338   4.804  1.00  0.00     0.035 A 
HETATM   18  C   UNL     1      42.893 -16.497   4.013  1.00  0.00     0.042 A 
HETATM   19  C   UNL     1      43.651 -17.634   4.334  1.00  0.00    -0.021 A 
HETATM   20  C   UNL     1      44.457 -17.601   5.476  1.00  0.00     0.012 A 
HETATM   21  C   UNL     1      44.508 -16.456   6.272  1.00  0.00     0.003 A 
HETATM   22  C   UNL     1      43.756 -15.327   5.936  1.00  0.00     0.029 A 
BRANCH  19  23
HETATM   23  C   UNL     1      43.607 -18.830   3.504  1.00  0.00     0.010 A 
HETATM   24  C   UNL     1      44.002 -20.162   3.778  1.00  0.00     0.152 A 
HETATM   25  N   UNL     1      43.819 -20.982   2.739  1.00  0.00    -0.187 NA
HETATM   26  N   UNL     1      43.313 -20.179   1.792  1.00  0.00    -0.289 N 
HETATM   27  H   UNL     1      43.093 -20.583   0.887  1.00  0.00     0.188 HD
HETATM   28  C   UNL     1      43.168 -18.884   2.197  1.00  0.00     0.123 A 
ENDBRANCH  19  23
ENDBRANCH   2  17
TORSDOF 4
ENDMDL
MODEL 7
REMARK VINA RESULT:      -8.6      5.339      8.712
REMARK  4 active torsions:
REMARK  status: ('A' for Active; 'I' for Inactive)
REMARK    1  A    between atoms: C_6  and  C_7 
REMARK    2  A    between atoms: C_7  and  C_8 
REMARK       I    between atoms: C_8  and  N_9 
REMARK    3  A    between atoms: N_9  and  C_10 
REMARK    4  A    between atoms: C_12  and  C_13 
ROOT
HETATM    1  C   UNL     1      43.135 -13.581   6.714  1.00  0.00     0.226 C 
HETATM    2  N   UNL     1      43.517 -12.300   6.348  1.00  0.00    -0.327 N 
HETATM    3  O   UNL     1      43.547 -14.212   7.685  1.00  0.00    -0.273 OA
HETATM    4  H   UNL     1      43.147 -11.959   5.472  1.00  0.00     0.169 HD
ENDROOT
BRANCH   1   5
HETATM    5  C   UNL     1      42.076 -14.166   5.786  1.00  0.00     0.144 C 
BRANCH   5   6
HETATM    6  C   UNL     1      42.639 -15.193   4.859  1.00  0.00    -0.021 A 
HETATM    7  C   UNL     1      43.018 -16.540   5.173  1.00  0.00    -0.001 A 
HETATM    8  C   UNL     1      43.497 -17.122   3.999  1.00  0.00     0.043 A 
HETATM    9  C   UNL     1      42.999 -17.326   6.343  1.00  0.00     0.015 A 
HETATM   10  C   UNL     1      43.949 -18.447   3.934  1.00  0.00     0.037 A 
HETATM   11  N   UNL     1      43.422 -16.169   3.012  1.00  0.00    -0.365 N 
HETATM   12  C   UNL     1      43.924 -19.213   5.109  1.00  0.00    -0.060 A 
HETATM   13  C   UNL     1      44.361 -20.649   5.074  1.00  0.00     0.048 C 
HETATM   14  C   UNL     1      43.441 -18.655   6.294  1.00  0.00     0.007 A 
HETATM   15  C   UNL     1      42.914 -15.005   3.518  1.00  0.00     0.097 A 
HETATM   16  H   UNL     1      43.706 -16.313   2.052  1.00  0.00     0.165 HD
ENDBRANCH   5   6
ENDBRANCH   1   5
BRANCH   2  17
HETATM   17  C   UNL     1      44.380 -11.420   7.032  1.00  0.00     0.035 A 
HETATM   18  C   UNL     1      43.815 -10.638   8.053  1.00  0.00     0.042 A 
HETATM   19  C   UNL     1      44.596  -9.754   8.814  1.00  0.00    -0.021 A 
HETATM   20  C   UNL     1      45.961  -9.651   8.529  1.00  0.00     0.012 A 
HETATM   21  C   UNL     1      46.530 -10.418   7.511  1.00  0.00     0.003 A 
HETATM   22  C   UNL     1      45.743 -11.302   6.768  1.00  0.00     0.029 A 
BRANCH  19  23
HETATM   23  C   UNL     1      44.009  -8.956   9.881  1.00  0.00     0.010 A 
HETATM   24  C   UNL     1      44.004  -9.145  11.284  1.00  0.00     0.152 A 
HETATM   25  N   UNL     1      43.334  -8.190  11.935  1.00  0.00    -0.187 NA
HETATM   26  N   UNL     1      42.900  -7.387  10.953  1.00  0.00    -0.289 N 
HETATM   27  H   UNL     1      42.348  -6.574  11.206  1.00  0.00     0.188 HD
HETATM   28  C   UNL     1      43.275  -7.800   9.707  1.00  0.00     0.123 A 
ENDBRANCH  19  23
ENDBRANCH   2  17
TORSDOF 4
ENDMDL
MODEL 8
REMARK VINA RESULT:      -8.6      2.276      8.312
REMARK  4 active torsions:
REMARK  status: ('A' for Active; 'I' for Inactive)
REMARK    1  A    between atoms: C_6  and  C_7 
REMARK    2  A    between atoms: C_7  and  C_8 
REMARK       I    between atoms: C_8  and  N_9 
REMARK    3  A    between atoms: N_9  and  C_10 
REMARK    4  A    between atoms: C_12  and  C_13 
ROOT
HETATM    1  C   UNL     1      41.073 -13.959   1.400  1.00  0.00     0.226 C 
HETATM    2  N   UNL     1      42.274 -14.634   1.561  1.00  0.00    -0.327 N 
HETATM    3  O   UNL     1      40.122 -13.974   2.177  1.00  0.00    -0.273 OA
HETATM    4  H   UNL     1      42.919 -14.585   0.786  1.00  0.00     0.169 HD
ENDROOT
BRANCH   1   5
HETATM    5  C   UNL     1      41.038 -13.121   0.127  1.00  0.00     0.144 C 
BRANCH   5   6
HETATM    6  C   UNL     1      39.873 -13.461  -0.744  1.00  0.00    -0.021 A 
HETATM    7  C   UNL     1      38.911 -12.559  -1.309  1.00  0.00    -0.001 A 
HETATM    8  C   UNL     1      38.004 -13.324  -2.043  1.00  0.00     0.043 A 
HETATM    9  C   UNL     1      38.722 -11.163  -1.269  1.00  0.00     0.015 A 
HETATM   10  C   UNL     1      36.927 -12.765  -2.743  1.00  0.00     0.037 A 
HETATM   11  N   UNL     1      38.390 -14.637  -1.925  1.00  0.00    -0.365 N 
HETATM   12  C   UNL     1      36.754 -11.374  -2.691  1.00  0.00    -0.060 A 
HETATM   13  C   UNL     1      35.636 -10.729  -3.460  1.00  0.00     0.048 C 
HETATM   14  C   UNL     1      37.654 -10.586  -1.969  1.00  0.00     0.007 A 
HETATM   15  C   UNL     1      39.508 -14.733  -1.143  1.00  0.00     0.097 A 
HETATM   16  H   UNL     1      37.911 -15.417  -2.355  1.00  0.00     0.165 HD
ENDBRANCH   5   6
ENDBRANCH   1   5
BRANCH   2  17
HETATM   17  C   UNL     1      42.698 -15.404   2.664  1.00  0.00     0.035 A 
HETATM   18  C   UNL     1      42.935 -16.769   2.434  1.00  0.00     0.042 A 
HETATM   19  C   UNL     1      43.390 -17.614   3.458  1.00  0.00    -0.021 A 
HETATM   20  C   UNL     1      43.594 -17.074   4.732  1.00  0.00     0.012 A 
HETATM   21  C   UNL     1      43.354 -15.720   4.971  1.00  0.00     0.003 A 
HETATM   22  C   UNL     1      42.910 -14.887   3.940  1.00  0.00     0.029 A 
BRANCH  19  23
HETATM   23  C   UNL     1      43.648 -19.026   3.213  1.00  0.00     0.010 A 
HETATM   24  C   UNL     1      43.517 -19.800   2.035  1.00  0.00     0.152 A 
HETATM   25  N   UNL     1      43.837 -21.085   2.219  1.00  0.00    -0.187 NA
HETATM   26  N   UNL     1      44.169 -21.142   3.517  1.00  0.00    -0.289 N 
HETATM   27  H   UNL     1      44.449 -22.038   3.901  1.00  0.00     0.188 HD
HETATM   28  C   UNL     1      44.072 -19.940   4.157  1.00  0.00     0.123 A 
ENDBRANCH  19  23
ENDBRANCH   2  17
TORSDOF 4
ENDMDL
MODEL 9
REMARK VINA RESULT:      -8.2      2.091      8.816
REMARK  4 active torsions:
REMARK  status: ('A' for Active; 'I' for Inactive)
REMARK    1  A    between atoms: C_6  and  C_7 
REMARK    2  A    between atoms: C_7  and  C_8 
REMARK       I    between atoms: C_8  and  N_9 
REMARK    3  A    between atoms: N_9  and  C_10 
REMARK    4  A    between atoms: C_12  and  C_13 
ROOT
HETATM    1  C   UNL     1      40.874 -14.736   1.188  1.00  0.00     0.226 C 
HETATM    2  N   UNL     1      42.196 -15.107   1.378  1.00  0.00    -0.327 N 
HETATM    3  O   UNL     1      39.892 -15.259   1.708  1.00  0.00    -0.273 OA
HETATM    4  H   UNL     1      42.879 -14.629   0.807  1.00  0.00     0.169 HD
ENDROOT
BRANCH   1   5
HETATM    5  C   UNL     1      40.729 -13.536   0.260  1.00  0.00     0.144 C 
BRANCH   5   6
HETATM    6  C   UNL     1      39.675 -13.744  -0.777  1.00  0.00    -0.021 A 
HETATM    7  C   UNL     1      38.723 -12.787  -1.263  1.00  0.00    -0.001 A 
HETATM    8  C   UNL     1      37.936 -13.429  -2.218  1.00  0.00     0.043 A 
HETATM    9  C   UNL     1      38.455 -11.431  -0.985  1.00  0.00     0.015 A 
HETATM   10  C   UNL     1      36.902 -12.786  -2.912  1.00  0.00     0.037 A 
HETATM   11  N   UNL     1      38.380 -14.727  -2.306  1.00  0.00    -0.365 N 
HETATM   12  C   UNL     1      36.649 -11.437  -2.621  1.00  0.00    -0.060 A 
HETATM   13  C   UNL     1      35.578 -10.699  -3.371  1.00  0.00     0.048 C 
HETATM   14  C   UNL     1      37.430 -10.771  -1.674  1.00  0.00     0.007 A 
HETATM   15  C   UNL     1      39.420 -14.929  -1.442  1.00  0.00     0.097 A 
HETATM   16  H   UNL     1      37.989 -15.427  -2.922  1.00  0.00     0.165 HD
ENDBRANCH   5   6
ENDBRANCH   1   5
BRANCH   2  17
HETATM   17  C   UNL     1      42.708 -16.090   2.250  1.00  0.00     0.035 A 
HETATM   18  C   UNL     1      42.725 -15.780   3.620  1.00  0.00     0.042 A 
HETATM   19  C   UNL     1      43.186 -16.702   4.572  1.00  0.00    -0.021 A 
HETATM   20  C   UNL     1      43.647 -17.947   4.131  1.00  0.00     0.012 A 
HETATM   21  C   UNL     1      43.640 -18.261   2.771  1.00  0.00     0.003 A 
HETATM   22  C   UNL     1      43.169 -17.337   1.834  1.00  0.00     0.029 A 
BRANCH  19  23
HETATM   23  C   UNL     1      43.191 -16.382   5.992  1.00  0.00     0.010 A 
HETATM   24  C   UNL     1      42.842 -15.191   6.674  1.00  0.00     0.152 A 
HETATM   25  N   UNL     1      42.999 -15.285   7.998  1.00  0.00    -0.187 NA
HETATM   26  N   UNL     1      43.455 -16.534   8.171  1.00  0.00    -0.289 N 
HETATM   27  H   UNL     1      43.660 -16.844   9.115  1.00  0.00     0.188 HD
HETATM   28  C   UNL     1      43.589 -17.231   7.005  1.00  0.00     0.123 A 
ENDBRANCH  19  23
ENDBRANCH   2  17
TORSDOF 4
ENDMDL
MODEL 10
REMARK VINA RESULT:      -8.1      4.254      8.133
REMARK  4 active torsions:
REMARK  status: ('A' for Active; 'I' for Inactive)
REMARK    1  A    between atoms: C_6  and  C_7 
REMARK    2  A    between atoms: C_7  and  C_8 
REMARK       I    between atoms: C_8  and  N_9 
REMARK    3  A    between atoms: N_9  and  C_10 
REMARK    4  A    between atoms: C_12  and  C_13 
ROOT
HETATM    1  C   UNL     1      42.219 -12.568   4.824  1.00  0.00     0.226 C 
HETATM    2  N   UNL     1      43.013 -13.009   3.776  1.00  0.00    -0.327 N 
HETATM    3  O   UNL     1      41.365 -13.225   5.413  1.00  0.00    -0.273 OA
HETATM    4  H   UNL     1      43.607 -12.314   3.345  1.00  0.00     0.169 HD
ENDROOT
BRANCH   1   5
HETATM    5  C   UNL     1      42.533 -11.134   5.235  1.00  0.00     0.144 C 
BRANCH   5   6
HETATM    6  C   UNL     1      43.499 -11.068   6.372  1.00  0.00    -0.021 A 
HETATM    7  C   UNL     1      43.335 -10.378   7.619  1.00  0.00    -0.001 A 
HETATM    8  C   UNL     1      44.493 -10.589   8.367  1.00  0.00     0.043 A 
HETATM    9  C   UNL     1      42.311  -9.594   8.188  1.00  0.00     0.015 A 
HETATM   10  C   UNL     1      44.677 -10.064   9.653  1.00  0.00     0.037 A 
HETATM   11  N   UNL     1      45.333 -11.367   7.606  1.00  0.00    -0.365 N 
HETATM   12  C   UNL     1      43.648  -9.285  10.203  1.00  0.00    -0.060 A 
HETATM   13  C   UNL     1      43.786  -8.738  11.595  1.00  0.00     0.048 C 
HETATM   14  C   UNL     1      42.475  -9.067   9.476  1.00  0.00     0.007 A 
HETATM   15  C   UNL     1      44.749 -11.656   6.405  1.00  0.00     0.097 A 
HETATM   16  H   UNL     1      46.250 -11.676   7.898  1.00  0.00     0.165 HD
ENDBRANCH   5   6
ENDBRANCH   1   5
BRANCH   2  17
HETATM   17  C   UNL     1      43.077 -14.301   3.216  1.00  0.00     0.035 A 
HETATM   18  C   UNL     1      43.277 -15.371   4.105  1.00  0.00     0.042 A 
HETATM   19  C   UNL     1      43.324 -16.699   3.651  1.00  0.00    -0.021 A 
HETATM   20  C   UNL     1      43.182 -16.944   2.281  1.00  0.00     0.012 A 
HETATM   21  C   UNL     1      42.991 -15.887   1.390  1.00  0.00     0.003 A 
HETATM   22  C   UNL     1      42.935 -14.571   1.857  1.00  0.00     0.029 A 
BRANCH  19  23
HETATM   23  C   UNL     1      43.518 -17.806   4.576  1.00  0.00     0.010 A 
HETATM   24  C   UNL     1      44.036 -19.108   4.367  1.00  0.00     0.152 A 
HETATM   25  N   UNL     1      44.035 -19.852   5.477  1.00  0.00    -0.187 NA
HETATM   26  N   UNL     1      43.511 -19.034   6.401  1.00  0.00    -0.289 N 
HETATM   27  H   UNL     1      43.401 -19.386   7.346  1.00  0.00     0.188 HD
HETATM   28  C   UNL     1      43.183 -17.801   5.915  1.00  0.00     0.123 A 
ENDBRANCH  19  23
ENDBRANCH   2  17
TORSDOF 4
ENDMDL
