MODEL 1
REMARK VINA RESULT:      -8.2      0.000      0.000
REMARK  6 active torsions:
REMARK  status: ('A' for Active; 'I' for Inactive)
REMARK    1  A    between atoms: N_2  and  C_4 
REMARK    2  A    between atoms: N_2  and  C_16 
REMARK    3  A    between atoms: C_4  and  C_5 
REMARK       I    between atoms: C_5  and  N_6 
REMARK    4  A    between atoms: N_6  and  C_7 
REMARK    5  A    between atoms: C_16  and  C_17 
REMARK    6  A    between atoms: C_18  and  C_19 
ROOT
HETATM    1  C   UNL     1      42.019 -15.549   1.372  1.00  0.00     0.270 C 
HETATM    2  N   UNL     1      40.857 -15.812   2.288  1.00  0.00    -0.063 N 
HETATM    3  H   UNL     1      40.354 -16.622   1.904  1.00  0.00     0.280 HD
ENDROOT
BRANCH   2   4
HETATM    4  C   UNL     1      41.304 -16.225   3.700  1.00  0.00     0.337 C 
BRANCH   4   5
HETATM    5  C   UNL     1      42.730 -15.840   4.085  1.00  0.00     0.248 C 
HETATM    6  N   UNL     1      43.726 -16.762   4.203  1.00  0.00    -0.326 N 
HETATM    7  H   UNL     1      44.603 -16.303   4.446  1.00  0.00     0.169 HD
HETATM    8  O   UNL     1      43.018 -14.658   4.300  1.00  0.00    -0.271 OA
BRANCH   6   9
HETATM    9  C   UNL     1      43.807 -18.161   4.053  1.00  0.00     0.040 A 
HETATM   10  C   UNL     1      44.056 -19.083   5.069  1.00  0.00     0.072 A 
HETATM   11  C   UNL     1      44.096 -20.452   4.779  1.00  0.00     0.121 A 
HETATM   12  F   UNL     1      44.331 -21.313   5.779  1.00  0.00    -0.206 F 
HETATM   13  C   UNL     1      43.902 -20.934   3.497  1.00  0.00     0.084 A 
HETATM   14  C   UNL     1      43.669 -20.019   2.487  1.00  0.00     0.121 A 
HETATM   15  F   UNL     1      43.480 -20.450   1.234  1.00  0.00    -0.206 F 
HETATM   16  C   UNL     1      43.621 -18.650   2.751  1.00  0.00     0.072 A 
ENDBRANCH   6   9
ENDBRANCH   4   5
ENDBRANCH   2   4
BRANCH   2  17
HETATM   17  C   UNL     1      39.852 -14.676   2.289  1.00  0.00     0.277 C 
BRANCH  17  18
HETATM   18  C   UNL     1      40.408 -13.418   1.722  1.00  0.00     0.016 A 
HETATM   19  C   UNL     1      40.231 -12.829   0.433  1.00  0.00     0.103 A 
HETATM   20  N   UNL     1      40.919 -11.684   0.330  1.00  0.00    -0.173 NA
HETATM   21  N   UNL     1      41.487 -11.507   1.525  1.00  0.00    -0.288 N 
HETATM   22  H   UNL     1      42.041 -10.666   1.677  1.00  0.00     0.188 HD
HETATM   23  C   UNL     1      41.231 -12.526   2.390  1.00  0.00     0.120 A 
BRANCH  19  24
HETATM   24  C   UNL     1      39.435 -13.319  -0.753  1.00  0.00     0.035 A 
HETATM   25  S   UNL     1      38.145 -12.496  -1.511  1.00  0.00    -0.100 SA
HETATM   26  C   UNL     1      37.921 -13.739  -2.661  1.00  0.00     0.050 A 
HETATM   27  C   UNL     1      38.804 -14.776  -2.469  1.00  0.00     0.008 A 
HETATM   28  C   UNL     1      39.674 -14.535  -1.366  1.00  0.00     0.022 A 
ENDBRANCH  19  24
ENDBRANCH  17  18
ENDBRANCH   2  17
TORSDOF 6
ENDMDL
MODEL 2
REMARK VINA RESULT:      -8.2      5.625      7.630
REMARK  6 active torsions:
REMARK  status: ('A' for Active; 'I' for Inactive)
REMARK    1  A    between atoms: N_2  and  C_4 
REMARK    2  A    between atoms: N_2  and  C_16 
REMARK    3  A    between atoms: C_4  and  C_5 
REMARK       I    between atoms: C_5  and  N_6 
REMARK    4  A    between atoms: N_6  and  C_7 
REMARK    5  A    between atoms: C_16  and  C_17 
REMARK    6  A    between atoms: C_18  and  C_19 
ROOT
HETATM    1  C   UNL     1      41.226 -13.200   6.173  1.00  0.00     0.270 C 
HETATM    2  N   UNL     1      42.595 -12.865   6.695  1.00  0.00    -0.063 N 
HETATM    3  H   UNL     1      42.494 -12.690   7.702  1.00  0.00     0.280 HD
ENDROOT
BRANCH   2   4
HETATM    4  C   UNL     1      43.575 -14.043   6.569  1.00  0.00     0.337 C 
BRANCH   4   5
HETATM    5  C   UNL     1      43.155 -15.335   7.265  1.00  0.00     0.248 C 
HETATM    6  N   UNL     1      42.794 -16.451   6.570  1.00  0.00    -0.326 N 
HETATM    7  H   UNL     1      42.569 -17.208   7.215  1.00  0.00     0.169 HD
HETATM    8  O   UNL     1      43.135 -15.399   8.498  1.00  0.00    -0.271 OA
BRANCH   6   9
HETATM    9  C   UNL     1      42.681 -16.778   5.205  1.00  0.00     0.040 A 
HETATM   10  C   UNL     1      41.671 -16.359   4.340  1.00  0.00     0.072 A 
HETATM   11  C   UNL     1      41.691 -16.750   2.996  1.00  0.00     0.121 A 
HETATM   12  F   UNL     1      40.709 -16.325   2.189  1.00  0.00    -0.206 F 
HETATM   13  C   UNL     1      42.689 -17.560   2.485  1.00  0.00     0.084 A 
HETATM   14  C   UNL     1      43.684 -17.987   3.345  1.00  0.00     0.121 A 
HETATM   15  F   UNL     1      44.664 -18.775   2.886  1.00  0.00    -0.206 F 
HETATM   16  C   UNL     1      43.688 -17.608   4.688  1.00  0.00     0.072 A 
ENDBRANCH   6   9
ENDBRANCH   4   5
ENDBRANCH   2   4
BRANCH   2  17
HETATM   17  C   UNL     1      43.138 -11.574   6.113  1.00  0.00     0.277 C 
BRANCH  17  18
HETATM   18  C   UNL     1      44.422 -11.158   6.738  1.00  0.00     0.016 A 
HETATM   19  C   UNL     1      44.683 -10.575   8.016  1.00  0.00     0.103 A 
HETATM   20  N   UNL     1      45.992 -10.351   8.183  1.00  0.00    -0.173 NA
HETATM   21  N   UNL     1      46.573 -10.814   7.074  1.00  0.00    -0.288 N 
HETATM   22  H   UNL     1      47.588 -10.769   7.005  1.00  0.00     0.188 HD
HETATM   23  C   UNL     1      45.677 -11.290   6.166  1.00  0.00     0.120 A 
BRANCH  19  24
HETATM   24  C   UNL     1      43.721 -10.188   9.114  1.00  0.00     0.035 A 
HETATM   25  S   UNL     1      42.306  -9.249   8.931  1.00  0.00    -0.100 SA
HETATM   26  C   UNL     1      41.920  -9.361  10.591  1.00  0.00     0.050 A 
HETATM   27  C   UNL     1      42.858 -10.091  11.284  1.00  0.00     0.008 A 
HETATM   28  C   UNL     1      43.898 -10.564  10.433  1.00  0.00     0.022 A 
ENDBRANCH  19  24
ENDBRANCH  17  18
ENDBRANCH   2  17
TORSDOF 6
ENDMDL
MODEL 3
REMARK VINA RESULT:      -8.0      3.853      5.812
REMARK  6 active torsions:
REMARK  status: ('A' for Active; 'I' for Inactive)
REMARK    1  A    between atoms: N_2  and  C_4 
REMARK    2  A    between atoms: N_2  and  C_16 
REMARK    3  A    between atoms: C_4  and  C_5 
REMARK       I    between atoms: C_5  and  N_6 
REMARK    4  A    between atoms: N_6  and  C_7 
REMARK    5  A    between atoms: C_16  and  C_17 
REMARK    6  A    between atoms: C_18  and  C_19 
ROOT
HETATM    1  C   UNL     1      40.386 -13.708   5.710  1.00  0.00     0.270 C 
HETATM    2  N   UNL     1      41.745 -14.243   6.063  1.00  0.00    -0.063 N 
HETATM    3  H   UNL     1      42.146 -13.599   6.757  1.00  0.00     0.280 HD
ENDROOT
BRANCH   2   4
HETATM    4  C   UNL     1      41.674 -15.615   6.754  1.00  0.00     0.337 C 
BRANCH   4   5
HETATM    5  C   UNL     1      42.913 -16.026   7.546  1.00  0.00     0.248 C 
HETATM    6  N   UNL     1      43.764 -16.998   7.113  1.00  0.00    -0.326 N 
HETATM    7  H   UNL     1      44.535 -17.108   7.770  1.00  0.00     0.169 HD
HETATM    8  O   UNL     1      43.176 -15.472   8.618  1.00  0.00    -0.271 OA
BRANCH   6   9
HETATM    9  C   UNL     1      43.815 -17.844   5.988  1.00  0.00     0.040 A 
HETATM   10  C   UNL     1      43.977 -17.442   4.662  1.00  0.00     0.072 A 
HETATM   11  C   UNL     1      44.023 -18.396   3.640  1.00  0.00     0.121 A 
HETATM   12  F   UNL     1      44.187 -17.976   2.378  1.00  0.00    -0.206 F 
HETATM   13  C   UNL     1      43.905 -19.750   3.897  1.00  0.00     0.084 A 
HETATM   14  C   UNL     1      43.731 -20.149   5.210  1.00  0.00     0.121 A 
HETATM   15  F   UNL     1      43.609 -21.451   5.495  1.00  0.00    -0.206 F 
HETATM   16  C   UNL     1      43.684 -19.217   6.247  1.00  0.00     0.072 A 
ENDBRANCH   6   9
ENDBRANCH   4   5
ENDBRANCH   2   4
BRANCH   2  17
HETATM   17  C   UNL     1      42.702 -14.217   4.887  1.00  0.00     0.277 C 
BRANCH  17  18
HETATM   18  C   UNL     1      42.722 -12.900   4.194  1.00  0.00     0.016 A 
HETATM   19  C   UNL     1      43.199 -11.629   4.638  1.00  0.00     0.103 A 
HETATM   20  N   UNL     1      43.024 -10.695   3.694  1.00  0.00    -0.173 NA
HETATM   21  N   UNL     1      42.494 -11.341   2.653  1.00  0.00    -0.288 N 
HETATM   22  H   UNL     1      42.305 -10.814   1.802  1.00  0.00     0.188 HD
HETATM   23  C   UNL     1      42.273 -12.661   2.905  1.00  0.00     0.120 A 
BRANCH  19  24
HETATM   24  C   UNL     1      43.815 -11.237   5.960  1.00  0.00     0.035 A 
HETATM   25  S   UNL     1      43.064 -10.321   7.189  1.00  0.00    -0.100 SA
HETATM   26  C   UNL     1      44.434 -10.410   8.205  1.00  0.00     0.050 A 
HETATM   27  C   UNL     1      45.458 -11.116   7.618  1.00  0.00     0.008 A 
HETATM   28  C   UNL     1      45.103 -11.589   6.321  1.00  0.00     0.022 A 
ENDBRANCH  19  24
ENDBRANCH  17  18
ENDBRANCH   2  17
TORSDOF 6
ENDMDL
MODEL 4
REMARK VINA RESULT:      -7.9      3.904      7.147
REMARK  6 active torsions:
REMARK  status: ('A' for Active; 'I' for Inactive)
REMARK    1  A    between atoms: N_2  and  C_4 
REMARK    2  A    between atoms: N_2  and  C_16 
REMARK    3  A    between atoms: C_4  and  C_5 
REMARK       I    between atoms: C_5  and  N_6 
REMARK    4  A    between atoms: N_6  and  C_7 
REMARK    5  A    between atoms: C_16  and  C_17 
REMARK    6  A    between atoms: C_18  and  C_19 
ROOT
HETATM    1  C   UNL     1      43.842 -12.207   6.259  1.00  0.00     0.270 C 
HETATM    2  N   UNL     1      42.557 -12.941   6.001  1.00  0.00    -0.063 N 
HETATM    3  H   UNL     1      42.169 -13.192   6.918  1.00  0.00     0.280 HD
ENDROOT
BRANCH   2   4
HETATM    4  C   UNL     1      41.499 -12.053   5.326  1.00  0.00     0.337 C 
BRANCH   4   5
HETATM    5  C   UNL     1      40.049 -12.495   5.500  1.00  0.00     0.248 C 
HETATM    6  N   UNL     1      39.368 -13.159   4.523  1.00  0.00    -0.326 N 
HETATM    7  H   UNL     1      38.426 -13.382   4.841  1.00  0.00     0.169 HD
HETATM    8  O   UNL     1      39.449 -12.258   6.553  1.00  0.00    -0.271 OA
BRANCH   6   9
HETATM    9  C   UNL     1      39.678 -13.600   3.221  1.00  0.00     0.040 A 
HETATM   10  C   UNL     1      39.815 -14.926   2.812  1.00  0.00     0.072 A 
HETATM   11  C   UNL     1      40.113 -15.222   1.477  1.00  0.00     0.121 A 
HETATM   12  F   UNL     1      40.231 -16.507   1.116  1.00  0.00    -0.206 F 
HETATM   13  C   UNL     1      40.289 -14.229   0.530  1.00  0.00     0.084 A 
HETATM   14  C   UNL     1      40.166 -12.913   0.937  1.00  0.00     0.121 A 
HETATM   15  F   UNL     1      40.333 -11.927   0.049  1.00  0.00    -0.206 F 
HETATM   16  C   UNL     1      39.867 -12.593   2.262  1.00  0.00     0.072 A 
ENDBRANCH   6   9
ENDBRANCH   4   5
ENDBRANCH   2   4
BRANCH   2  17
HETATM   17  C   UNL     1      42.776 -14.258   5.281  1.00  0.00     0.277 C 
BRANCH  17  18
HETATM   18  C   UNL     1      42.979 -15.396   6.217  1.00  0.00     0.016 A 
HETATM   19  C   UNL     1      43.251 -16.773   5.953  1.00  0.00     0.103 A 
HETATM   20  N   UNL     1      43.360 -17.468   7.093  1.00  0.00    -0.173 NA
HETATM   21  N   UNL     1      43.213 -16.569   8.068  1.00  0.00    -0.288 N 
HETATM   22  H   UNL     1      43.293 -16.885   9.034  1.00  0.00     0.188 HD
HETATM   23  C   UNL     1      42.961 -15.315   7.600  1.00  0.00     0.120 A 
BRANCH  19  24
HETATM   24  C   UNL     1      43.397 -17.493   4.633  1.00  0.00     0.035 A 
HETATM   25  S   UNL     1      44.352 -18.877   4.340  1.00  0.00    -0.100 SA
HETATM   26  C   UNL     1      43.892 -18.947   2.697  1.00  0.00     0.050 A 
HETATM   27  C   UNL     1      43.033 -17.925   2.365  1.00  0.00     0.008 A 
HETATM   28  C   UNL     1      42.751 -17.085   3.481  1.00  0.00     0.022 A 
ENDBRANCH  19  24
ENDBRANCH  17  18
ENDBRANCH   2  17
TORSDOF 6
ENDMDL
MODEL 5
REMARK VINA RESULT:      -7.9      3.699      5.883
REMARK  6 active torsions:
REMARK  status: ('A' for Active; 'I' for Inactive)
REMARK    1  A    between atoms: N_2  and  C_4 
REMARK    2  A    between atoms: N_2  and  C_16 
REMARK    3  A    between atoms: C_4  and  C_5 
REMARK       I    between atoms: C_5  and  N_6 
REMARK    4  A    between atoms: N_6  and  C_7 
REMARK    5  A    between atoms: C_16  and  C_17 
REMARK    6  A    between atoms: C_18  and  C_19 
ROOT
HETATM    1  C   UNL     1      41.116 -11.413   0.449  1.00  0.00     0.270 C 
HETATM    2  N   UNL     1      41.075 -12.470   1.516  1.00  0.00    -0.063 N 
HETATM    3  H   UNL     1      40.084 -12.638   1.729  1.00  0.00     0.280 HD
ENDROOT
BRANCH   2   4
HETATM    4  C   UNL     1      41.634 -13.817   1.029  1.00  0.00     0.337 C 
BRANCH   4   5
HETATM    5  C   UNL     1      40.625 -14.957   0.923  1.00  0.00     0.248 C 
HETATM    6  N   UNL     1      40.656 -16.037   1.755  1.00  0.00    -0.326 N 
HETATM    7  H   UNL     1      39.890 -16.671   1.535  1.00  0.00     0.169 HD
HETATM    8  O   UNL     1      39.737 -14.923   0.065  1.00  0.00    -0.271 OA
BRANCH   6   9
HETATM    9  C   UNL     1      41.481 -16.444   2.822  1.00  0.00     0.040 A 
HETATM   10  C   UNL     1      42.629 -17.229   2.721  1.00  0.00     0.072 A 
HETATM   11  C   UNL     1      43.363 -17.549   3.869  1.00  0.00     0.121 A 
HETATM   12  F   UNL     1      44.466 -18.299   3.737  1.00  0.00    -0.206 F 
HETATM   13  C   UNL     1      42.982 -17.114   5.126  1.00  0.00     0.084 A 
HETATM   14  C   UNL     1      41.836 -16.347   5.228  1.00  0.00     0.121 A 
HETATM   15  F   UNL     1      41.436 -15.912   6.429  1.00  0.00    -0.206 F 
HETATM   16  C   UNL     1      41.089 -16.013   4.099  1.00  0.00     0.072 A 
ENDBRANCH   6   9
ENDBRANCH   4   5
ENDBRANCH   2   4
BRANCH   2  17
HETATM   17  C   UNL     1      41.695 -12.003   2.819  1.00  0.00     0.277 C 
BRANCH  17  18
HETATM   18  C   UNL     1      40.880 -12.374   4.007  1.00  0.00     0.016 A 
HETATM   19  C   UNL     1      41.228 -12.408   5.392  1.00  0.00     0.103 A 
HETATM   20  N   UNL     1      40.189 -12.807   6.138  1.00  0.00    -0.173 NA
HETATM   21  N   UNL     1      39.184 -12.981   5.277  1.00  0.00    -0.288 N 
HETATM   22  H   UNL     1      38.275 -13.259   5.644  1.00  0.00     0.188 HD
HETATM   23  C   UNL     1      39.548 -12.756   3.985  1.00  0.00     0.120 A 
BRANCH  19  24
HETATM   24  C   UNL     1      42.542 -12.093   6.066  1.00  0.00     0.035 A 
HETATM   25  S   UNL     1      42.936 -10.642   6.876  1.00  0.00    -0.100 SA
HETATM   26  C   UNL     1      44.501 -11.196   7.279  1.00  0.00     0.050 A 
HETATM   27  C   UNL     1      44.731 -12.464   6.795  1.00  0.00     0.008 A 
HETATM   28  C   UNL     1      43.603 -12.978   6.093  1.00  0.00     0.022 A 
ENDBRANCH  19  24
ENDBRANCH  17  18
ENDBRANCH   2  17
TORSDOF 6
ENDMDL
MODEL 6
REMARK VINA RESULT:      -7.9      2.553      3.671
REMARK  6 active torsions:
REMARK  status: ('A' for Active; 'I' for Inactive)
REMARK    1  A    between atoms: N_2  and  C_4 
REMARK    2  A    between atoms: N_2  and  C_16 
REMARK    3  A    between atoms: C_4  and  C_5 
REMARK       I    between atoms: C_5  and  N_6 
REMARK    4  A    between atoms: N_6  and  C_7 
REMARK    5  A    between atoms: C_16  and  C_17 
REMARK    6  A    between atoms: C_18  and  C_19 
ROOT
HETATM    1  C   UNL     1      41.437 -15.540   6.329  1.00  0.00     0.270 C 
HETATM    2  N   UNL     1      42.644 -14.647   6.260  1.00  0.00    -0.063 N 
HETATM    3  H   UNL     1      42.635 -14.070   7.110  1.00  0.00     0.280 HD
ENDROOT
BRANCH   2   4
HETATM    4  C   UNL     1      43.962 -15.438   6.302  1.00  0.00     0.337 C 
BRANCH   4   5
HETATM    5  C   UNL     1      43.915 -16.770   7.046  1.00  0.00     0.248 C 
HETATM    6  N   UNL     1      43.823 -17.964   6.395  1.00  0.00    -0.326 N 
HETATM    7  H   UNL     1      43.826 -18.731   7.066  1.00  0.00     0.169 HD
HETATM    8  O   UNL     1      43.963 -16.794   8.280  1.00  0.00    -0.271 OA
BRANCH   6   9
HETATM    9  C   UNL     1      43.741 -18.355   5.044  1.00  0.00     0.040 A 
HETATM   10  C   UNL     1      43.457 -17.522   3.963  1.00  0.00     0.072 A 
HETATM   11  C   UNL     1      43.420 -18.045   2.665  1.00  0.00     0.121 A 
HETATM   12  F   UNL     1      43.151 -17.216   1.647  1.00  0.00    -0.206 F 
HETATM   13  C   UNL     1      43.651 -19.385   2.409  1.00  0.00     0.084 A 
HETATM   14  C   UNL     1      43.920 -20.214   3.483  1.00  0.00     0.121 A 
HETATM   15  F   UNL     1      44.145 -21.517   3.273  1.00  0.00    -0.206 F 
HETATM   16  C   UNL     1      43.965 -19.716   4.785  1.00  0.00     0.072 A 
ENDBRANCH   6   9
ENDBRANCH   4   5
ENDBRANCH   2   4
BRANCH   2  17
HETATM   17  C   UNL     1      42.574 -13.666   5.105  1.00  0.00     0.277 C 
BRANCH  17  18
HETATM   18  C   UNL     1      41.251 -12.995   5.003  1.00  0.00     0.016 A 
HETATM   19  C   UNL     1      40.222 -13.123   4.020  1.00  0.00     0.103 A 
HETATM   20  N   UNL     1      39.184 -12.327   4.306  1.00  0.00    -0.173 NA
HETATM   21  N   UNL     1      39.501 -11.735   5.459  1.00  0.00    -0.288 N 
HETATM   22  H   UNL     1      38.824 -11.100   5.879  1.00  0.00     0.188 HD
HETATM   23  C   UNL     1      40.737 -12.082   5.911  1.00  0.00     0.120 A 
BRANCH  19  24
HETATM   24  C   UNL     1      40.179 -13.974   2.773  1.00  0.00     0.035 A 
HETATM   25  S   UNL     1      40.156 -13.403   1.164  1.00  0.00    -0.100 SA
HETATM   26  C   UNL     1      40.127 -14.983   0.518  1.00  0.00     0.050 A 
HETATM   27  C   UNL     1      40.122 -15.938   1.508  1.00  0.00     0.008 A 
HETATM   28  C   UNL     1      40.148 -15.356   2.808  1.00  0.00     0.022 A 
ENDBRANCH  19  24
ENDBRANCH  17  18
ENDBRANCH   2  17
TORSDOF 6
ENDMDL
MODEL 7
REMARK VINA RESULT:      -7.8      1.661      3.524
REMARK  6 active torsions:
REMARK  status: ('A' for Active; 'I' for Inactive)
REMARK    1  A    between atoms: N_2  and  C_4 
REMARK    2  A    between atoms: N_2  and  C_16 
REMARK    3  A    between atoms: C_4  and  C_5 
REMARK       I    between atoms: C_5  and  N_6 
REMARK    4  A    between atoms: N_6  and  C_7 
REMARK    5  A    between atoms: C_16  and  C_17 
REMARK    6  A    between atoms: C_18  and  C_19 
ROOT
HETATM    1  C   UNL     1      42.259 -15.724   1.493  1.00  0.00     0.270 C 
HETATM    2  N   UNL     1      40.996 -15.962   2.272  1.00  0.00    -0.063 N 
HETATM    3  H   UNL     1      40.564 -16.810   1.885  1.00  0.00     0.280 HD
ENDROOT
BRANCH   2   4
HETATM    4  C   UNL     1      41.270 -16.267   3.754  1.00  0.00     0.337 C 
BRANCH   4   5
HETATM    5  C   UNL     1      42.680 -15.954   4.248  1.00  0.00     0.248 C 
HETATM    6  N   UNL     1      43.665 -16.895   4.282  1.00  0.00    -0.326 N 
HETATM    7  H   UNL     1      44.532 -16.483   4.623  1.00  0.00     0.169 HD
HETATM    8  O   UNL     1      42.964 -14.815   4.634  1.00  0.00    -0.271 OA
BRANCH   6   9
HETATM    9  C   UNL     1      43.745 -18.261   3.947  1.00  0.00     0.040 A 
HETATM   10  C   UNL     1      43.561 -18.810   2.679  1.00  0.00     0.072 A 
HETATM   11  C   UNL     1      43.684 -20.191   2.486  1.00  0.00     0.121 A 
HETATM   12  F   UNL     1      43.509 -20.685   1.253  1.00  0.00    -0.206 F 
HETATM   13  C   UNL     1      43.978 -21.051   3.529  1.00  0.00     0.084 A 
HETATM   14  C   UNL     1      44.147 -20.510   4.790  1.00  0.00     0.121 A 
HETATM   15  F   UNL     1      44.429 -21.313   5.823  1.00  0.00    -0.206 F 
HETATM   16  C   UNL     1      44.032 -19.136   5.007  1.00  0.00     0.072 A 
ENDBRANCH   6   9
ENDBRANCH   4   5
ENDBRANCH   2   4
BRANCH   2  17
HETATM   17  C   UNL     1      39.974 -14.860   2.069  1.00  0.00     0.277 C 
BRANCH  17  18
HETATM   18  C   UNL     1      40.298 -13.983   0.912  1.00  0.00     0.016 A 
HETATM   19  C   UNL     1      40.807 -12.649   0.877  1.00  0.00     0.103 A 
HETATM   20  N   UNL     1      40.953 -12.224  -0.385  1.00  0.00    -0.173 NA
HETATM   21  N   UNL     1      40.598 -13.260  -1.148  1.00  0.00    -0.288 N 
HETATM   22  H   UNL     1      40.664 -13.160  -2.160  1.00  0.00     0.188 HD
HETATM   23  C   UNL     1      40.176 -14.333  -0.423  1.00  0.00     0.120 A 
BRANCH  19  24
HETATM   24  C   UNL     1      41.155 -11.718   2.014  1.00  0.00     0.035 A 
HETATM   25  S   UNL     1      42.652 -11.643   2.834  1.00  0.00    -0.100 SA
HETATM   26  C   UNL     1      42.121 -10.382   3.856  1.00  0.00     0.050 A 
HETATM   27  C   UNL     1      40.819 -10.026   3.591  1.00  0.00     0.008 A 
HETATM   28  C   UNL     1      40.261 -10.799   2.532  1.00  0.00     0.022 A 
ENDBRANCH  19  24
ENDBRANCH  17  18
ENDBRANCH   2  17
TORSDOF 6
ENDMDL
MODEL 8
REMARK VINA RESULT:      -7.7      5.336      7.486
REMARK  6 active torsions:
REMARK  status: ('A' for Active; 'I' for Inactive)
REMARK    1  A    between atoms: N_2  and  C_4 
REMARK    2  A    between atoms: N_2  and  C_16 
REMARK    3  A    between atoms: C_4  and  C_5 
REMARK       I    between atoms: C_5  and  N_6 
REMARK    4  A    between atoms: N_6  and  C_7 
REMARK    5  A    between atoms: C_16  and  C_17 
REMARK    6  A    between atoms: C_18  and  C_19 
ROOT
HETATM    1  C   UNL     1      44.186 -11.730   3.590  1.00  0.00     0.270 C 
HETATM    2  N   UNL     1      43.135 -12.795   3.731  1.00  0.00    -0.063 N 
HETATM    3  H   UNL     1      43.600 -13.620   4.131  1.00  0.00     0.280 HD
ENDROOT
BRANCH   2   4
HETATM    4  C   UNL     1      42.036 -12.405   4.733  1.00  0.00     0.337 C 
BRANCH   4   5
HETATM    5  C   UNL     1      42.065 -13.140   6.071  1.00  0.00     0.248 C 
HETATM    6  N   UNL     1      42.803 -12.698   7.128  1.00  0.00    -0.326 N 
HETATM    7  H   UNL     1      42.671 -13.313   7.930  1.00  0.00     0.169 HD
HETATM    8  O   UNL     1      41.402 -14.170   6.228  1.00  0.00    -0.271 OA
BRANCH   6   9
HETATM    9  C   UNL     1      43.668 -11.608   7.349  1.00  0.00     0.040 A 
HETATM   10  C   UNL     1      43.294 -10.336   7.779  1.00  0.00     0.072 A 
HETATM   11  C   UNL     1      44.266  -9.346   7.971  1.00  0.00     0.121 A 
HETATM   12  F   UNL     1      43.874  -8.136   8.392  1.00  0.00    -0.206 F 
HETATM   13  C   UNL     1      45.608  -9.585   7.738  1.00  0.00     0.084 A 
HETATM   14  C   UNL     1      45.979 -10.843   7.299  1.00  0.00     0.121 A 
HETATM   15  F   UNL     1      47.268 -11.108   7.061  1.00  0.00    -0.206 F 
HETATM   16  C   UNL     1      45.029 -11.847   7.103  1.00  0.00     0.072 A 
ENDBRANCH   6   9
ENDBRANCH   4   5
ENDBRANCH   2   4
BRANCH   2  17
HETATM   17  C   UNL     1      42.587 -13.250   2.392  1.00  0.00     0.277 C 
BRANCH  17  18
HETATM   18  C   UNL     1      41.371 -14.097   2.528  1.00  0.00     0.016 A 
HETATM   19  C   UNL     1      41.239 -15.474   2.882  1.00  0.00     0.103 A 
HETATM   20  N   UNL     1      39.953 -15.848   2.883  1.00  0.00    -0.173 NA
HETATM   21  N   UNL     1      39.265 -14.743   2.588  1.00  0.00    -0.288 N 
HETATM   22  H   UNL     1      38.248 -14.797   2.566  1.00  0.00     0.188 HD
HETATM   23  C   UNL     1      40.066 -13.669   2.345  1.00  0.00     0.120 A 
BRANCH  19  24
HETATM   24  C   UNL     1      42.304 -16.494   3.209  1.00  0.00     0.035 A 
HETATM   25  S   UNL     1      43.104 -16.670   4.707  1.00  0.00    -0.100 SA
HETATM   26  C   UNL     1      44.038 -17.985   4.146  1.00  0.00     0.050 A 
HETATM   27  C   UNL     1      43.759 -18.284   2.833  1.00  0.00     0.008 A 
HETATM   28  C   UNL     1      42.762 -17.421   2.292  1.00  0.00     0.022 A 
ENDBRANCH  19  24
ENDBRANCH  17  18
ENDBRANCH   2  17
TORSDOF 6
ENDMDL
MODEL 9
REMARK VINA RESULT:      -7.6      3.684      6.873
REMARK  6 active torsions:
REMARK  status: ('A' for Active; 'I' for Inactive)
REMARK    1  A    between atoms: N_2  and  C_4 
REMARK    2  A    between atoms: N_2  and  C_16 
REMARK    3  A    between atoms: C_4  and  C_5 
REMARK       I    between atoms: C_5  and  N_6 
REMARK    4  A    between atoms: N_6  and  C_7 
REMARK    5  A    between atoms: C_16  and  C_17 
REMARK    6  A    between atoms: C_18  and  C_19 
ROOT
HETATM    1  C   UNL     1      43.884 -11.318   5.561  1.00  0.00     0.270 C 
HETATM    2  N   UNL     1      42.735 -12.065   4.944  1.00  0.00    -0.063 N 
HETATM    3  H   UNL     1      41.959 -12.022   5.616  1.00  0.00     0.280 HD
ENDROOT
BRANCH   2   4
HETATM    4  C   UNL     1      42.219 -11.392   3.661  1.00  0.00     0.337 C 
BRANCH   4   5
HETATM    5  C   UNL     1      40.730 -11.056   3.639  1.00  0.00     0.248 C 
HETATM    6  N   UNL     1      39.845 -11.726   2.849  1.00  0.00    -0.326 N 
HETATM    7  H   UNL     1      38.903 -11.366   2.994  1.00  0.00     0.169 HD
HETATM    8  O   UNL     1      40.287 -10.152   4.354  1.00  0.00    -0.271 OA
BRANCH   6   9
HETATM    9  C   UNL     1      39.944 -12.779   1.918  1.00  0.00     0.040 A 
HETATM   10  C   UNL     1      39.847 -14.141   2.203  1.00  0.00     0.072 A 
HETATM   11  C   UNL     1      39.951 -15.082   1.172  1.00  0.00     0.121 A 
HETATM   12  F   UNL     1      39.846 -16.383   1.479  1.00  0.00    -0.206 F 
HETATM   13  C   UNL     1      40.159 -14.707  -0.143  1.00  0.00     0.084 A 
HETATM   14  C   UNL     1      40.269 -13.358  -0.424  1.00  0.00     0.121 A 
HETATM   15  F   UNL     1      40.474 -12.959  -1.685  1.00  0.00    -0.206 F 
HETATM   16  C   UNL     1      40.165 -12.400   0.585  1.00  0.00     0.072 A 
ENDBRANCH   6   9
ENDBRANCH   4   5
ENDBRANCH   2   4
BRANCH   2  17
HETATM   17  C   UNL     1      43.033 -13.541   4.765  1.00  0.00     0.277 C 
BRANCH  17  18
HETATM   18  C   UNL     1      41.911 -14.411   5.210  1.00  0.00     0.016 A 
HETATM   19  C   UNL     1      41.719 -15.819   5.065  1.00  0.00     0.103 A 
HETATM   20  N   UNL     1      40.558 -16.203   5.611  1.00  0.00    -0.173 NA
HETATM   21  N   UNL     1      40.032 -15.095   6.136  1.00  0.00    -0.288 N 
HETATM   22  H   UNL     1      39.147 -15.169   6.636  1.00  0.00     0.188 HD
HETATM   23  C   UNL     1      40.790 -13.988   5.907  1.00  0.00     0.120 A 
BRANCH  19  24
HETATM   24  C   UNL     1      42.598 -16.849   4.397  1.00  0.00     0.035 A 
HETATM   25  S   UNL     1      43.669 -17.922   5.182  1.00  0.00    -0.100 SA
HETATM   26  C   UNL     1      44.156 -18.641   3.711  1.00  0.00     0.050 A 
HETATM   27  C   UNL     1      43.524 -18.069   2.631  1.00  0.00     0.008 A 
HETATM   28  C   UNL     1      42.629 -17.033   3.027  1.00  0.00     0.022 A 
ENDBRANCH  19  24
ENDBRANCH  17  18
ENDBRANCH   2  17
TORSDOF 6
ENDMDL
MODEL 10
REMARK VINA RESULT:      -7.6      4.556      6.754
REMARK  6 active torsions:
REMARK  status: ('A' for Active; 'I' for Inactive)
REMARK    1  A    between atoms: N_2  and  C_4 
REMARK    2  A    between atoms: N_2  and  C_16 
REMARK    3  A    between atoms: C_4  and  C_5 
REMARK       I    between atoms: C_5  and  N_6 
REMARK    4  A    between atoms: N_6  and  C_7 
REMARK    5  A    between atoms: C_16  and  C_17 
REMARK    6  A    between atoms: C_18  and  C_19 
ROOT
HETATM    1  C   UNL     1      42.238 -11.165   2.638  1.00  0.00     0.270 C 
HETATM    2  N   UNL     1      42.775 -12.321   3.434  1.00  0.00    -0.063 N 
HETATM    3  H   UNL     1      41.989 -12.696   3.979  1.00  0.00     0.280 HD
ENDROOT
BRANCH   2   4
HETATM    4  C   UNL     1      43.256 -13.476   2.540  1.00  0.00     0.337 C 
BRANCH   4   5
HETATM    5  C   UNL     1      42.160 -14.341   1.924  1.00  0.00     0.248 C 
HETATM    6  N   UNL     1      42.086 -15.684   2.140  1.00  0.00    -0.326 N 
HETATM    7  H   UNL     1      41.275 -16.073   1.659  1.00  0.00     0.169 HD
HETATM    8  O   UNL     1      41.298 -13.829   1.202  1.00  0.00    -0.271 OA
BRANCH   6   9
HETATM    9  C   UNL     1      42.850 -16.617   2.868  1.00  0.00     0.040 A 
HETATM   10  C   UNL     1      43.324 -16.455   4.169  1.00  0.00     0.072 A 
HETATM   11  C   UNL     1      44.064 -17.475   4.779  1.00  0.00     0.121 A 
HETATM   12  F   UNL     1      44.498 -17.291   6.033  1.00  0.00    -0.206 F 
HETATM   13  C   UNL     1      44.357 -18.657   4.123  1.00  0.00     0.084 A 
HETATM   14  C   UNL     1      43.900 -18.813   2.828  1.00  0.00     0.121 A 
HETATM   15  F   UNL     1      44.168 -19.943   2.162  1.00  0.00    -0.206 F 
HETATM   16  C   UNL     1      43.157 -17.812   2.200  1.00  0.00     0.072 A 
ENDBRANCH   6   9
ENDBRANCH   4   5
ENDBRANCH   2   4
BRANCH   2  17
HETATM   17  C   UNL     1      43.807 -11.890   4.458  1.00  0.00     0.277 C 
BRANCH  17  18
HETATM   18  C   UNL     1      43.627 -12.563   5.772  1.00  0.00     0.016 A 
HETATM   19  C   UNL     1      43.975 -12.129   7.088  1.00  0.00     0.103 A 
HETATM   20  N   UNL     1      43.639 -13.049   8.001  1.00  0.00    -0.173 NA
HETATM   21  N   UNL     1      43.050 -14.029   7.313  1.00  0.00    -0.288 N 
HETATM   22  H   UNL     1      42.684 -14.829   7.826  1.00  0.00     0.188 HD
HETATM   23  C   UNL     1      43.035 -13.799   5.971  1.00  0.00     0.120 A 
BRANCH  19  24
HETATM   24  C   UNL     1      44.649 -10.854   7.538  1.00  0.00     0.035 A 
HETATM   25  S   UNL     1      43.872  -9.477   8.182  1.00  0.00    -0.100 SA
HETATM   26  C   UNL     1      45.347  -8.640   8.386  1.00  0.00     0.050 A 
HETATM   27  C   UNL     1      46.420  -9.389   7.960  1.00  0.00     0.008 A 
HETATM   28  C   UNL     1      46.017 -10.663   7.467  1.00  0.00     0.022 A 
ENDBRANCH  19  24
ENDBRANCH  17  18
ENDBRANCH   2  17
TORSDOF 6
ENDMDL
