MODEL 1
REMARK VINA RESULT:      -8.0      0.000      0.000
REMARK  11 active torsions:
REMARK  status: ('A' for Active; 'I' for Inactive)
REMARK    1  A    between atoms: C_2  and  N_3 
REMARK    2  A    between atoms: N_3  and  C_5 
REMARK    3  A    between atoms: N_3  and  C_32 
REMARK    4  A    between atoms: C_5  and  C_6 
REMARK    5  A    between atoms: N_9  and  C_10 
REMARK    6  A    between atoms: C_14  and  N_15 
REMARK    7  A    between atoms: C_16  and  C_17 
REMARK       I    between atoms: C_17  and  N_18 
REMARK    8  A    between atoms: N_18  and  N_19 
REMARK    9  A    between atoms: C_20  and  C_21 
REMARK   10  A    between atoms: C_25  and  O_26 
REMARK   11  A    between atoms: C_27  and  O_28 
ROOT
HETATM    1  C   UNL     1      43.306 -15.887   5.427  1.00  0.00     0.112 A 
HETATM    2  N   UNL     1      44.457 -16.394   5.944  1.00  0.00    -0.160 NA
HETATM    3  N   UNL     1      44.720 -17.532   5.328  1.00  0.00     0.012 NA
HETATM    4  N   UNL     1      43.745 -17.788   4.404  1.00  0.00    -0.207 N 
HETATM    5  C   UNL     1      42.853 -16.726   4.425  1.00  0.00     0.153 A 
ENDROOT
BRANCH   5   6
HETATM    6  C   UNL     1      41.639 -16.565   3.684  1.00  0.00     0.292 C 
HETATM    7  N   UNL     1      41.817 -16.335   2.326  1.00  0.00    -0.242 N 
HETATM    8  H   UNL     1      42.750 -16.146   1.974  1.00  0.00     0.192 HD
HETATM    9  O   UNL     1      40.572 -16.453   4.281  1.00  0.00    -0.264 OA
BRANCH   7  10
HETATM   10  N   UNL     1      40.826 -15.806   1.535  1.00  0.00    -0.184 NA
HETATM   11  C   UNL     1      40.980 -14.563   1.193  1.00  0.00     0.150 C 
BRANCH  11  12
HETATM   12  C   UNL     1      40.028 -13.863   0.306  1.00  0.00    -0.013 A 
HETATM   13  C   UNL     1      39.666 -14.485  -0.891  1.00  0.00     0.035 A 
HETATM   14  C   UNL     1      38.778 -13.844  -1.751  1.00  0.00     0.047 A 
HETATM   15 BR   UNL     1      38.311 -14.694  -3.380  1.00  0.00    -0.048 Br
HETATM   16  C   UNL     1      38.245 -12.597  -1.412  1.00  0.00     0.116 A 
HETATM   17  C   UNL     1      38.596 -11.974  -0.205  1.00  0.00     0.103 A 
HETATM   18  C   UNL     1      39.497 -12.613   0.653  1.00  0.00     0.052 A 
BRANCH  16  19
HETATM   19  O   UNL     1      37.369 -11.955  -2.252  1.00  0.00    -0.357 OA
HETATM   20  H   UNL     1      36.682 -12.590  -2.519  1.00  0.00     0.218 HD
ENDBRANCH  16  19
BRANCH  17  21
HETATM   21  O   UNL     1      38.011 -10.759   0.034  1.00  0.00    -0.353 OA
HETATM   22  C   UNL     1      37.080 -10.666   1.103  1.00  0.00     0.210 C 
ENDBRANCH  17  21
ENDBRANCH  11  12
ENDBRANCH   7  10
ENDBRANCH   5   6
BRANCH   1  23
HETATM   23  C   UNL     1      42.697 -14.605   5.891  1.00  0.00     0.297 C 
BRANCH  23  24
HETATM   24  N   UNL     1      43.236 -13.292   5.339  1.00  0.00    -0.066 N 
HETATM   25  H   UNL     1      44.182 -13.508   5.000  1.00  0.00     0.280 HD
BRANCH  24  26
HETATM   26  C   UNL     1      43.416 -12.184   6.362  1.00  0.00     0.231 C 
HETATM   27  C   UNL     1      44.869 -12.011   6.767  1.00  0.00     0.034 C 
ENDBRANCH  24  26
BRANCH  24  28
HETATM   28  C   UNL     1      42.462 -12.784   4.135  1.00  0.00     0.231 C 
HETATM   29  C   UNL     1      43.334 -11.912   3.249  1.00  0.00     0.034 C 
ENDBRANCH  24  28
ENDBRANCH  23  24
ENDBRANCH   1  23
BRANCH   4  30
HETATM   30  C   UNL     1      43.718 -18.966   3.628  1.00  0.00     0.225 A 
HETATM   31  N   UNL     1      43.427 -18.904   2.328  1.00  0.00    -0.081 NA
HETATM   32  O   UNL     1      43.503 -20.232   1.905  1.00  0.00    -0.103 OA
HETATM   33  N   UNL     1      43.832 -21.077   2.958  1.00  0.00    -0.083 NA
HETATM   34  C   UNL     1      43.963 -20.291   4.026  1.00  0.00     0.201 A 
BRANCH  34  35
HETATM   35  N   UNL     1      44.274 -20.732   5.256  1.00  0.00    -0.379 N 
HETATM   36  H   UNL     1      45.233 -20.998   5.464  1.00  0.00     0.158 HD
HETATM   37  H   UNL     1      43.584 -21.075   5.920  1.00  0.00     0.158 HD
ENDBRANCH  34  35
ENDBRANCH   4  30
TORSDOF 11
ENDMDL
MODEL 2
REMARK VINA RESULT:      -7.9      1.218      1.940
REMARK  11 active torsions:
REMARK  status: ('A' for Active; 'I' for Inactive)
REMARK    1  A    between atoms: C_2  and  N_3 
REMARK    2  A    between atoms: N_3  and  C_5 
REMARK    3  A    between atoms: N_3  and  C_32 
REMARK    4  A    between atoms: C_5  and  C_6 
REMARK    5  A    between atoms: N_9  and  C_10 
REMARK    6  A    between atoms: C_14  and  N_15 
REMARK    7  A    between atoms: C_16  and  C_17 
REMARK       I    between atoms: C_17  and  N_18 
REMARK    8  A    between atoms: N_18  and  N_19 
REMARK    9  A    between atoms: C_20  and  C_21 
REMARK   10  A    between atoms: C_25  and  O_26 
REMARK   11  A    between atoms: C_27  and  O_28 
ROOT
HETATM    1  C   UNL     1      43.364 -15.956   5.375  1.00  0.00     0.112 A 
HETATM    2  N   UNL     1      44.500 -16.505   5.880  1.00  0.00    -0.160 NA
HETATM    3  N   UNL     1      44.733 -17.637   5.239  1.00  0.00     0.012 NA
HETATM    4  N   UNL     1      43.751 -17.846   4.310  1.00  0.00    -0.207 N 
HETATM    5  C   UNL     1      42.888 -16.761   4.355  1.00  0.00     0.153 A 
ENDROOT
BRANCH   5   6
HETATM    6  C   UNL     1      41.679 -16.551   3.619  1.00  0.00     0.292 C 
HETATM    7  N   UNL     1      41.866 -16.190   2.291  1.00  0.00    -0.242 N 
HETATM    8  H   UNL     1      42.799 -15.953   1.969  1.00  0.00     0.192 HD
HETATM    9  O   UNL     1      40.604 -16.515   4.211  1.00  0.00    -0.264 OA
BRANCH   7  10
HETATM   10  N   UNL     1      40.873 -15.605   1.541  1.00  0.00    -0.184 NA
HETATM   11  C   UNL     1      41.185 -14.481   0.971  1.00  0.00     0.150 C 
BRANCH  11  12
HETATM   12  C   UNL     1      40.246 -13.752   0.095  1.00  0.00    -0.013 A 
HETATM   13  C   UNL     1      39.530 -12.684   0.643  1.00  0.00     0.035 A 
HETATM   14  C   UNL     1      38.630 -11.986  -0.158  1.00  0.00     0.047 A 
HETATM   15 BR   UNL     1      37.654 -10.551   0.605  1.00  0.00    -0.048 Br
HETATM   16  C   UNL     1      38.455 -12.341  -1.498  1.00  0.00     0.116 A 
HETATM   17  C   UNL     1      39.181 -13.405  -2.056  1.00  0.00     0.103 A 
HETATM   18  C   UNL     1      40.076 -14.114  -1.249  1.00  0.00     0.052 A 
BRANCH  16  19
HETATM   19  O   UNL     1      37.571 -11.660  -2.297  1.00  0.00    -0.357 OA
HETATM   20  H   UNL     1      37.708 -10.706  -2.160  1.00  0.00     0.218 HD
ENDBRANCH  16  19
BRANCH  17  21
HETATM   21  O   UNL     1      38.942 -13.664  -3.380  1.00  0.00    -0.353 OA
HETATM   22  C   UNL     1      38.164 -14.807  -3.705  1.00  0.00     0.210 C 
ENDBRANCH  17  21
ENDBRANCH  11  12
ENDBRANCH   7  10
ENDBRANCH   5   6
BRANCH   1  23
HETATM   23  C   UNL     1      42.790 -14.670   5.867  1.00  0.00     0.297 C 
BRANCH  23  24
HETATM   24  N   UNL     1      43.343 -13.360   5.321  1.00  0.00    -0.066 N 
HETATM   25  H   UNL     1      44.311 -13.568   5.046  1.00  0.00     0.280 HD
BRANCH  24  26
HETATM   26  C   UNL     1      43.441 -12.227   6.328  1.00  0.00     0.231 C 
HETATM   27  C   UNL     1      44.869 -11.994   6.788  1.00  0.00     0.034 C 
ENDBRANCH  24  26
BRANCH  24  28
HETATM   28  C   UNL     1      42.638 -12.891   4.059  1.00  0.00     0.231 C 
HETATM   29  C   UNL     1      43.437 -11.809   3.354  1.00  0.00     0.034 C 
ENDBRANCH  24  28
ENDBRANCH  23  24
ENDBRANCH   1  23
BRANCH   4  30
HETATM   30  C   UNL     1      43.693 -19.005   3.508  1.00  0.00     0.225 A 
HETATM   31  N   UNL     1      43.313 -18.918   2.233  1.00  0.00    -0.081 NA
HETATM   32  O   UNL     1      43.384 -20.234   1.773  1.00  0.00    -0.103 OA
HETATM   33  N   UNL     1      43.798 -21.097   2.780  1.00  0.00    -0.083 NA
HETATM   34  C   UNL     1      43.988 -20.335   3.855  1.00  0.00     0.201 A 
BRANCH  34  35
HETATM   35  N   UNL     1      44.389 -20.798   5.051  1.00  0.00    -0.379 N 
HETATM   36  H   UNL     1      45.218 -21.385   5.107  1.00  0.00     0.158 HD
HETATM   37  H   UNL     1      43.787 -20.835   5.870  1.00  0.00     0.158 HD
ENDBRANCH  34  35
ENDBRANCH   4  30
TORSDOF 11
ENDMDL
MODEL 3
REMARK VINA RESULT:      -7.8      1.831      2.636
REMARK  11 active torsions:
REMARK  status: ('A' for Active; 'I' for Inactive)
REMARK    1  A    between atoms: C_2  and  N_3 
REMARK    2  A    between atoms: N_3  and  C_5 
REMARK    3  A    between atoms: N_3  and  C_32 
REMARK    4  A    between atoms: C_5  and  C_6 
REMARK    5  A    between atoms: N_9  and  C_10 
REMARK    6  A    between atoms: C_14  and  N_15 
REMARK    7  A    between atoms: C_16  and  C_17 
REMARK       I    between atoms: C_17  and  N_18 
REMARK    8  A    between atoms: N_18  and  N_19 
REMARK    9  A    between atoms: C_20  and  C_21 
REMARK   10  A    between atoms: C_25  and  O_26 
REMARK   11  A    between atoms: C_27  and  O_28 
ROOT
HETATM    1  C   UNL     1      43.443 -15.919   4.970  1.00  0.00     0.112 A 
HETATM    2  N   UNL     1      44.403 -16.514   5.726  1.00  0.00    -0.160 NA
HETATM    3  N   UNL     1      44.618 -17.725   5.244  1.00  0.00     0.012 NA
HETATM    4  N   UNL     1      43.800 -17.940   4.169  1.00  0.00    -0.207 N 
HETATM    5  C   UNL     1      43.069 -16.781   3.955  1.00  0.00     0.153 A 
ENDROOT
BRANCH   5   6
HETATM    6  C   UNL     1      42.041 -16.540   2.988  1.00  0.00     0.292 C 
HETATM    7  N   UNL     1      42.492 -16.018   1.783  1.00  0.00    -0.242 N 
HETATM    8  H   UNL     1      43.455 -15.704   1.708  1.00  0.00     0.192 HD
HETATM    9  O   UNL     1      40.862 -16.620   3.321  1.00  0.00    -0.264 OA
BRANCH   7  10
HETATM   10  N   UNL     1      41.652 -15.394   0.892  1.00  0.00    -0.184 NA
HETATM   11  C   UNL     1      41.501 -14.115   1.060  1.00  0.00     0.150 C 
BRANCH  11  12
HETATM   12  C   UNL     1      40.670 -13.292   0.158  1.00  0.00    -0.013 A 
HETATM   13  C   UNL     1      40.934 -11.922   0.089  1.00  0.00     0.035 A 
HETATM   14  C   UNL     1      40.160 -11.120  -0.745  1.00  0.00     0.047 A 
HETATM   15 BR   UNL     1      40.519  -9.260  -0.814  1.00  0.00    -0.048 Br
HETATM   16  C   UNL     1      39.138 -11.683  -1.516  1.00  0.00     0.116 A 
HETATM   17  C   UNL     1      38.877 -13.061  -1.459  1.00  0.00     0.103 A 
HETATM   18  C   UNL     1      39.647 -13.864  -0.612  1.00  0.00     0.052 A 
BRANCH  16  19
HETATM   19  O   UNL     1      38.368 -10.903  -2.341  1.00  0.00    -0.357 OA
HETATM   20  H   UNL     1      38.709  -9.992  -2.306  1.00  0.00     0.218 HD
ENDBRANCH  16  19
BRANCH  17  21
HETATM   21  O   UNL     1      37.861 -13.512  -2.260  1.00  0.00    -0.353 OA
HETATM   22  C   UNL     1      38.172 -14.485  -3.246  1.00  0.00     0.210 C 
ENDBRANCH  17  21
ENDBRANCH  11  12
ENDBRANCH   7  10
ENDBRANCH   5   6
BRANCH   1  23
HETATM   23  C   UNL     1      42.938 -14.539   5.229  1.00  0.00     0.297 C 
BRANCH  23  24
HETATM   24  N   UNL     1      41.442 -14.270   5.126  1.00  0.00    -0.066 N 
HETATM   25  H   UNL     1      41.082 -14.986   4.483  1.00  0.00     0.280 HD
BRANCH  24  26
HETATM   26  C   UNL     1      41.063 -12.937   4.505  1.00  0.00     0.231 C 
HETATM   27  C   UNL     1      39.647 -12.944   3.960  1.00  0.00     0.034 C 
ENDBRANCH  24  26
BRANCH  24  28
HETATM   28  C   UNL     1      40.705 -14.475   6.439  1.00  0.00     0.231 C 
HETATM   29  C   UNL     1      40.166 -15.890   6.552  1.00  0.00     0.034 C 
ENDBRANCH  24  28
ENDBRANCH  23  24
ENDBRANCH   1  23
BRANCH   4  30
HETATM   30  C   UNL     1      43.756 -19.169   3.477  1.00  0.00     0.225 A 
HETATM   31  N   UNL     1      43.387 -19.202   2.195  1.00  0.00    -0.081 NA
HETATM   32  O   UNL     1      43.471 -20.554   1.859  1.00  0.00    -0.103 OA
HETATM   33  N   UNL     1      43.881 -21.318   2.944  1.00  0.00    -0.083 NA
HETATM   34  C   UNL     1      44.056 -20.459   3.947  1.00  0.00     0.201 A 
BRANCH  34  35
HETATM   35  N   UNL     1      44.448 -20.807   5.184  1.00  0.00    -0.379 N 
HETATM   36  H   UNL     1      43.967 -21.563   5.666  1.00  0.00     0.158 HD
HETATM   37  H   UNL     1      45.007 -20.208   5.785  1.00  0.00     0.158 HD
ENDBRANCH  34  35
ENDBRANCH   4  30
TORSDOF 11
ENDMDL
MODEL 4
REMARK VINA RESULT:      -7.6      2.143      5.104
REMARK  11 active torsions:
REMARK  status: ('A' for Active; 'I' for Inactive)
REMARK    1  A    between atoms: C_2  and  N_3 
REMARK    2  A    between atoms: N_3  and  C_5 
REMARK    3  A    between atoms: N_3  and  C_32 
REMARK    4  A    between atoms: C_5  and  C_6 
REMARK    5  A    between atoms: N_9  and  C_10 
REMARK    6  A    between atoms: C_14  and  N_15 
REMARK    7  A    between atoms: C_16  and  C_17 
REMARK       I    between atoms: C_17  and  N_18 
REMARK    8  A    between atoms: N_18  and  N_19 
REMARK    9  A    between atoms: C_20  and  C_21 
REMARK   10  A    between atoms: C_25  and  O_26 
REMARK   11  A    between atoms: C_27  and  O_28 
ROOT
HETATM    1  C   UNL     1      43.539 -16.181   5.723  1.00  0.00     0.112 A 
HETATM    2  N   UNL     1      43.712 -15.714   6.989  1.00  0.00    -0.160 NA
HETATM    3  N   UNL     1      42.800 -14.785   7.214  1.00  0.00     0.012 NA
HETATM    4  N   UNL     1      42.022 -14.628   6.100  1.00  0.00    -0.207 N 
HETATM    5  C   UNL     1      42.455 -15.541   5.150  1.00  0.00     0.153 A 
ENDROOT
BRANCH   5   6
HETATM    6  C   UNL     1      41.995 -15.718   3.806  1.00  0.00     0.292 C 
HETATM    7  N   UNL     1      42.568 -14.856   2.880  1.00  0.00    -0.242 N 
HETATM    8  H   UNL     1      43.136 -14.081   3.210  1.00  0.00     0.192 HD
HETATM    9  O   UNL     1      41.034 -16.449   3.583  1.00  0.00    -0.264 OA
BRANCH   7  10
HETATM   10  N   UNL     1      42.009 -14.626   1.646  1.00  0.00    -0.184 NA
HETATM   11  C   UNL     1      41.409 -13.483   1.502  1.00  0.00     0.150 C 
BRANCH  11  12
HETATM   12  C   UNL     1      40.800 -13.066   0.223  1.00  0.00    -0.013 A 
HETATM   13  C   UNL     1      40.146 -14.036  -0.541  1.00  0.00     0.035 A 
HETATM   14  C   UNL     1      39.571 -13.673  -1.756  1.00  0.00     0.047 A 
HETATM   15 BR   UNL     1      38.703 -15.004  -2.789  1.00  0.00    -0.048 Br
HETATM   16  C   UNL     1      39.637 -12.349  -2.199  1.00  0.00     0.116 A 
HETATM   17  C   UNL     1      40.282 -11.368  -1.430  1.00  0.00     0.103 A 
HETATM   18  C   UNL     1      40.869 -11.735  -0.215  1.00  0.00     0.052 A 
BRANCH  16  19
HETATM   19  O   UNL     1      39.075 -11.978  -3.395  1.00  0.00    -0.357 OA
HETATM   20  H   UNL     1      39.089 -11.006  -3.451  1.00  0.00     0.218 HD
ENDBRANCH  16  19
BRANCH  17  21
HETATM   21  O   UNL     1      40.281 -10.101  -1.950  1.00  0.00    -0.353 OA
HETATM   22  C   UNL     1      41.465  -9.328  -1.824  1.00  0.00     0.210 C 
ENDBRANCH  17  21
ENDBRANCH  11  12
ENDBRANCH   7  10
ENDBRANCH   5   6
BRANCH   1  23
HETATM   23  C   UNL     1      44.399 -17.241   5.120  1.00  0.00     0.297 C 
BRANCH  23  24
HETATM   24  N   UNL     1      43.762 -18.563   4.713  1.00  0.00    -0.066 N 
HETATM   25  H   UNL     1      42.764 -18.356   4.587  1.00  0.00     0.280 HD
BRANCH  24  26
HETATM   26  C   UNL     1      43.822 -19.662   5.760  1.00  0.00     0.231 C 
HETATM   27  C   UNL     1      43.876 -21.044   5.134  1.00  0.00     0.034 C 
ENDBRANCH  24  26
BRANCH  24  28
HETATM   28  C   UNL     1      44.257 -19.079   3.371  1.00  0.00     0.231 C 
HETATM   29  C   UNL     1      43.180 -18.964   2.307  1.00  0.00     0.034 C 
ENDBRANCH  24  28
ENDBRANCH  23  24
ENDBRANCH   1  23
BRANCH   4  30
HETATM   30  C   UNL     1      40.998 -13.662   6.013  1.00  0.00     0.225 A 
HETATM   31  N   UNL     1      39.800 -13.908   6.546  1.00  0.00    -0.081 NA
HETATM   32  O   UNL     1      39.070 -12.749   6.275  1.00  0.00    -0.103 OA
HETATM   33  N   UNL     1      39.836 -11.824   5.577  1.00  0.00    -0.083 NA
HETATM   34  C   UNL     1      41.030 -12.392   5.414  1.00  0.00     0.201 A 
BRANCH  34  35
HETATM   35  N   UNL     1      42.062 -11.816   4.774  1.00  0.00    -0.379 N 
HETATM   36  H   UNL     1      42.887 -11.542   5.302  1.00  0.00     0.158 HD
HETATM   37  H   UNL     1      41.984 -11.387   3.855  1.00  0.00     0.158 HD
ENDBRANCH  34  35
ENDBRANCH   4  30
TORSDOF 11
ENDMDL
MODEL 5
REMARK VINA RESULT:      -7.4      2.438      5.366
REMARK  11 active torsions:
REMARK  status: ('A' for Active; 'I' for Inactive)
REMARK    1  A    between atoms: C_2  and  N_3 
REMARK    2  A    between atoms: N_3  and  C_5 
REMARK    3  A    between atoms: N_3  and  C_32 
REMARK    4  A    between atoms: C_5  and  C_6 
REMARK    5  A    between atoms: N_9  and  C_10 
REMARK    6  A    between atoms: C_14  and  N_15 
REMARK    7  A    between atoms: C_16  and  C_17 
REMARK       I    between atoms: C_17  and  N_18 
REMARK    8  A    between atoms: N_18  and  N_19 
REMARK    9  A    between atoms: C_20  and  C_21 
REMARK   10  A    between atoms: C_25  and  O_26 
REMARK   11  A    between atoms: C_27  and  O_28 
ROOT
HETATM    1  C   UNL     1      43.372 -16.214   4.864  1.00  0.00     0.112 A 
HETATM    2  N   UNL     1      43.711 -15.855   6.131  1.00  0.00    -0.160 NA
HETATM    3  N   UNL     1      42.853 -14.938   6.543  1.00  0.00     0.012 NA
HETATM    4  N   UNL     1      41.946 -14.683   5.553  1.00  0.00    -0.207 N 
HETATM    5  C   UNL     1      42.238 -15.519   4.485  1.00  0.00     0.153 A 
ENDROOT
BRANCH   5   6
HETATM    6  C   UNL     1      41.610 -15.579   3.200  1.00  0.00     0.292 C 
HETATM    7  N   UNL     1      42.250 -14.846   2.209  1.00  0.00    -0.242 N 
HETATM    8  H   UNL     1      42.999 -14.212   2.468  1.00  0.00     0.192 HD
HETATM    9  O   UNL     1      40.499 -16.090   3.089  1.00  0.00    -0.264 OA
BRANCH   7  10
HETATM   10  N   UNL     1      41.623 -14.490   1.039  1.00  0.00    -0.184 NA
HETATM   11  C   UNL     1      41.152 -13.281   0.996  1.00  0.00     0.150 C 
BRANCH  11  12
HETATM   12  C   UNL     1      40.494 -12.731  -0.206  1.00  0.00    -0.013 A 
HETATM   13  C   UNL     1      40.256 -11.354  -0.253  1.00  0.00     0.035 A 
HETATM   14  C   UNL     1      39.629 -10.809  -1.370  1.00  0.00     0.047 A 
HETATM   15 BR   UNL     1      39.298  -8.943  -1.411  1.00  0.00    -0.048 Br
HETATM   16  C   UNL     1      39.253 -11.629  -2.438  1.00  0.00     0.116 A 
HETATM   17  C   UNL     1      39.500 -13.010  -2.400  1.00  0.00     0.103 A 
HETATM   18  C   UNL     1      40.120 -13.559  -1.273  1.00  0.00     0.052 A 
BRANCH  16  19
HETATM   19  O   UNL     1      38.633 -11.104  -3.544  1.00  0.00    -0.357 OA
HETATM   20  H   UNL     1      39.208 -11.252  -4.315  1.00  0.00     0.218 HD
ENDBRANCH  16  19
BRANCH  17  21
HETATM   21  O   UNL     1      39.100 -13.721  -3.501  1.00  0.00    -0.353 OA
HETATM   22  C   UNL     1      38.367 -14.919  -3.291  1.00  0.00     0.210 C 
ENDBRANCH  17  21
ENDBRANCH  11  12
ENDBRANCH   7  10
ENDBRANCH   5   6
BRANCH   1  23
HETATM   23  C   UNL     1      44.129 -17.229   4.073  1.00  0.00     0.297 C 
BRANCH  23  24
HETATM   24  N   UNL     1      43.510 -18.602   3.853  1.00  0.00    -0.066 N 
HETATM   25  H   UNL     1      42.635 -18.595   4.392  1.00  0.00     0.280 HD
BRANCH  24  26
HETATM   26  C   UNL     1      44.312 -19.771   4.399  1.00  0.00     0.231 C 
HETATM   27  C   UNL     1      43.755 -20.281   5.716  1.00  0.00     0.034 C 
ENDBRANCH  24  26
BRANCH  24  28
HETATM   28  C   UNL     1      43.114 -18.857   2.408  1.00  0.00     0.231 C 
HETATM   29  C   UNL     1      43.526 -20.250   1.964  1.00  0.00     0.034 C 
ENDBRANCH  24  28
ENDBRANCH  23  24
ENDBRANCH   1  23
BRANCH   4  30
HETATM   30  C   UNL     1      40.937 -13.703   5.674  1.00  0.00     0.225 A 
HETATM   31  N   UNL     1      39.862 -13.940   6.426  1.00  0.00    -0.081 NA
HETATM   32  O   UNL     1      39.110 -12.769   6.311  1.00  0.00    -0.103 OA
HETATM   33  N   UNL     1      39.740 -11.846   5.485  1.00  0.00    -0.083 NA
HETATM   34  C   UNL     1      40.872 -12.427   5.090  1.00  0.00     0.201 A 
BRANCH  34  35
HETATM   35  N   UNL     1      41.769 -11.857   4.268  1.00  0.00    -0.379 N 
HETATM   36  H   UNL     1      41.508 -11.024   3.745  1.00  0.00     0.158 HD
HETATM   37  H   UNL     1      42.594 -12.336   3.918  1.00  0.00     0.158 HD
ENDBRANCH  34  35
ENDBRANCH   4  30
TORSDOF 11
ENDMDL
MODEL 6
REMARK VINA RESULT:      -7.4      1.858      5.095
REMARK  11 active torsions:
REMARK  status: ('A' for Active; 'I' for Inactive)
REMARK    1  A    between atoms: C_2  and  N_3 
REMARK    2  A    between atoms: N_3  and  C_5 
REMARK    3  A    between atoms: N_3  and  C_32 
REMARK    4  A    between atoms: C_5  and  C_6 
REMARK    5  A    between atoms: N_9  and  C_10 
REMARK    6  A    between atoms: C_14  and  N_15 
REMARK    7  A    between atoms: C_16  and  C_17 
REMARK       I    between atoms: C_17  and  N_18 
REMARK    8  A    between atoms: N_18  and  N_19 
REMARK    9  A    between atoms: C_20  and  C_21 
REMARK   10  A    between atoms: C_25  and  O_26 
REMARK   11  A    between atoms: C_27  and  O_28 
ROOT
HETATM    1  C   UNL     1      43.294 -16.310   5.379  1.00  0.00     0.112 A 
HETATM    2  N   UNL     1      44.077 -15.796   6.365  1.00  0.00    -0.160 NA
HETATM    3  N   UNL     1      44.035 -14.479   6.281  1.00  0.00     0.012 NA
HETATM    4  N   UNL     1      43.230 -14.112   5.239  1.00  0.00    -0.207 N 
HETATM    5  C   UNL     1      42.715 -15.270   4.674  1.00  0.00     0.153 A 
ENDROOT
BRANCH   5   6
HETATM    6  C   UNL     1      41.874 -15.406   3.524  1.00  0.00     0.292 C 
HETATM    7  N   UNL     1      42.467 -15.028   2.326  1.00  0.00    -0.242 N 
HETATM    8  H   UNL     1      43.364 -14.553   2.346  1.00  0.00     0.192 HD
HETATM    9  O   UNL     1      40.680 -15.652   3.669  1.00  0.00    -0.264 OA
BRANCH   7  10
HETATM   10  N   UNL     1      41.732 -14.745   1.199  1.00  0.00    -0.184 NA
HETATM   11  C   UNL     1      41.338 -13.514   1.077  1.00  0.00     0.150 C 
BRANCH  11  12
HETATM   12  C   UNL     1      40.581 -13.039  -0.099  1.00  0.00    -0.013 A 
HETATM   13  C   UNL     1      39.961 -13.994  -0.910  1.00  0.00     0.035 A 
HETATM   14  C   UNL     1      39.249 -13.576  -2.031  1.00  0.00     0.047 A 
HETATM   15 BR   UNL     1      38.429 -14.884  -3.131  1.00  0.00    -0.048 Br
HETATM   16  C   UNL     1      39.145 -12.215  -2.333  1.00  0.00     0.116 A 
HETATM   17  C   UNL     1      39.755 -11.252  -1.514  1.00  0.00     0.103 A 
HETATM   18  C   UNL     1      40.480 -11.673  -0.395  1.00  0.00     0.052 A 
BRANCH  16  19
HETATM   19  O   UNL     1      38.447 -11.790  -3.436  1.00  0.00    -0.357 OA
HETATM   20  H   UNL     1      38.959 -11.084  -3.867  1.00  0.00     0.218 HD
ENDBRANCH  16  19
BRANCH  17  21
HETATM   21  O   UNL     1      39.584  -9.947  -1.894  1.00  0.00    -0.353 OA
HETATM   22  C   UNL     1      38.718  -9.135  -1.116  1.00  0.00     0.210 C 
ENDBRANCH  17  21
ENDBRANCH  11  12
ENDBRANCH   7  10
ENDBRANCH   5   6
BRANCH   1  23
HETATM   23  C   UNL     1      43.108 -17.775   5.164  1.00  0.00     0.297 C 
BRANCH  23  24
HETATM   24  N   UNL     1      44.055 -18.507   4.222  1.00  0.00    -0.066 N 
HETATM   25  H   UNL     1      44.936 -17.981   4.260  1.00  0.00     0.280 HD
BRANCH  24  26
HETATM   26  C   UNL     1      43.644 -18.508   2.760  1.00  0.00     0.231 C 
HETATM   27  C   UNL     1      43.442 -19.914   2.225  1.00  0.00     0.034 C 
ENDBRANCH  24  26
BRANCH  24  28
HETATM   28  C   UNL     1      44.387 -19.917   4.682  1.00  0.00     0.231 C 
HETATM   29  C   UNL     1      43.665 -20.258   5.974  1.00  0.00     0.034 C 
ENDBRANCH  24  28
ENDBRANCH  23  24
ENDBRANCH   1  23
BRANCH   4  30
HETATM   30  C   UNL     1      43.035 -12.767   4.859  1.00  0.00     0.225 A 
HETATM   31  N   UNL     1      43.466 -12.337   3.673  1.00  0.00    -0.081 NA
HETATM   32  O   UNL     1      43.097 -10.991   3.651  1.00  0.00    -0.103 OA
HETATM   33  N   UNL     1      42.455 -10.627   4.828  1.00  0.00    -0.083 NA
HETATM   34  C   UNL     1      42.418 -11.728   5.577  1.00  0.00     0.201 A 
BRANCH  34  35
HETATM   35  N   UNL     1      41.879 -11.791   6.806  1.00  0.00    -0.379 N 
HETATM   36  H   UNL     1      41.754 -12.697   7.251  1.00  0.00     0.158 HD
HETATM   37  H   UNL     1      41.339 -11.036   7.221  1.00  0.00     0.158 HD
ENDBRANCH  34  35
ENDBRANCH   4  30
TORSDOF 11
ENDMDL
MODEL 7
REMARK VINA RESULT:      -7.4      3.611      7.924
REMARK  11 active torsions:
REMARK  status: ('A' for Active; 'I' for Inactive)
REMARK    1  A    between atoms: C_2  and  N_3 
REMARK    2  A    between atoms: N_3  and  C_5 
REMARK    3  A    between atoms: N_3  and  C_32 
REMARK    4  A    between atoms: C_5  and  C_6 
REMARK    5  A    between atoms: N_9  and  C_10 
REMARK    6  A    between atoms: C_14  and  N_15 
REMARK    7  A    between atoms: C_16  and  C_17 
REMARK       I    between atoms: C_17  and  N_18 
REMARK    8  A    between atoms: N_18  and  N_19 
REMARK    9  A    between atoms: C_20  and  C_21 
REMARK   10  A    between atoms: C_25  and  O_26 
REMARK   11  A    between atoms: C_27  and  O_28 
ROOT
HETATM    1  C   UNL     1      40.652 -10.467   0.789  1.00  0.00     0.112 A 
HETATM    2  N   UNL     1      40.343  -9.713  -0.299  1.00  0.00    -0.160 NA
HETATM    3  N   UNL     1      39.928 -10.522  -1.257  1.00  0.00     0.012 NA
HETATM    4  N   UNL     1      39.962 -11.814  -0.812  1.00  0.00    -0.207 N 
HETATM    5  C   UNL     1      40.386 -11.796   0.509  1.00  0.00     0.153 A 
ENDROOT
BRANCH   5   6
HETATM    6  C   UNL     1      40.638 -12.901   1.382  1.00  0.00     0.292 C 
HETATM    7  N   UNL     1      41.804 -13.603   1.105  1.00  0.00    -0.242 N 
HETATM    8  H   UNL     1      42.309 -13.404   0.247  1.00  0.00     0.192 HD
HETATM    9  O   UNL     1      39.766 -13.269   2.165  1.00  0.00    -0.264 OA
BRANCH   7  10
HETATM   10  N   UNL     1      42.027 -14.874   1.579  1.00  0.00    -0.184 NA
HETATM   11  C   UNL     1      42.917 -14.977   2.518  1.00  0.00     0.150 C 
BRANCH  11  12
HETATM   12  C   UNL     1      43.237 -16.266   3.166  1.00  0.00    -0.013 A 
HETATM   13  C   UNL     1      43.282 -17.410   2.365  1.00  0.00     0.035 A 
HETATM   14  C   UNL     1      43.572 -18.640   2.949  1.00  0.00     0.047 A 
HETATM   15 BR   UNL     1      43.611 -20.185   1.852  1.00  0.00    -0.048 Br
HETATM   16  C   UNL     1      43.828 -18.726   4.321  1.00  0.00     0.116 A 
HETATM   17  C   UNL     1      43.795 -17.578   5.127  1.00  0.00     0.103 A 
HETATM   18  C   UNL     1      43.494 -16.344   4.542  1.00  0.00     0.052 A 
BRANCH  16  19
HETATM   19  O   UNL     1      44.113 -19.932   4.909  1.00  0.00    -0.357 OA
HETATM   20  H   UNL     1      44.649 -20.456   4.287  1.00  0.00     0.218 HD
ENDBRANCH  16  19
BRANCH  17  21
HETATM   21  O   UNL     1      44.069 -17.771   6.455  1.00  0.00    -0.353 OA
HETATM   22  C   UNL     1      43.735 -16.731   7.363  1.00  0.00     0.210 C 
ENDBRANCH  17  21
ENDBRANCH  11  12
ENDBRANCH   7  10
ENDBRANCH   5   6
BRANCH   1  23
HETATM   23  C   UNL     1      41.165  -9.888   2.066  1.00  0.00     0.297 C 
BRANCH  23  24
HETATM   24  N   UNL     1      40.727 -10.510   3.385  1.00  0.00    -0.066 N 
HETATM   25  H   UNL     1      40.263 -11.390   3.129  1.00  0.00     0.280 HD
BRANCH  24  26
HETATM   26  C   UNL     1      39.692  -9.717   4.164  1.00  0.00     0.231 C 
HETATM   27  C   UNL     1      39.143  -8.551   3.361  1.00  0.00     0.034 C 
ENDBRANCH  24  26
BRANCH  24  28
HETATM   28  C   UNL     1      41.891 -10.892   4.284  1.00  0.00     0.231 C 
HETATM   29  C   UNL     1      43.108 -11.291   3.467  1.00  0.00     0.034 C 
ENDBRANCH  24  28
ENDBRANCH  23  24
ENDBRANCH   1  23
BRANCH   4  30
HETATM   30  C   UNL     1      39.632 -12.914  -1.632  1.00  0.00     0.225 A 
HETATM   31  N   UNL     1      38.515 -13.606  -1.405  1.00  0.00    -0.081 NA
HETATM   32  O   UNL     1      38.524 -14.589  -2.397  1.00  0.00    -0.103 OA
HETATM   33  N   UNL     1      39.651 -14.480  -3.203  1.00  0.00    -0.083 NA
HETATM   34  C   UNL     1      40.337 -13.442  -2.727  1.00  0.00     0.201 A 
BRANCH  34  35
HETATM   35  N   UNL     1      41.504 -13.010  -3.233  1.00  0.00    -0.379 N 
HETATM   36  H   UNL     1      41.967 -12.210  -2.808  1.00  0.00     0.158 HD
HETATM   37  H   UNL     1      41.832 -13.244  -4.167  1.00  0.00     0.158 HD
ENDBRANCH  34  35
ENDBRANCH   4  30
TORSDOF 11
ENDMDL
MODEL 8
REMARK VINA RESULT:      -7.1      2.438      5.562
REMARK  11 active torsions:
REMARK  status: ('A' for Active; 'I' for Inactive)
REMARK    1  A    between atoms: C_2  and  N_3 
REMARK    2  A    between atoms: N_3  and  C_5 
REMARK    3  A    between atoms: N_3  and  C_32 
REMARK    4  A    between atoms: C_5  and  C_6 
REMARK    5  A    between atoms: N_9  and  C_10 
REMARK    6  A    between atoms: C_14  and  N_15 
REMARK    7  A    between atoms: C_16  and  C_17 
REMARK       I    between atoms: C_17  and  N_18 
REMARK    8  A    between atoms: N_18  and  N_19 
REMARK    9  A    between atoms: C_20  and  C_21 
REMARK   10  A    between atoms: C_25  and  O_26 
REMARK   11  A    between atoms: C_27  and  O_28 
ROOT
HETATM    1  C   UNL     1      43.001 -15.855   5.442  1.00  0.00     0.112 A 
HETATM    2  N   UNL     1      43.956 -15.495   6.340  1.00  0.00    -0.160 NA
HETATM    3  N   UNL     1      43.958 -14.178   6.436  1.00  0.00     0.012 NA
HETATM    4  N   UNL     1      43.008 -13.658   5.600  1.00  0.00    -0.207 N 
HETATM    5  C   UNL     1      42.359 -14.718   4.985  1.00  0.00     0.153 A 
ENDROOT
BRANCH   5   6
HETATM    6  C   UNL     1      41.336 -14.680   3.985  1.00  0.00     0.292 C 
HETATM    7  N   UNL     1      41.790 -14.862   2.686  1.00  0.00    -0.242 N 
HETATM    8  H   UNL     1      42.789 -14.856   2.505  1.00  0.00     0.192 HD
HETATM    9  O   UNL     1      40.202 -14.318   4.289  1.00  0.00    -0.264 OA
BRANCH   7  10
HETATM   10  N   UNL     1      41.042 -14.505   1.589  1.00  0.00    -0.184 NA
HETATM   11  C   UNL     1      41.287 -13.329   1.098  1.00  0.00     0.150 C 
BRANCH  11  12
HETATM   12  C   UNL     1      40.603 -12.817  -0.107  1.00  0.00    -0.013 A 
HETATM   13  C   UNL     1      40.253 -11.464  -0.139  1.00  0.00     0.035 A 
HETATM   14  C   UNL     1      39.599 -10.957  -1.258  1.00  0.00     0.047 A 
HETATM   15 BR   UNL     1      39.115  -9.123  -1.279  1.00  0.00    -0.048 Br
HETATM   16  C   UNL     1      39.306 -11.789  -2.342  1.00  0.00     0.116 A 
HETATM   17  C   UNL     1      39.666 -13.145  -2.319  1.00  0.00     0.103 A 
HETATM   18  C   UNL     1      40.314 -13.658  -1.191  1.00  0.00     0.052 A 
BRANCH  16  19
HETATM   19  O   UNL     1      38.661 -11.301  -3.451  1.00  0.00    -0.357 OA
HETATM   20  H   UNL     1      39.163 -11.570  -4.240  1.00  0.00     0.218 HD
ENDBRANCH  16  19
BRANCH  17  21
HETATM   21  O   UNL     1      39.342 -13.870  -3.435  1.00  0.00    -0.353 OA
HETATM   22  C   UNL     1      38.311 -14.840  -3.324  1.00  0.00     0.210 C 
ENDBRANCH  17  21
ENDBRANCH  11  12
ENDBRANCH   7  10
ENDBRANCH   5   6
BRANCH   1  23
HETATM   23  C   UNL     1      42.720 -17.274   5.073  1.00  0.00     0.297 C 
BRANCH  23  24
HETATM   24  N   UNL     1      43.874 -18.265   5.025  1.00  0.00    -0.066 N 
HETATM   25  H   UNL     1      44.692 -17.746   5.370  1.00  0.00     0.280 HD
BRANCH  24  26
HETATM   26  C   UNL     1      44.257 -18.750   3.638  1.00  0.00     0.231 C 
HETATM   27  C   UNL     1      43.284 -18.267   2.577  1.00  0.00     0.034 C 
ENDBRANCH  24  26
BRANCH  24  28
HETATM   28  C   UNL     1      43.694 -19.443   5.969  1.00  0.00     0.231 C 
HETATM   29  C   UNL     1      44.060 -20.751   5.291  1.00  0.00     0.034 C 
ENDBRANCH  24  28
ENDBRANCH  23  24
ENDBRANCH   1  23
BRANCH   4  30
HETATM   30  C   UNL     1      42.812 -12.270   5.437  1.00  0.00     0.225 A 
HETATM   31  N   UNL     1      43.740 -11.530   4.829  1.00  0.00    -0.081 NA
HETATM   32  O   UNL     1      43.203 -10.241   4.847  1.00  0.00    -0.103 OA
HETATM   33  N   UNL     1      41.963 -10.221   5.472  1.00  0.00    -0.083 NA
HETATM   34  C   UNL     1      41.722 -11.479   5.839  1.00  0.00     0.201 A 
BRANCH  34  35
HETATM   35  N   UNL     1      40.615 -11.881   6.485  1.00  0.00    -0.379 N 
HETATM   36  H   UNL     1      39.790 -12.140   5.949  1.00  0.00     0.158 HD
HETATM   37  H   UNL     1      40.440 -11.694   7.470  1.00  0.00     0.158 HD
ENDBRANCH  34  35
ENDBRANCH   4  30
TORSDOF 11
ENDMDL
MODEL 9
REMARK VINA RESULT:      -7.1      3.947      8.267
REMARK  11 active torsions:
REMARK  status: ('A' for Active; 'I' for Inactive)
REMARK    1  A    between atoms: C_2  and  N_3 
REMARK    2  A    between atoms: N_3  and  C_5 
REMARK    3  A    between atoms: N_3  and  C_32 
REMARK    4  A    between atoms: C_5  and  C_6 
REMARK    5  A    between atoms: N_9  and  C_10 
REMARK    6  A    between atoms: C_14  and  N_15 
REMARK    7  A    between atoms: C_16  and  C_17 
REMARK       I    between atoms: C_17  and  N_18 
REMARK    8  A    between atoms: N_18  and  N_19 
REMARK    9  A    between atoms: C_20  and  C_21 
REMARK   10  A    between atoms: C_25  and  O_26 
REMARK   11  A    between atoms: C_27  and  O_28 
ROOT
HETATM    1  C   UNL     1      40.421 -10.387   0.357  1.00  0.00     0.112 A 
HETATM    2  N   UNL     1      40.048  -9.642  -0.717  1.00  0.00    -0.160 NA
HETATM    3  N   UNL     1      39.568 -10.458  -1.639  1.00  0.00     0.012 NA
HETATM    4  N   UNL     1      39.624 -11.746  -1.183  1.00  0.00    -0.207 N 
HETATM    5  C   UNL     1      40.130 -11.717   0.108  1.00  0.00     0.153 A 
ENDROOT
BRANCH   5   6
HETATM    6  C   UNL     1      40.430 -12.815   0.975  1.00  0.00     0.292 C 
HETATM    7  N   UNL     1      41.723 -13.308   0.857  1.00  0.00    -0.242 N 
HETATM    8  H   UNL     1      42.308 -12.985   0.093  1.00  0.00     0.192 HD
HETATM    9  O   UNL     1      39.527 -13.358   1.605  1.00  0.00    -0.264 OA
BRANCH   7  10
HETATM   10  N   UNL     1      42.081 -14.552   1.321  1.00  0.00    -0.184 NA
HETATM   11  C   UNL     1      42.677 -14.574   2.474  1.00  0.00     0.150 C 
BRANCH  11  12
HETATM   12  C   UNL     1      43.081 -15.834   3.130  1.00  0.00    -0.013 A 
HETATM   13  C   UNL     1      43.165 -15.851   4.525  1.00  0.00     0.035 A 
HETATM   14  C   UNL     1      43.553 -17.022   5.170  1.00  0.00     0.047 A 
HETATM   15 BR   UNL     1      43.679 -17.024   7.061  1.00  0.00    -0.048 Br
HETATM   16  C   UNL     1      43.843 -18.172   4.430  1.00  0.00     0.116 A 
HETATM   17  C   UNL     1      43.748 -18.164   3.029  1.00  0.00     0.103 A 
HETATM   18  C   UNL     1      43.370 -16.984   2.381  1.00  0.00     0.052 A 
BRANCH  16  19
HETATM   19  O   UNL     1      44.227 -19.332   5.054  1.00  0.00    -0.357 OA
HETATM   20  H   UNL     1      43.622 -20.043   4.776  1.00  0.00     0.218 HD
ENDBRANCH  16  19
BRANCH  17  21
HETATM   21  O   UNL     1      44.045 -19.344   2.402  1.00  0.00    -0.353 OA
HETATM   22  C   UNL     1      42.965 -20.159   1.969  1.00  0.00     0.210 C 
ENDBRANCH  17  21
ENDBRANCH  11  12
ENDBRANCH   7  10
ENDBRANCH   5   6
BRANCH   1  23
HETATM   23  C   UNL     1      41.016  -9.798   1.593  1.00  0.00     0.297 C 
BRANCH  23  24
HETATM   24  N   UNL     1      40.220  -9.849   2.890  1.00  0.00    -0.066 N 
HETATM   25  H   UNL     1      39.552 -10.619   2.768  1.00  0.00     0.280 HD
BRANCH  24  26
HETATM   26  C   UNL     1      39.376  -8.620   3.182  1.00  0.00     0.231 C 
HETATM   27  C   UNL     1      37.962  -8.760   2.649  1.00  0.00     0.034 C 
ENDBRANCH  24  26
BRANCH  24  28
HETATM   28  C   UNL     1      41.066 -10.212   4.099  1.00  0.00     0.231 C 
HETATM   29  C   UNL     1      40.937 -11.688   4.436  1.00  0.00     0.034 C 
ENDBRANCH  24  28
ENDBRANCH  23  24
ENDBRANCH   1  23
BRANCH   4  30
HETATM   30  C   UNL     1      39.237 -12.852  -1.969  1.00  0.00     0.225 A 
HETATM   31  N   UNL     1      37.975 -13.284  -1.940  1.00  0.00    -0.081 NA
HETATM   32  O   UNL     1      37.972 -14.362  -2.828  1.00  0.00    -0.103 OA
HETATM   33  N   UNL     1      39.233 -14.569  -3.374  1.00  0.00    -0.083 NA
HETATM   34  C   UNL     1      40.016 -13.633  -2.839  1.00  0.00     0.201 A 
BRANCH  34  35
HETATM   35  N   UNL     1      41.326 -13.497  -3.108  1.00  0.00    -0.379 N 
HETATM   36  H   UNL     1      41.866 -12.791  -2.615  1.00  0.00     0.158 HD
HETATM   37  H   UNL     1      41.765 -13.856  -3.952  1.00  0.00     0.158 HD
ENDBRANCH  34  35
ENDBRANCH   4  30
TORSDOF 11
ENDMDL
MODEL 10
REMARK VINA RESULT:      -7.1      3.613      6.332
REMARK  11 active torsions:
REMARK  status: ('A' for Active; 'I' for Inactive)
REMARK    1  A    between atoms: C_2  and  N_3 
REMARK    2  A    between atoms: N_3  and  C_5 
REMARK    3  A    between atoms: N_3  and  C_32 
REMARK    4  A    between atoms: C_5  and  C_6 
REMARK    5  A    between atoms: N_9  and  C_10 
REMARK    6  A    between atoms: C_14  and  N_15 
REMARK    7  A    between atoms: C_16  and  C_17 
REMARK       I    between atoms: C_17  and  N_18 
REMARK    8  A    between atoms: N_18  and  N_19 
REMARK    9  A    between atoms: C_20  and  C_21 
REMARK   10  A    between atoms: C_25  and  O_26 
REMARK   11  A    between atoms: C_27  and  O_28 
ROOT
HETATM    1  C   UNL     1      42.930 -13.848   5.498  1.00  0.00     0.112 A 
HETATM    2  N   UNL     1      42.986 -14.342   6.764  1.00  0.00    -0.160 NA
HETATM    3  N   UNL     1      43.538 -13.428   7.541  1.00  0.00     0.012 NA
HETATM    4  N   UNL     1      43.855 -12.326   6.796  1.00  0.00    -0.207 N 
HETATM    5  C   UNL     1      43.437 -12.561   5.494  1.00  0.00     0.153 A 
ENDROOT
BRANCH   5   6
HETATM    6  C   UNL     1      43.602 -11.731   4.340  1.00  0.00     0.292 C 
HETATM    7  N   UNL     1      42.416 -11.354   3.724  1.00  0.00    -0.242 N 
HETATM    8  H   UNL     1      41.547 -11.791   4.014  1.00  0.00     0.192 HD
HETATM    9  O   UNL     1      44.723 -11.562   3.867  1.00  0.00    -0.264 OA
BRANCH   7  10
HETATM   10  N   UNL     1      42.376 -10.880   2.434  1.00  0.00    -0.184 NA
HETATM   11  C   UNL     1      41.595 -11.524   1.621  1.00  0.00     0.150 C 
BRANCH  11  12
HETATM   12  C   UNL     1      41.404 -11.111   0.216  1.00  0.00    -0.013 A 
HETATM   13  C   UNL     1      41.644  -9.775  -0.115  1.00  0.00     0.035 A 
HETATM   14  C   UNL     1      41.462  -9.356  -1.430  1.00  0.00     0.047 A 
HETATM   15 BR   UNL     1      41.774  -7.535  -1.859  1.00  0.00    -0.048 Br
HETATM   16  C   UNL     1      41.059 -10.265  -2.411  1.00  0.00     0.116 A 
HETATM   17  C   UNL     1      40.829 -11.612  -2.087  1.00  0.00     0.103 A 
HETATM   18  C   UNL     1      41.000 -12.030  -0.763  1.00  0.00     0.052 A 
BRANCH  16  19
HETATM   19  O   UNL     1      40.876  -9.864  -3.711  1.00  0.00    -0.357 OA
HETATM   20  H   UNL     1      41.469 -10.388  -4.278  1.00  0.00     0.218 HD
ENDBRANCH  16  19
BRANCH  17  21
HETATM   21  O   UNL     1      40.445 -12.421  -3.123  1.00  0.00    -0.353 OA
HETATM   22  C   UNL     1      39.205 -13.103  -3.012  1.00  0.00     0.210 C 
ENDBRANCH  17  21
ENDBRANCH  11  12
ENDBRANCH   7  10
ENDBRANCH   5   6
BRANCH   1  23
HETATM   23  C   UNL     1      42.370 -14.613   4.346  1.00  0.00     0.297 C 
BRANCH  23  24
HETATM   24  N   UNL     1      43.328 -15.287   3.374  1.00  0.00    -0.066 N 
HETATM   25  H   UNL     1      44.269 -15.074   3.729  1.00  0.00     0.280 HD
BRANCH  24  26
HETATM   26  C   UNL     1      43.299 -14.746   1.954  1.00  0.00     0.231 C 
HETATM   27  C   UNL     1      42.111 -15.272   1.168  1.00  0.00     0.034 C 
ENDBRANCH  24  26
BRANCH  24  28
HETATM   28  C   UNL     1      43.212 -16.802   3.368  1.00  0.00     0.231 C 
HETATM   29  C   UNL     1      43.770 -17.400   4.648  1.00  0.00     0.034 C 
ENDBRANCH  24  28
ENDBRANCH  23  24
ENDBRANCH   1  23
BRANCH   4  30
HETATM   30  C   UNL     1      44.515 -11.202   7.336  1.00  0.00     0.225 A 
HETATM   31  N   UNL     1      43.895 -10.425   8.225  1.00  0.00    -0.081 NA
HETATM   32  O   UNL     1      44.841  -9.444   8.529  1.00  0.00    -0.103 OA
HETATM   33  N   UNL     1      46.016  -9.640   7.813  1.00  0.00    -0.083 NA
HETATM   34  C   UNL     1      45.812 -10.729   7.073  1.00  0.00     0.201 A 
BRANCH  34  35
HETATM   35  N   UNL     1      46.717 -11.251   6.228  1.00  0.00    -0.379 N 
HETATM   36  H   UNL     1      47.101 -10.669   5.487  1.00  0.00     0.158 HD
HETATM   37  H   UNL     1      46.853 -12.250   6.098  1.00  0.00     0.158 HD
ENDBRANCH  34  35
ENDBRANCH   4  30
TORSDOF 11
ENDMDL
