MODEL 1
REMARK VINA RESULT:      -7.8      0.000      0.000
REMARK  9 active torsions:
REMARK  status: ('A' for Active; 'I' for Inactive)
REMARK    1  A    between atoms: C_6  and  C_7 
REMARK    2  A    between atoms: C_7  and  C_8 
REMARK    3  A    between atoms: C_11  and  N_12 
REMARK       I    between atoms: N_12  and  C_13 
REMARK       I    between atoms: C_13  and  N_14 
REMARK    4  A    between atoms: N_14  and  C_15 
REMARK    5  A    between atoms: C_15  and  C_16 
REMARK    6  A    between atoms: C_16  and  C_17 
REMARK    7  A    between atoms: C_16  and  C_19 
REMARK    8  A    between atoms: C_17  and  O_18 
REMARK    9  A    between atoms: C_19  and  C_20 
ROOT
HETATM    1  N   UNL     1      40.120 -14.410   3.984  1.00  0.00    -0.309 N 
HETATM    2  C   UNL     1      41.049 -14.805   4.891  1.00  0.00     0.320 C 
HETATM    3  N   UNL     1      42.273 -15.198   4.449  1.00  0.00    -0.342 N 
HETATM    4  O   UNL     1      40.755 -14.763   6.085  1.00  0.00    -0.247 OA
HETATM    5  H   UNL     1      39.326 -14.010   4.469  1.00  0.00     0.170 HD
HETATM    6  H   UNL     1      42.596 -14.705   3.622  1.00  0.00     0.164 HD
ENDROOT
BRANCH   1   7
HETATM    7  C   UNL     1      40.009 -14.491   2.587  1.00  0.00     0.036 A 
HETATM    8  C   UNL     1      39.925 -15.674   1.853  1.00  0.00     0.030 A 
HETATM    9  C   UNL     1      39.791 -15.637   0.458  1.00  0.00     0.010 A 
HETATM   10  C   UNL     1      39.718 -14.415  -0.225  1.00  0.00    -0.051 A 
HETATM   11  C   UNL     1      39.779 -13.229   0.512  1.00  0.00     0.010 A 
HETATM   12  C   UNL     1      39.922 -13.270   1.901  1.00  0.00     0.030 A 
BRANCH  10  13
HETATM   13  C   UNL     1      39.500 -14.379  -1.721  1.00  0.00     0.118 C 
BRANCH  13  14
HETATM   14  C   UNL     1      39.838 -13.074  -2.362  1.00  0.00     0.126 A 
HETATM   15  N   UNL     1      41.098 -12.707  -2.749  1.00  0.00    -0.263 N 
HETATM   16  N   UNL     1      41.110 -11.479  -3.288  1.00  0.00    -0.158 NA
HETATM   17  H   UNL     1      41.965 -13.230  -2.675  1.00  0.00     0.190 HD
HETATM   18  C   UNL     1      39.820 -11.137  -3.206  1.00  0.00     0.144 A 
HETATM   19  C   UNL     1      39.306  -9.841  -3.688  1.00  0.00     0.095 C 
HETATM   20  N   UNL     1      39.009 -12.090  -2.647  1.00  0.00    -0.217 NA
ENDBRANCH  13  14
ENDBRANCH  10  13
ENDBRANCH   1   7
BRANCH   3  21
HETATM   21  C   UNL     1      43.309 -15.492   5.420  1.00  0.00     0.131 C 
BRANCH  21  22
HETATM   22  C   UNL     1      43.405 -16.974   5.815  1.00  0.00     0.033 C 
BRANCH  22  23
HETATM   23  C   UNL     1      43.492 -17.139   7.339  1.00  0.00     0.170 C 
BRANCH  23  24
HETATM   24  O   UNL     1      42.773 -16.118   8.023  1.00  0.00    -0.400 OA
HETATM   25  H   UNL     1      42.166 -15.729   7.363  1.00  0.00     0.209 HD
ENDBRANCH  23  24
ENDBRANCH  22  23
BRANCH  22  26
HETATM   26  C   UNL     1      44.556 -17.659   5.059  1.00  0.00     0.073 C 
BRANCH  26  27
HETATM   27  C   UNL     1      44.058 -18.513   3.949  1.00  0.00     0.053 A 
HETATM   28  O   UNL     1      44.241 -19.857   4.082  1.00  0.00    -0.327 OA
HETATM   29  C   UNL     1      43.705 -20.438   2.977  1.00  0.00     0.142 A 
HETATM   30  C   UNL     1      43.183 -19.484   2.136  1.00  0.00     0.027 A 
HETATM   31  C   UNL     1      43.412 -18.237   2.762  1.00  0.00     0.034 A 
ENDBRANCH  26  27
ENDBRANCH  22  26
ENDBRANCH  21  22
ENDBRANCH   3  21
TORSDOF 9
ENDMDL
MODEL 2
REMARK VINA RESULT:      -7.6      5.425      9.026
REMARK  9 active torsions:
REMARK  status: ('A' for Active; 'I' for Inactive)
REMARK    1  A    between atoms: C_6  and  C_7 
REMARK    2  A    between atoms: C_7  and  C_8 
REMARK    3  A    between atoms: C_11  and  N_12 
REMARK       I    between atoms: N_12  and  C_13 
REMARK       I    between atoms: C_13  and  N_14 
REMARK    4  A    between atoms: N_14  and  C_15 
REMARK    5  A    between atoms: C_15  and  C_16 
REMARK    6  A    between atoms: C_16  and  C_17 
REMARK    7  A    between atoms: C_16  and  C_19 
REMARK    8  A    between atoms: C_17  and  O_18 
REMARK    9  A    between atoms: C_19  and  C_20 
ROOT
HETATM    1  N   UNL     1      43.781 -11.615   4.656  1.00  0.00    -0.309 N 
HETATM    2  C   UNL     1      43.004 -12.595   4.130  1.00  0.00     0.320 C 
HETATM    3  N   UNL     1      42.130 -13.247   4.942  1.00  0.00    -0.342 N 
HETATM    4  O   UNL     1      43.099 -12.834   2.927  1.00  0.00    -0.247 OA
HETATM    5  H   UNL     1      44.261 -11.129   3.907  1.00  0.00     0.170 HD
HETATM    6  H   UNL     1      41.735 -12.671   5.679  1.00  0.00     0.164 HD
ENDROOT
BRANCH   1   7
HETATM    7  C   UNL     1      44.091 -11.194   5.959  1.00  0.00     0.036 A 
HETATM    8  C   UNL     1      43.174 -10.702   6.887  1.00  0.00     0.030 A 
HETATM    9  C   UNL     1      43.591 -10.334   8.173  1.00  0.00     0.010 A 
HETATM   10  C   UNL     1      44.932 -10.469   8.560  1.00  0.00    -0.051 A 
HETATM   11  C   UNL     1      45.848 -10.984   7.638  1.00  0.00     0.010 A 
HETATM   12  C   UNL     1      45.429 -11.341   6.354  1.00  0.00     0.030 A 
BRANCH  10  13
HETATM   13  C   UNL     1      45.365 -10.140   9.970  1.00  0.00     0.118 C 
BRANCH  13  14
HETATM   14  C   UNL     1      44.240  -9.895  10.921  1.00  0.00     0.126 A 
HETATM   15  N   UNL     1      43.492 -10.882  11.502  1.00  0.00    -0.263 N 
HETATM   16  N   UNL     1      42.544 -10.375  12.304  1.00  0.00    -0.158 NA
HETATM   17  H   UNL     1      43.573 -11.889  11.397  1.00  0.00     0.190 HD
HETATM   18  C   UNL     1      42.758  -9.061  12.175  1.00  0.00     0.144 A 
HETATM   19  C   UNL     1      41.954  -8.048  12.885  1.00  0.00     0.095 C 
HETATM   20  N   UNL     1      43.791  -8.729  11.338  1.00  0.00    -0.217 NA
ENDBRANCH  13  14
ENDBRANCH  10  13
ENDBRANCH   1   7
BRANCH   3  21
HETATM   21  C   UNL     1      41.206 -14.199   4.359  1.00  0.00     0.131 C 
BRANCH  21  22
HETATM   22  C   UNL     1      41.222 -15.586   5.022  1.00  0.00     0.033 C 
BRANCH  22  23
HETATM   23  C   UNL     1      40.482 -15.569   6.367  1.00  0.00     0.170 C 
BRANCH  23  24
HETATM   24  O   UNL     1      39.652 -14.420   6.498  1.00  0.00    -0.400 OA
HETATM   25  H   UNL     1      40.247 -13.649   6.431  1.00  0.00     0.209 HD
ENDBRANCH  23  24
ENDBRANCH  22  23
BRANCH  22  26
HETATM   26  C   UNL     1      42.662 -16.116   5.123  1.00  0.00     0.073 C 
BRANCH  26  27
HETATM   27  C   UNL     1      42.959 -17.116   4.063  1.00  0.00     0.053 A 
HETATM   28  O   UNL     1      43.823 -18.118   4.391  1.00  0.00    -0.327 OA
HETATM   29  C   UNL     1      43.937 -18.913   3.295  1.00  0.00     0.142 A 
HETATM   30  C   UNL     1      43.160 -18.433   2.268  1.00  0.00     0.027 A 
HETATM   31  C   UNL     1      42.529 -17.268   2.762  1.00  0.00     0.034 A 
ENDBRANCH  26  27
ENDBRANCH  22  26
ENDBRANCH  21  22
ENDBRANCH   3  21
TORSDOF 9
ENDMDL
MODEL 3
REMARK VINA RESULT:      -7.6      3.326      7.665
REMARK  9 active torsions:
REMARK  status: ('A' for Active; 'I' for Inactive)
REMARK    1  A    between atoms: C_6  and  C_7 
REMARK    2  A    between atoms: C_7  and  C_8 
REMARK    3  A    between atoms: C_11  and  N_12 
REMARK       I    between atoms: N_12  and  C_13 
REMARK       I    between atoms: C_13  and  N_14 
REMARK    4  A    between atoms: N_14  and  C_15 
REMARK    5  A    between atoms: C_15  and  C_16 
REMARK    6  A    between atoms: C_16  and  C_17 
REMARK    7  A    between atoms: C_16  and  C_19 
REMARK    8  A    between atoms: C_17  and  O_18 
REMARK    9  A    between atoms: C_19  and  C_20 
ROOT
HETATM    1  N   UNL     1      40.281 -13.449   5.510  1.00  0.00    -0.309 N 
HETATM    2  C   UNL     1      39.700 -12.794   4.474  1.00  0.00     0.320 C 
HETATM    3  N   UNL     1      39.805 -13.317   3.224  1.00  0.00    -0.342 N 
HETATM    4  O   UNL     1      39.073 -11.763   4.712  1.00  0.00    -0.247 OA
HETATM    5  H   UNL     1      39.991 -13.023   6.382  1.00  0.00     0.170 HD
HETATM    6  H   UNL     1      39.819 -14.332   3.196  1.00  0.00     0.164 HD
ENDROOT
BRANCH   1   7
HETATM    7  C   UNL     1      41.202 -14.504   5.619  1.00  0.00     0.036 A 
HETATM    8  C   UNL     1      40.886 -15.860   5.548  1.00  0.00     0.030 A 
HETATM    9  C   UNL     1      41.893 -16.830   5.645  1.00  0.00     0.010 A 
HETATM   10  C   UNL     1      43.236 -16.459   5.793  1.00  0.00    -0.051 A 
HETATM   11  C   UNL     1      43.557 -15.099   5.841  1.00  0.00     0.010 A 
HETATM   12  C   UNL     1      42.549 -14.136   5.755  1.00  0.00     0.030 A 
BRANCH  10  13
HETATM   13  C   UNL     1      44.327 -17.506   5.823  1.00  0.00     0.118 C 
BRANCH  13  14
HETATM   14  C   UNL     1      44.105 -18.657   4.899  1.00  0.00     0.126 A 
HETATM   15  N   UNL     1      44.041 -19.965   5.295  1.00  0.00    -0.263 N 
HETATM   16  N   UNL     1      43.842 -20.786   4.254  1.00  0.00    -0.158 NA
HETATM   17  H   UNL     1      44.124 -20.352   6.230  1.00  0.00     0.190 HD
HETATM   18  C   UNL     1      43.791 -19.922   3.236  1.00  0.00     0.144 A 
HETATM   19  C   UNL     1      43.576 -20.346   1.839  1.00  0.00     0.095 C 
HETATM   20  N   UNL     1      43.945 -18.607   3.592  1.00  0.00    -0.217 NA
ENDBRANCH  13  14
ENDBRANCH  10  13
ENDBRANCH   1   7
BRANCH   3  21
HETATM   21  C   UNL     1      39.075 -12.694   2.137  1.00  0.00     0.131 C 
BRANCH  21  22
HETATM   22  C   UNL     1      39.765 -12.800   0.768  1.00  0.00     0.033 C 
BRANCH  22  23
HETATM   23  C   UNL     1      38.913 -12.157  -0.337  1.00  0.00     0.170 C 
BRANCH  23  24
HETATM   24  O   UNL     1      37.978 -13.080  -0.886  1.00  0.00    -0.400 OA
HETATM   25  H   UNL     1      38.225 -13.185  -1.825  1.00  0.00     0.209 HD
ENDBRANCH  23  24
ENDBRANCH  22  23
BRANCH  22  26
HETATM   26  C   UNL     1      40.149 -14.260   0.472  1.00  0.00     0.073 C 
BRANCH  26  27
HETATM   27  C   UNL     1      41.413 -14.648   1.152  1.00  0.00     0.053 A 
HETATM   28  O   UNL     1      42.245 -13.633   1.521  1.00  0.00    -0.327 OA
HETATM   29  C   UNL     1      43.317 -14.206   2.129  1.00  0.00     0.142 A 
HETATM   30  C   UNL     1      43.184 -15.574   2.152  1.00  0.00     0.027 A 
HETATM   31  C   UNL     1      41.954 -15.862   1.518  1.00  0.00     0.034 A 
ENDBRANCH  26  27
ENDBRANCH  22  26
ENDBRANCH  21  22
ENDBRANCH   3  21
TORSDOF 9
ENDMDL
MODEL 4
REMARK VINA RESULT:      -7.5      4.704      8.206
REMARK  9 active torsions:
REMARK  status: ('A' for Active; 'I' for Inactive)
REMARK    1  A    between atoms: C_6  and  C_7 
REMARK    2  A    between atoms: C_7  and  C_8 
REMARK    3  A    between atoms: C_11  and  N_12 
REMARK       I    between atoms: N_12  and  C_13 
REMARK       I    between atoms: C_13  and  N_14 
REMARK    4  A    between atoms: N_14  and  C_15 
REMARK    5  A    between atoms: C_15  and  C_16 
REMARK    6  A    between atoms: C_16  and  C_17 
REMARK    7  A    between atoms: C_16  and  C_19 
REMARK    8  A    between atoms: C_17  and  O_18 
REMARK    9  A    between atoms: C_19  and  C_20 
ROOT
HETATM    1  N   UNL     1      40.086 -13.868   4.941  1.00  0.00    -0.309 N 
HETATM    2  C   UNL     1      40.180 -12.678   5.585  1.00  0.00     0.320 C 
HETATM    3  N   UNL     1      41.287 -11.912   5.394  1.00  0.00    -0.342 N 
HETATM    4  O   UNL     1      39.241 -12.322   6.296  1.00  0.00    -0.247 OA
HETATM    5  H   UNL     1      39.153 -14.244   5.064  1.00  0.00     0.170 HD
HETATM    6  H   UNL     1      41.687 -11.981   4.463  1.00  0.00     0.164 HD
ENDROOT
BRANCH   1   7
HETATM    7  C   UNL     1      40.986 -14.677   4.228  1.00  0.00     0.036 A 
HETATM    8  C   UNL     1      42.374 -14.627   4.337  1.00  0.00     0.030 A 
HETATM    9  C   UNL     1      43.178 -15.502   3.593  1.00  0.00     0.010 A 
HETATM   10  C   UNL     1      42.604 -16.455   2.740  1.00  0.00    -0.051 A 
HETATM   11  C   UNL     1      41.211 -16.521   2.647  1.00  0.00     0.010 A 
HETATM   12  C   UNL     1      40.414 -15.641   3.384  1.00  0.00     0.030 A 
BRANCH  10  13
HETATM   13  C   UNL     1      43.470 -17.445   1.995  1.00  0.00     0.118 C 
BRANCH  13  14
HETATM   14  C   UNL     1      43.650 -18.754   2.689  1.00  0.00     0.126 A 
HETATM   15  N   UNL     1      43.548 -19.974   2.076  1.00  0.00    -0.263 N 
HETATM   16  N   UNL     1      43.747 -20.978   2.942  1.00  0.00    -0.158 NA
HETATM   17  H   UNL     1      43.352 -20.183   1.103  1.00  0.00     0.190 HD
HETATM   18  C   UNL     1      43.968 -20.312   4.081  1.00  0.00     0.144 A 
HETATM   19  C   UNL     1      44.251 -20.991   5.360  1.00  0.00     0.095 C 
HETATM   20  N   UNL     1      43.919 -18.948   3.964  1.00  0.00    -0.217 NA
ENDBRANCH  13  14
ENDBRANCH  10  13
ENDBRANCH   1   7
BRANCH   3  21
HETATM   21  C   UNL     1      41.331 -10.583   5.973  1.00  0.00     0.131 C 
BRANCH  21  22
HETATM   22  C   UNL     1      42.652 -10.244   6.680  1.00  0.00     0.033 C 
BRANCH  22  23
HETATM   23  C   UNL     1      43.680 -11.372   6.512  1.00  0.00     0.170 C 
BRANCH  23  24
HETATM   24  O   UNL     1      43.390 -12.480   7.356  1.00  0.00    -0.400 OA
HETATM   25  H   UNL     1      42.436 -12.661   7.244  1.00  0.00     0.209 HD
ENDBRANCH  23  24
ENDBRANCH  22  23
BRANCH  22  26
HETATM   26  C   UNL     1      42.394  -9.865   8.148  1.00  0.00     0.073 C 
BRANCH  26  27
HETATM   27  C   UNL     1      43.661  -9.713   8.911  1.00  0.00     0.053 A 
HETATM   28  O   UNL     1      43.964 -10.703   9.798  1.00  0.00    -0.327 OA
HETATM   29  C   UNL     1      45.154 -10.372  10.365  1.00  0.00     0.142 A 
HETATM   30  C   UNL     1      45.617  -9.182   9.855  1.00  0.00     0.027 A 
HETATM   31  C   UNL     1      44.650  -8.753   8.916  1.00  0.00     0.034 A 
ENDBRANCH  26  27
ENDBRANCH  22  26
ENDBRANCH  21  22
ENDBRANCH   3  21
TORSDOF 9
ENDMDL
MODEL 5
REMARK VINA RESULT:      -7.5      5.413      8.527
REMARK  9 active torsions:
REMARK  status: ('A' for Active; 'I' for Inactive)
REMARK    1  A    between atoms: C_6  and  C_7 
REMARK    2  A    between atoms: C_7  and  C_8 
REMARK    3  A    between atoms: C_11  and  N_12 
REMARK       I    between atoms: N_12  and  C_13 
REMARK       I    between atoms: C_13  and  N_14 
REMARK    4  A    between atoms: N_14  and  C_15 
REMARK    5  A    between atoms: C_15  and  C_16 
REMARK    6  A    between atoms: C_16  and  C_17 
REMARK    7  A    between atoms: C_16  and  C_19 
REMARK    8  A    between atoms: C_17  and  O_18 
REMARK    9  A    between atoms: C_19  and  C_20 
ROOT
HETATM    1  N   UNL     1      40.062 -13.848   5.777  1.00  0.00    -0.309 N 
HETATM    2  C   UNL     1      39.888 -12.536   6.076  1.00  0.00     0.320 C 
HETATM    3  N   UNL     1      40.983 -11.745   6.224  1.00  0.00    -0.342 N 
HETATM    4  O   UNL     1      38.739 -12.106   6.170  1.00  0.00    -0.247 OA
HETATM    5  H   UNL     1      39.166 -14.264   5.552  1.00  0.00     0.170 HD
HETATM    6  H   UNL     1      41.764 -11.996   5.626  1.00  0.00     0.164 HD
ENDROOT
BRANCH   1   7
HETATM    7  C   UNL     1      41.162 -14.722   5.775  1.00  0.00     0.036 A 
HETATM    8  C   UNL     1      41.469 -15.632   6.784  1.00  0.00     0.030 A 
HETATM    9  C   UNL     1      42.582 -16.476   6.666  1.00  0.00     0.010 A 
HETATM   10  C   UNL     1      43.396 -16.436   5.525  1.00  0.00    -0.051 A 
HETATM   11  C   UNL     1      43.075 -15.539   4.502  1.00  0.00     0.010 A 
HETATM   12  C   UNL     1      41.971 -14.693   4.629  1.00  0.00     0.030 A 
BRANCH  10  13
HETATM   13  C   UNL     1      44.552 -17.398   5.368  1.00  0.00     0.118 C 
BRANCH  13  14
HETATM   14  C   UNL     1      44.247 -18.601   4.538  1.00  0.00     0.126 A 
HETATM   15  N   UNL     1      44.116 -19.869   5.036  1.00  0.00    -0.263 N 
HETATM   16  N   UNL     1      43.851 -20.754   4.064  1.00  0.00    -0.158 NA
HETATM   17  H   UNL     1      44.194 -20.188   5.996  1.00  0.00     0.190 HD
HETATM   18  C   UNL     1      43.830 -19.968   2.983  1.00  0.00     0.144 A 
HETATM   19  C   UNL     1      43.565 -20.484   1.626  1.00  0.00     0.095 C 
HETATM   20  N   UNL     1      44.065 -18.642   3.234  1.00  0.00    -0.217 NA
ENDBRANCH  13  14
ENDBRANCH  10  13
ENDBRANCH   1   7
BRANCH   3  21
HETATM   21  C   UNL     1      40.799 -10.319   6.410  1.00  0.00     0.131 C 
BRANCH  21  22
HETATM   22  C   UNL     1      41.252  -9.795   7.782  1.00  0.00     0.033 C 
BRANCH  22  23
HETATM   23  C   UNL     1      40.055  -9.332   8.624  1.00  0.00     0.170 C 
BRANCH  23  24
HETATM   24  O   UNL     1      38.856 -10.003   8.252  1.00  0.00    -0.400 OA
HETATM   25  H   UNL     1      38.291 -10.006   9.048  1.00  0.00     0.209 HD
ENDBRANCH  23  24
ENDBRANCH  22  23
BRANCH  22  26
HETATM   26  C   UNL     1      42.336  -8.716   7.615  1.00  0.00     0.073 C 
BRANCH  26  27
HETATM   27  C   UNL     1      43.698  -9.257   7.863  1.00  0.00     0.053 A 
HETATM   28  O   UNL     1      43.974 -10.485   7.339  1.00  0.00    -0.327 OA
HETATM   29  C   UNL     1      45.260 -10.774   7.670  1.00  0.00     0.142 A 
HETATM   30  C   UNL     1      45.811  -9.749   8.403  1.00  0.00     0.027 A 
HETATM   31  C   UNL     1      44.801  -8.767   8.531  1.00  0.00     0.034 A 
ENDBRANCH  26  27
ENDBRANCH  22  26
ENDBRANCH  21  22
ENDBRANCH   3  21
TORSDOF 9
ENDMDL
MODEL 6
REMARK VINA RESULT:      -7.3      3.474      5.505
REMARK  9 active torsions:
REMARK  status: ('A' for Active; 'I' for Inactive)
REMARK    1  A    between atoms: C_6  and  C_7 
REMARK    2  A    between atoms: C_7  and  C_8 
REMARK    3  A    between atoms: C_11  and  N_12 
REMARK       I    between atoms: N_12  and  C_13 
REMARK       I    between atoms: C_13  and  N_14 
REMARK    4  A    between atoms: N_14  and  C_15 
REMARK    5  A    between atoms: C_15  and  C_16 
REMARK    6  A    between atoms: C_16  and  C_17 
REMARK    7  A    between atoms: C_16  and  C_19 
REMARK    8  A    between atoms: C_17  and  O_18 
REMARK    9  A    between atoms: C_19  and  C_20 
ROOT
HETATM    1  N   UNL     1      40.293 -14.565   4.655  1.00  0.00    -0.309 N 
HETATM    2  C   UNL     1      41.314 -14.377   5.528  1.00  0.00     0.320 C 
HETATM    3  N   UNL     1      42.440 -13.750   5.097  1.00  0.00    -0.342 N 
HETATM    4  O   UNL     1      41.166 -14.755   6.690  1.00  0.00    -0.247 OA
HETATM    5  H   UNL     1      39.480 -14.903   5.155  1.00  0.00     0.170 HD
HETATM    6  H   UNL     1      42.278 -13.034   4.396  1.00  0.00     0.164 HD
ENDROOT
BRANCH   1   7
HETATM    7  C   UNL     1      40.154 -14.454   3.261  1.00  0.00     0.036 A 
HETATM    8  C   UNL     1      40.072 -13.257   2.553  1.00  0.00     0.030 A 
HETATM    9  C   UNL     1      39.959 -13.263   1.156  1.00  0.00     0.010 A 
HETATM   10  C   UNL     1      39.947 -14.469   0.442  1.00  0.00    -0.051 A 
HETATM   11  C   UNL     1      40.052 -15.670   1.149  1.00  0.00     0.010 A 
HETATM   12  C   UNL     1      40.155 -15.659   2.542  1.00  0.00     0.030 A 
BRANCH  10  13
HETATM   13  C   UNL     1      39.899 -14.471  -1.070  1.00  0.00     0.118 C 
BRANCH  13  14
HETATM   14  C   UNL     1      39.068 -13.382  -1.662  1.00  0.00     0.126 A 
HETATM   15  N   UNL     1      37.700 -13.386  -1.698  1.00  0.00    -0.263 N 
HETATM   16  N   UNL     1      37.219 -12.287  -2.297  1.00  0.00    -0.158 NA
HETATM   17  H   UNL     1      37.056 -14.086  -1.344  1.00  0.00     0.190 HD
HETATM   18  C   UNL     1      38.345 -11.638  -2.612  1.00  0.00     0.144 A 
HETATM   19  C   UNL     1      38.348 -10.333  -3.300  1.00  0.00     0.095 C 
HETATM   20  N   UNL     1      39.498 -12.276  -2.236  1.00  0.00    -0.217 NA
ENDBRANCH  13  14
ENDBRANCH  10  13
ENDBRANCH   1   7
BRANCH   3  21
HETATM   21  C   UNL     1      43.477 -13.427   6.059  1.00  0.00     0.131 C 
BRANCH  21  22
HETATM   22  C   UNL     1      43.793 -11.927   6.169  1.00  0.00     0.033 C 
BRANCH  22  23
HETATM   23  C   UNL     1      43.425 -11.183   4.878  1.00  0.00     0.170 C 
BRANCH  23  24
HETATM   24  O   UNL     1      44.348 -11.455   3.830  1.00  0.00    -0.400 OA
HETATM   25  H   UNL     1      43.808 -11.623   3.033  1.00  0.00     0.209 HD
ENDBRANCH  23  24
ENDBRANCH  22  23
BRANCH  22  26
HETATM   26  C   UNL     1      45.256 -11.717   6.600  1.00  0.00     0.073 C 
BRANCH  26  27
HETATM   27  C   UNL     1      45.363 -10.803   7.768  1.00  0.00     0.053 A 
HETATM   28  O   UNL     1      44.628 -11.130   8.869  1.00  0.00    -0.327 OA
HETATM   29  C   UNL     1      44.885 -10.181   9.807  1.00  0.00     0.142 A 
HETATM   30  C   UNL     1      45.772  -9.249   9.321  1.00  0.00     0.027 A 
HETATM   31  C   UNL     1      46.080  -9.649   8.001  1.00  0.00     0.034 A 
ENDBRANCH  26  27
ENDBRANCH  22  26
ENDBRANCH  21  22
ENDBRANCH   3  21
TORSDOF 9
ENDMDL
MODEL 7
REMARK VINA RESULT:      -7.3      1.752      2.252
REMARK  9 active torsions:
REMARK  status: ('A' for Active; 'I' for Inactive)
REMARK    1  A    between atoms: C_6  and  C_7 
REMARK    2  A    between atoms: C_7  and  C_8 
REMARK    3  A    between atoms: C_11  and  N_12 
REMARK       I    between atoms: N_12  and  C_13 
REMARK       I    between atoms: C_13  and  N_14 
REMARK    4  A    between atoms: N_14  and  C_15 
REMARK    5  A    between atoms: C_15  and  C_16 
REMARK    6  A    between atoms: C_16  and  C_17 
REMARK    7  A    between atoms: C_16  and  C_19 
REMARK    8  A    between atoms: C_17  and  O_18 
REMARK    9  A    between atoms: C_19  and  C_20 
ROOT
HETATM    1  N   UNL     1      40.172 -12.864   4.896  1.00  0.00    -0.309 N 
HETATM    2  C   UNL     1      40.290 -14.072   5.501  1.00  0.00     0.320 C 
HETATM    3  N   UNL     1      40.883 -15.091   4.823  1.00  0.00    -0.342 N 
HETATM    4  O   UNL     1      39.882 -14.191   6.656  1.00  0.00    -0.247 OA
HETATM    5  H   UNL     1      39.853 -12.180   5.572  1.00  0.00     0.170 HD
HETATM    6  H   UNL     1      41.627 -14.799   4.197  1.00  0.00     0.164 HD
ENDROOT
BRANCH   1   7
HETATM    7  C   UNL     1      40.332 -12.399   3.581  1.00  0.00     0.036 A 
HETATM    8  C   UNL     1      41.550 -12.080   2.982  1.00  0.00     0.030 A 
HETATM    9  C   UNL     1      41.595 -11.648   1.650  1.00  0.00     0.010 A 
HETATM   10  C   UNL     1      40.423 -11.545   0.887  1.00  0.00    -0.051 A 
HETATM   11  C   UNL     1      39.204 -11.886   1.480  1.00  0.00     0.010 A 
HETATM   12  C   UNL     1      39.163 -12.307   2.811  1.00  0.00     0.030 A 
BRANCH  10  13
HETATM   13  C   UNL     1      40.483 -11.148  -0.571  1.00  0.00     0.118 C 
BRANCH  13  14
HETATM   14  C   UNL     1      40.275 -12.276  -1.527  1.00  0.00     0.126 A 
HETATM   15  N   UNL     1      41.219 -12.721  -2.413  1.00  0.00    -0.263 N 
HETATM   16  N   UNL     1      40.757 -13.739  -3.154  1.00  0.00    -0.158 NA
HETATM   17  H   UNL     1      42.165 -12.385  -2.558  1.00  0.00     0.190 HD
HETATM   18  C   UNL     1      39.515 -13.877  -2.677  1.00  0.00     0.144 A 
HETATM   19  C   UNL     1      38.577 -14.899  -3.179  1.00  0.00     0.095 C 
HETATM   20  N   UNL     1      39.185 -13.000  -1.677  1.00  0.00    -0.217 NA
ENDBRANCH  13  14
ENDBRANCH  10  13
ENDBRANCH   1   7
BRANCH   3  21
HETATM   21  C   UNL     1      41.132 -16.342   5.512  1.00  0.00     0.131 C 
BRANCH  21  22
HETATM   22  C   UNL     1      42.605 -16.780   5.519  1.00  0.00     0.033 C 
BRANCH  22  23
HETATM   23  C   UNL     1      43.403 -16.037   6.600  1.00  0.00     0.170 C 
BRANCH  23  24
HETATM   24  O   UNL     1      42.713 -16.019   7.845  1.00  0.00    -0.400 OA
HETATM   25  H   UNL     1      42.379 -15.108   7.954  1.00  0.00     0.209 HD
ENDBRANCH  23  24
ENDBRANCH  22  23
BRANCH  22  26
HETATM   26  C   UNL     1      43.212 -16.645   4.111  1.00  0.00     0.073 C 
BRANCH  26  27
HETATM   27  C   UNL     1      43.333 -17.962   3.433  1.00  0.00     0.053 A 
HETATM   28  O   UNL     1      43.873 -18.979   4.163  1.00  0.00    -0.327 OA
HETATM   29  C   UNL     1      43.875 -20.079   3.364  1.00  0.00     0.142 A 
HETATM   30  C   UNL     1      43.346 -19.779   2.130  1.00  0.00     0.027 A 
HETATM   31  C   UNL     1      42.997 -18.409   2.172  1.00  0.00     0.034 A 
ENDBRANCH  26  27
ENDBRANCH  22  26
ENDBRANCH  21  22
ENDBRANCH   3  21
TORSDOF 9
ENDMDL
MODEL 8
REMARK VINA RESULT:      -7.2      3.769      5.829
REMARK  9 active torsions:
REMARK  status: ('A' for Active; 'I' for Inactive)
REMARK    1  A    between atoms: C_6  and  C_7 
REMARK    2  A    between atoms: C_7  and  C_8 
REMARK    3  A    between atoms: C_11  and  N_12 
REMARK       I    between atoms: N_12  and  C_13 
REMARK       I    between atoms: C_13  and  N_14 
REMARK    4  A    between atoms: N_14  and  C_15 
REMARK    5  A    between atoms: C_15  and  C_16 
REMARK    6  A    between atoms: C_16  and  C_17 
REMARK    7  A    between atoms: C_16  and  C_19 
REMARK    8  A    between atoms: C_17  and  O_18 
REMARK    9  A    between atoms: C_19  and  C_20 
ROOT
HETATM    1  N   UNL     1      42.710 -16.048   4.646  1.00  0.00    -0.309 N 
HETATM    2  C   UNL     1      43.356 -15.344   5.610  1.00  0.00     0.320 C 
HETATM    3  N   UNL     1      43.262 -13.988   5.608  1.00  0.00    -0.342 N 
HETATM    4  O   UNL     1      43.980 -15.966   6.469  1.00  0.00    -0.247 OA
HETATM    5  H   UNL     1      42.750 -17.036   4.868  1.00  0.00     0.170 HD
HETATM    6  H   UNL     1      42.371 -13.632   5.277  1.00  0.00     0.164 HD
ENDROOT
BRANCH   1   7
HETATM    7  C   UNL     1      42.082 -15.715   3.435  1.00  0.00     0.036 A 
HETATM    8  C   UNL     1      42.738 -15.448   2.235  1.00  0.00     0.030 A 
HETATM    9  C   UNL     1      42.008 -15.149   1.076  1.00  0.00     0.010 A 
HETATM   10  C   UNL     1      40.606 -15.132   1.095  1.00  0.00    -0.051 A 
HETATM   11  C   UNL     1      39.947 -15.422   2.293  1.00  0.00     0.010 A 
HETATM   12  C   UNL     1      40.679 -15.710   3.447  1.00  0.00     0.030 A 
BRANCH  10  13
HETATM   13  C   UNL     1      39.820 -14.882  -0.172  1.00  0.00     0.118 C 
BRANCH  13  14
HETATM   14  C   UNL     1      40.315 -13.735  -0.989  1.00  0.00     0.126 A 
HETATM   15  N   UNL     1      40.679 -13.825  -2.305  1.00  0.00    -0.263 N 
HETATM   16  N   UNL     1      41.093 -12.642  -2.784  1.00  0.00    -0.158 NA
HETATM   17  H   UNL     1      40.669 -14.636  -2.915  1.00  0.00     0.190 HD
HETATM   18  C   UNL     1      40.962 -11.857  -1.710  1.00  0.00     0.144 A 
HETATM   19  C   UNL     1      41.293 -10.419  -1.727  1.00  0.00     0.095 C 
HETATM   20  N   UNL     1      40.485 -12.490  -0.592  1.00  0.00    -0.217 NA
ENDBRANCH  13  14
ENDBRANCH  10  13
ENDBRANCH   1   7
BRANCH   3  21
HETATM   21  C   UNL     1      43.838 -13.242   6.710  1.00  0.00     0.131 C 
BRANCH  21  22
HETATM   22  C   UNL     1      43.717 -11.716   6.573  1.00  0.00     0.033 C 
BRANCH  22  23
HETATM   23  C   UNL     1      43.410 -11.308   5.125  1.00  0.00     0.170 C 
BRANCH  23  24
HETATM   24  O   UNL     1      44.572 -11.359   4.305  1.00  0.00    -0.400 OA
HETATM   25  H   UNL     1      44.425 -12.091   3.675  1.00  0.00     0.209 HD
ENDBRANCH  23  24
ENDBRANCH  22  23
BRANCH  22  26
HETATM   26  C   UNL     1      44.964 -11.024   7.152  1.00  0.00     0.073 C 
BRANCH  26  27
HETATM   27  C   UNL     1      44.700 -10.440   8.493  1.00  0.00     0.053 A 
HETATM   28  O   UNL     1      43.393 -10.250   8.831  1.00  0.00    -0.327 OA
HETATM   29  C   UNL     1      43.383  -9.728  10.086  1.00  0.00     0.142 A 
HETATM   30  C   UNL     1      44.667  -9.577  10.555  1.00  0.00     0.027 A 
HETATM   31  C   UNL     1      45.520 -10.035   9.524  1.00  0.00     0.034 A 
ENDBRANCH  26  27
ENDBRANCH  22  26
ENDBRANCH  21  22
ENDBRANCH   3  21
TORSDOF 9
ENDMDL
MODEL 9
REMARK VINA RESULT:      -7.1      6.856      9.784
REMARK  9 active torsions:
REMARK  status: ('A' for Active; 'I' for Inactive)
REMARK    1  A    between atoms: C_6  and  C_7 
REMARK    2  A    between atoms: C_7  and  C_8 
REMARK    3  A    between atoms: C_11  and  N_12 
REMARK       I    between atoms: N_12  and  C_13 
REMARK       I    between atoms: C_13  and  N_14 
REMARK    4  A    between atoms: N_14  and  C_15 
REMARK    5  A    between atoms: C_15  and  C_16 
REMARK    6  A    between atoms: C_16  and  C_17 
REMARK    7  A    between atoms: C_16  and  C_19 
REMARK    8  A    between atoms: C_17  and  O_18 
REMARK    9  A    between atoms: C_19  and  C_20 
ROOT
HETATM    1  N   UNL     1      45.172 -10.718   7.044  1.00  0.00    -0.309 N 
HETATM    2  C   UNL     1      45.460  -9.927   8.107  1.00  0.00     0.320 C 
HETATM    3  N   UNL     1      44.637  -9.952   9.189  1.00  0.00    -0.342 N 
HETATM    4  O   UNL     1      46.479  -9.237   8.064  1.00  0.00    -0.247 OA
HETATM    5  H   UNL     1      45.947 -10.701   6.392  1.00  0.00     0.170 HD
HETATM    6  H   UNL     1      44.215 -10.857   9.371  1.00  0.00     0.164 HD
ENDROOT
BRANCH   1   7
HETATM    7  C   UNL     1      44.052 -11.468   6.648  1.00  0.00     0.036 A 
HETATM    8  C   UNL     1      42.960 -10.972   5.938  1.00  0.00     0.030 A 
HETATM    9  C   UNL     1      41.905 -11.819   5.572  1.00  0.00     0.010 A 
HETATM   10  C   UNL     1      41.935 -13.184   5.894  1.00  0.00    -0.051 A 
HETATM   11  C   UNL     1      43.041 -13.687   6.586  1.00  0.00     0.010 A 
HETATM   12  C   UNL     1      44.085 -12.836   6.957  1.00  0.00     0.030 A 
BRANCH  10  13
HETATM   13  C   UNL     1      40.831 -14.109   5.435  1.00  0.00     0.118 C 
BRANCH  13  14
HETATM   14  C   UNL     1      41.156 -14.898   4.210  1.00  0.00     0.126 A 
HETATM   15  N   UNL     1      40.304 -15.791   3.618  1.00  0.00    -0.263 N 
HETATM   16  N   UNL     1      40.861 -16.362   2.540  1.00  0.00    -0.158 NA
HETATM   17  H   UNL     1      39.361 -16.048   3.890  1.00  0.00     0.190 HD
HETATM   18  C   UNL     1      42.064 -15.779   2.518  1.00  0.00     0.144 A 
HETATM   19  C   UNL     1      43.077 -16.077   1.487  1.00  0.00     0.095 C 
HETATM   20  N   UNL     1      42.281 -14.874   3.524  1.00  0.00    -0.217 NA
ENDBRANCH  13  14
ENDBRANCH  10  13
ENDBRANCH   1   7
BRANCH   3  21
HETATM   21  C   UNL     1      45.014  -9.212  10.377  1.00  0.00     0.131 C 
BRANCH  21  22
HETATM   22  C   UNL     1      44.034  -9.359  11.552  1.00  0.00     0.033 C 
BRANCH  22  23
HETATM   23  C   UNL     1      43.190 -10.635  11.418  1.00  0.00     0.170 C 
BRANCH  23  24
HETATM   24  O   UNL     1      43.947 -11.802  11.719  1.00  0.00    -0.400 OA
HETATM   25  H   UNL     1      44.349 -12.086  10.875  1.00  0.00     0.209 HD
ENDBRANCH  23  24
ENDBRANCH  22  23
BRANCH  22  26
HETATM   26  C   UNL     1      43.191  -8.082  11.712  1.00  0.00     0.073 C 
BRANCH  26  27
HETATM   27  C   UNL     1      42.802  -7.850  13.128  1.00  0.00     0.053 A 
HETATM   28  O   UNL     1      41.786  -8.616  13.616  1.00  0.00    -0.327 OA
HETATM   29  C   UNL     1      41.608  -8.253  14.914  1.00  0.00     0.142 A 
HETATM   30  C   UNL     1      42.495  -7.261  15.262  1.00  0.00     0.027 A 
HETATM   31  C   UNL     1      43.266  -6.998  14.107  1.00  0.00     0.034 A 
ENDBRANCH  26  27
ENDBRANCH  22  26
ENDBRANCH  21  22
ENDBRANCH   3  21
TORSDOF 9
ENDMDL
MODEL 10
REMARK VINA RESULT:      -7.1      6.390      9.380
REMARK  9 active torsions:
REMARK  status: ('A' for Active; 'I' for Inactive)
REMARK    1  A    between atoms: C_6  and  C_7 
REMARK    2  A    between atoms: C_7  and  C_8 
REMARK    3  A    between atoms: C_11  and  N_12 
REMARK       I    between atoms: N_12  and  C_13 
REMARK       I    between atoms: C_13  and  N_14 
REMARK    4  A    between atoms: N_14  and  C_15 
REMARK    5  A    between atoms: C_15  and  C_16 
REMARK    6  A    between atoms: C_16  and  C_17 
REMARK    7  A    between atoms: C_16  and  C_19 
REMARK    8  A    between atoms: C_17  and  O_18 
REMARK    9  A    between atoms: C_19  and  C_20 
ROOT
HETATM    1  N   UNL     1      45.725 -10.937   6.750  1.00  0.00    -0.309 N 
HETATM    2  C   UNL     1      45.701 -10.098   7.816  1.00  0.00     0.320 C 
HETATM    3  N   UNL     1      44.689 -10.208   8.717  1.00  0.00    -0.342 N 
HETATM    4  O   UNL     1      46.618  -9.288   7.943  1.00  0.00    -0.247 OA
HETATM    5  H   UNL     1      46.606 -10.835   6.261  1.00  0.00     0.170 HD
HETATM    6  H   UNL     1      44.350 -11.156   8.851  1.00  0.00     0.164 HD
ENDROOT
BRANCH   1   7
HETATM    7  C   UNL     1      44.803 -11.828   6.175  1.00  0.00     0.036 A 
HETATM    8  C   UNL     1      44.377 -13.025   6.748  1.00  0.00     0.030 A 
HETATM    9  C   UNL     1      43.431 -13.829   6.095  1.00  0.00     0.010 A 
HETATM   10  C   UNL     1      42.882 -13.437   4.867  1.00  0.00    -0.051 A 
HETATM   11  C   UNL     1      43.292 -12.225   4.303  1.00  0.00     0.010 A 
HETATM   12  C   UNL     1      44.242 -11.433   4.952  1.00  0.00     0.030 A 
BRANCH  10  13
HETATM   13  C   UNL     1      41.809 -14.269   4.201  1.00  0.00     0.118 C 
BRANCH  13  14
HETATM   14  C   UNL     1      42.328 -15.354   3.317  1.00  0.00     0.126 A 
HETATM   15  N   UNL     1      42.915 -15.144   2.100  1.00  0.00    -0.263 N 
HETATM   16  N   UNL     1      43.278 -16.298   1.521  1.00  0.00    -0.158 NA
HETATM   17  H   UNL     1      43.093 -14.267   1.621  1.00  0.00     0.190 HD
HETATM   18  C   UNL     1      42.885 -17.191   2.436  1.00  0.00     0.144 A 
HETATM   19  C   UNL     1      43.074 -18.645   2.264  1.00  0.00     0.095 C 
HETATM   20  N   UNL     1      42.302 -16.651   3.551  1.00  0.00    -0.217 NA
ENDBRANCH  13  14
ENDBRANCH  10  13
ENDBRANCH   1   7
BRANCH   3  21
HETATM   21  C   UNL     1      44.732  -9.407   9.924  1.00  0.00     0.131 C 
BRANCH  21  22
HETATM   22  C   UNL     1      43.483  -8.542  10.156  1.00  0.00     0.033 C 
BRANCH  22  23
HETATM   23  C   UNL     1      43.511  -7.278   9.285  1.00  0.00     0.170 C 
BRANCH  23  24
HETATM   24  O   UNL     1      44.742  -7.148   8.583  1.00  0.00    -0.400 OA
HETATM   25  H   UNL     1      44.941  -6.192   8.563  1.00  0.00     0.209 HD
ENDBRANCH  23  24
ENDBRANCH  22  23
BRANCH  22  26
HETATM   26  C   UNL     1      43.304  -8.248  11.655  1.00  0.00     0.073 C 
BRANCH  26  27
HETATM   27  C   UNL     1      42.035  -8.817  12.183  1.00  0.00     0.053 A 
HETATM   28  O   UNL     1      41.968  -9.017  13.529  1.00  0.00    -0.327 OA
HETATM   29  C   UNL     1      40.734  -9.522  13.790  1.00  0.00     0.142 A 
HETATM   30  C   UNL     1      40.010  -9.650  12.628  1.00  0.00     0.027 A 
HETATM   31  C   UNL     1      40.852  -9.197  11.587  1.00  0.00     0.034 A 
ENDBRANCH  26  27
ENDBRANCH  22  26
ENDBRANCH  21  22
ENDBRANCH   3  21
TORSDOF 9
ENDMDL
