MODEL 1
REMARK VINA RESULT:      -8.8      0.000      0.000
REMARK  7 active torsions:
REMARK  status: ('A' for Active; 'I' for Inactive)
REMARK    1  A    between atoms: C_2  and  O_3 
REMARK    2  A    between atoms: O_3  and  C_4 
REMARK       I    between atoms: C_4  and  N_5 
REMARK       I    between atoms: N_8  and  C_9 
REMARK    3  A    between atoms: C_9  and  C_10 
REMARK    4  A    between atoms: C_11  and  N_12 
REMARK       I    between atoms: N_12  and  C_13 
REMARK    5  A    between atoms: C_13  and  C_14 
REMARK    6  A    between atoms: N_16  and  C_17 
REMARK    7  A    between atoms: C_18  and  O_19 
ROOT
HETATM    1  C   UNL     1      41.938 -11.087   6.426  1.00  0.00     0.059 A 
HETATM    2  C   UNL     1      42.623 -12.217   5.950  1.00  0.00     0.050 A 
HETATM    3  C   UNL     1      43.946 -12.430   6.377  1.00  0.00     0.030 A 
HETATM    4  C   UNL     1      44.569 -11.559   7.274  1.00  0.00     0.002 A 
HETATM    5  C   UNL     1      43.891 -10.437   7.734  1.00  0.00     0.001 A 
HETATM    6  C   UNL     1      42.591 -10.190   7.295  1.00  0.00     0.019 A 
ENDROOT
BRANCH   2   7
HETATM    7  N   UNL     1      42.146 -13.140   4.997  1.00  0.00    -0.326 N 
HETATM    8  C   UNL     1      40.978 -13.872   5.037  1.00  0.00     0.228 C 
HETATM    9  O   UNL     1      40.354 -14.134   6.062  1.00  0.00    -0.273 OA
HETATM   10  H   UNL     1      42.793 -13.360   4.248  1.00  0.00     0.169 HD
BRANCH   8  11
HETATM   11  C   UNL     1      40.492 -14.377   3.671  1.00  0.00     0.105 C 
HETATM   12  C   UNL     1      40.584 -15.885   3.514  1.00  0.00     0.147 C 
HETATM   13  N   UNL     1      41.937 -16.088   3.035  1.00  0.00    -0.315 N 
HETATM   14  C   UNL     1      42.429 -14.933   2.408  1.00  0.00     0.225 C 
HETATM   15  O   UNL     1      43.490 -14.790   1.823  1.00  0.00    -0.273 OA
HETATM   16  C   UNL     1      41.382 -13.852   2.549  1.00  0.00     0.119 C 
BRANCH  13  17
HETATM   17  C   UNL     1      42.692 -17.252   3.337  1.00  0.00     0.071 A 
HETATM   18  C   UNL     1      43.496 -17.351   4.485  1.00  0.00     0.095 A 
HETATM   19  C   UNL     1      44.350 -18.444   4.670  1.00  0.00     0.039 A 
HETATM   20  C   UNL     1      44.391 -19.469   3.728  1.00  0.00     0.009 A 
HETATM   21  C   UNL     1      43.563 -19.422   2.604  1.00  0.00    -0.060 A 
HETATM   22  C   UNL     1      43.646 -20.486   1.548  1.00  0.00     0.048 C 
HETATM   23  C   UNL     1      42.716 -18.317   2.422  1.00  0.00     0.039 A 
BRANCH  18  24
HETATM   24  O   UNL     1      43.457 -16.367   5.443  1.00  0.00    -0.354 OA
HETATM   25  C   UNL     1      42.718 -16.807   6.586  1.00  0.00     0.210 C 
ENDBRANCH  18  24
ENDBRANCH  13  17
ENDBRANCH   8  11
ENDBRANCH   2   7
BRANCH   1  26
HETATM   26  C   UNL     1      40.638 -10.631   5.878  1.00  0.00     0.256 C 
HETATM   27  N   UNL     1      40.600 -10.101   4.595  1.00  0.00    -0.345 N 
HETATM   28  C   UNL     1      41.752  -9.707   3.779  1.00  0.00     0.146 C 
HETATM   29  C   UNL     1      39.316  -9.757   3.990  1.00  0.00     0.146 C 
HETATM   30  C   UNL     1      41.675 -10.378   2.402  1.00  0.00     0.148 C 
HETATM   31  N   UNL     1      40.373 -10.196   1.755  1.00  0.00    -0.325 N 
HETATM   32  C   UNL     1      40.314 -10.390   0.382  1.00  0.00     0.362 C 
HETATM   33  C   UNL     1      39.181 -10.389   2.599  1.00  0.00     0.148 C 
HETATM   34  O   UNL     1      41.302 -10.548  -0.324  1.00  0.00    -0.238 OA
HETATM   35  O   UNL     1      39.633 -10.829   6.560  1.00  0.00    -0.267 OA
BRANCH  32  36
HETATM   36  O   UNL     1      39.038 -10.384  -0.090  1.00  0.00    -0.304 OA
BRANCH  36  37
HETATM   37  C   UNL     1      38.828 -11.045  -1.345  1.00  0.00     0.176 C 
HETATM   38  C   UNL     1      38.396 -12.485  -1.129  1.00  0.00     0.034 C 
ENDBRANCH  36  37
ENDBRANCH  32  36
ENDBRANCH   1  26
TORSDOF 7
ENDMDL
MODEL 2
REMARK VINA RESULT:      -8.6      3.540      6.148
REMARK  7 active torsions:
REMARK  status: ('A' for Active; 'I' for Inactive)
REMARK    1  A    between atoms: C_2  and  O_3 
REMARK    2  A    between atoms: O_3  and  C_4 
REMARK       I    between atoms: C_4  and  N_5 
REMARK       I    between atoms: N_8  and  C_9 
REMARK    3  A    between atoms: C_9  and  C_10 
REMARK    4  A    between atoms: C_11  and  N_12 
REMARK       I    between atoms: N_12  and  C_13 
REMARK    5  A    between atoms: C_13  and  C_14 
REMARK    6  A    between atoms: N_16  and  C_17 
REMARK    7  A    between atoms: C_18  and  O_19 
ROOT
HETATM    1  C   UNL     1      43.919  -9.985   7.623  1.00  0.00     0.059 A 
HETATM    2  C   UNL     1      44.403 -11.007   6.790  1.00  0.00     0.050 A 
HETATM    3  C   UNL     1      45.792 -11.212   6.715  1.00  0.00     0.030 A 
HETATM    4  C   UNL     1      46.681 -10.441   7.468  1.00  0.00     0.002 A 
HETATM    5  C   UNL     1      46.198  -9.424   8.283  1.00  0.00     0.001 A 
HETATM    6  C   UNL     1      44.827  -9.183   8.343  1.00  0.00     0.019 A 
ENDROOT
BRANCH   2   7
HETATM    7  N   UNL     1      43.632 -11.815   5.928  1.00  0.00    -0.326 N 
HETATM    8  C   UNL     1      42.903 -12.941   6.249  1.00  0.00     0.228 C 
HETATM    9  O   UNL     1      43.102 -13.643   7.237  1.00  0.00    -0.273 OA
HETATM   10  H   UNL     1      43.712 -11.593   4.942  1.00  0.00     0.169 HD
BRANCH   8  11
HETATM   11  C   UNL     1      41.793 -13.290   5.249  1.00  0.00     0.105 C 
HETATM   12  C   UNL     1      41.511 -14.780   5.150  1.00  0.00     0.147 C 
HETATM   13  N   UNL     1      42.461 -15.233   4.154  1.00  0.00    -0.315 N 
HETATM   14  C   UNL     1      42.855 -14.179   3.315  1.00  0.00     0.225 C 
HETATM   15  O   UNL     1      43.569 -14.231   2.328  1.00  0.00    -0.273 OA
HETATM   16  C   UNL     1      42.202 -12.916   3.828  1.00  0.00     0.119 C 
BRANCH  13  17
HETATM   17  C   UNL     1      43.029 -16.534   4.170  1.00  0.00     0.071 A 
HETATM   18  C   UNL     1      43.948 -16.943   5.152  1.00  0.00     0.095 A 
HETATM   19  C   UNL     1      44.609 -18.172   5.048  1.00  0.00     0.039 A 
HETATM   20  C   UNL     1      44.341 -19.023   3.978  1.00  0.00     0.009 A 
HETATM   21  C   UNL     1      43.394 -18.665   3.017  1.00  0.00    -0.060 A 
HETATM   22  C   UNL     1      43.145 -19.544   1.825  1.00  0.00     0.048 C 
HETATM   23  C   UNL     1      42.741 -17.427   3.125  1.00  0.00     0.039 A 
BRANCH  18  24
HETATM   24  O   UNL     1      44.213 -16.134   6.230  1.00  0.00    -0.354 OA
HETATM   25  C   UNL     1      43.974 -16.833   7.455  1.00  0.00     0.210 C 
ENDBRANCH  18  24
ENDBRANCH  13  17
ENDBRANCH   8  11
ENDBRANCH   2   7
BRANCH   1  26
HETATM   26  C   UNL     1      42.510  -9.523   7.611  1.00  0.00     0.256 C 
HETATM   27  N   UNL     1      41.873  -9.285   8.822  1.00  0.00    -0.345 N 
HETATM   28  C   UNL     1      42.355  -9.669  10.152  1.00  0.00     0.146 C 
HETATM   29  C   UNL     1      40.528  -8.716   8.835  1.00  0.00     0.146 C 
HETATM   30  C   UNL     1      42.359  -8.450  11.083  1.00  0.00     0.148 C 
HETATM   31  N   UNL     1      41.083  -7.728  11.076  1.00  0.00    -0.325 N 
HETATM   32  C   UNL     1      40.826  -6.884  12.147  1.00  0.00     0.362 C 
HETATM   33  C   UNL     1      40.460  -7.496   9.762  1.00  0.00     0.148 C 
HETATM   34  O   UNL     1      41.525  -6.831  13.152  1.00  0.00    -0.238 OA
HETATM   35  O   UNL     1      41.999  -9.285   6.518  1.00  0.00    -0.267 OA
BRANCH  32  36
HETATM   36  O   UNL     1      39.713  -6.125  11.956  1.00  0.00    -0.304 OA
BRANCH  36  37
HETATM   37  C   UNL     1      38.863  -5.956  13.098  1.00  0.00     0.176 C 
HETATM   38  C   UNL     1      37.759  -6.999  13.106  1.00  0.00     0.034 C 
ENDBRANCH  36  37
ENDBRANCH  32  36
ENDBRANCH   1  26
TORSDOF 7
ENDMDL
MODEL 3
REMARK VINA RESULT:      -8.4      4.182      7.492
REMARK  7 active torsions:
REMARK  status: ('A' for Active; 'I' for Inactive)
REMARK    1  A    between atoms: C_2  and  O_3 
REMARK    2  A    between atoms: O_3  and  C_4 
REMARK       I    between atoms: C_4  and  N_5 
REMARK       I    between atoms: N_8  and  C_9 
REMARK    3  A    between atoms: C_9  and  C_10 
REMARK    4  A    between atoms: C_11  and  N_12 
REMARK       I    between atoms: N_12  and  C_13 
REMARK    5  A    between atoms: C_13  and  C_14 
REMARK    6  A    between atoms: N_16  and  C_17 
REMARK    7  A    between atoms: C_18  and  O_19 
ROOT
HETATM    1  C   UNL     1      43.790  -9.572   8.089  1.00  0.00     0.059 A 
HETATM    2  C   UNL     1      43.212 -10.581   7.302  1.00  0.00     0.050 A 
HETATM    3  C   UNL     1      44.049 -11.575   6.762  1.00  0.00     0.030 A 
HETATM    4  C   UNL     1      45.422 -11.585   7.018  1.00  0.00     0.002 A 
HETATM    5  C   UNL     1      45.991 -10.579   7.789  1.00  0.00     0.001 A 
HETATM    6  C   UNL     1      45.184  -9.566   8.303  1.00  0.00     0.019 A 
ENDROOT
BRANCH   2   7
HETATM    7  N   UNL     1      41.860 -10.659   6.908  1.00  0.00    -0.326 N 
HETATM    8  C   UNL     1      41.284 -10.171   5.754  1.00  0.00     0.228 C 
HETATM    9  O   UNL     1      41.756  -9.269   5.067  1.00  0.00    -0.273 OA
HETATM   10  H   UNL     1      41.228 -11.029   7.609  1.00  0.00     0.169 HD
BRANCH   8  11
HETATM   11  C   UNL     1      39.954 -10.835   5.373  1.00  0.00     0.105 C 
HETATM   12  C   UNL     1      39.931 -12.333   5.622  1.00  0.00     0.147 C 
HETATM   13  N   UNL     1      40.481 -12.883   4.400  1.00  0.00    -0.315 N 
HETATM   14  C   UNL     1      40.318 -11.993   3.328  1.00  0.00     0.225 C 
HETATM   15  O   UNL     1      40.587 -12.175   2.152  1.00  0.00    -0.273 OA
HETATM   16  C   UNL     1      39.701 -10.725   3.873  1.00  0.00     0.119 C 
BRANCH  13  17
HETATM   17  C   UNL     1      41.235 -14.086   4.370  1.00  0.00     0.071 A 
HETATM   18  C   UNL     1      40.836 -15.207   3.622  1.00  0.00     0.095 A 
HETATM   19  C   UNL     1      41.512 -16.426   3.741  1.00  0.00     0.039 A 
HETATM   20  C   UNL     1      42.615 -16.536   4.585  1.00  0.00     0.009 A 
HETATM   21  C   UNL     1      43.066 -15.424   5.299  1.00  0.00    -0.060 A 
HETATM   22  C   UNL     1      44.211 -15.547   6.263  1.00  0.00     0.048 C 
HETATM   23  C   UNL     1      42.376 -14.207   5.180  1.00  0.00     0.039 A 
BRANCH  18  24
HETATM   24  O   UNL     1      39.767 -15.120   2.763  1.00  0.00    -0.354 OA
HETATM   25  C   UNL     1      40.107 -15.655   1.481  1.00  0.00     0.210 C 
ENDBRANCH  18  24
ENDBRANCH  13  17
ENDBRANCH   8  11
ENDBRANCH   2   7
BRANCH   1  26
HETATM   26  C   UNL     1      43.061  -8.354   8.517  1.00  0.00     0.256 C 
HETATM   27  N   UNL     1      42.338  -8.387   9.702  1.00  0.00    -0.345 N 
HETATM   28  C   UNL     1      42.002  -9.580  10.485  1.00  0.00     0.146 C 
HETATM   29  C   UNL     1      41.711  -7.168  10.204  1.00  0.00     0.146 C 
HETATM   30  C   UNL     1      42.429  -9.388  11.945  1.00  0.00     0.148 C 
HETATM   31  N   UNL     1      41.951  -8.124  12.514  1.00  0.00    -0.325 N 
HETATM   32  C   UNL     1      41.917  -8.024  13.897  1.00  0.00     0.362 C 
HETATM   33  C   UNL     1      42.090  -6.925  11.671  1.00  0.00     0.148 C 
HETATM   34  O   UNL     1      42.111  -8.969  14.652  1.00  0.00    -0.238 OA
HETATM   35  O   UNL     1      43.209  -7.336   7.841  1.00  0.00    -0.267 OA
BRANCH  32  36
HETATM   36  O   UNL     1      41.642  -6.760  14.321  1.00  0.00    -0.304 OA
BRANCH  36  37
HETATM   37  C   UNL     1      40.452  -6.605  15.106  1.00  0.00     0.176 C 
HETATM   38  C   UNL     1      39.262  -6.277  14.221  1.00  0.00     0.034 C 
ENDBRANCH  36  37
ENDBRANCH  32  36
ENDBRANCH   1  26
TORSDOF 7
ENDMDL
MODEL 4
REMARK VINA RESULT:      -8.4      2.860      5.419
REMARK  7 active torsions:
REMARK  status: ('A' for Active; 'I' for Inactive)
REMARK    1  A    between atoms: C_2  and  O_3 
REMARK    2  A    between atoms: O_3  and  C_4 
REMARK       I    between atoms: C_4  and  N_5 
REMARK       I    between atoms: N_8  and  C_9 
REMARK    3  A    between atoms: C_9  and  C_10 
REMARK    4  A    between atoms: C_11  and  N_12 
REMARK       I    between atoms: N_12  and  C_13 
REMARK    5  A    between atoms: C_13  and  C_14 
REMARK    6  A    between atoms: N_16  and  C_17 
REMARK    7  A    between atoms: C_18  and  O_19 
ROOT
HETATM    1  C   UNL     1      39.037 -12.539  -0.878  1.00  0.00     0.059 A 
HETATM    2  C   UNL     1      39.533 -13.720  -0.301  1.00  0.00     0.050 A 
HETATM    3  C   UNL     1      39.465 -14.911  -1.046  1.00  0.00     0.030 A 
HETATM    4  C   UNL     1      38.944 -14.928  -2.342  1.00  0.00     0.002 A 
HETATM    5  C   UNL     1      38.445 -13.760  -2.904  1.00  0.00     0.001 A 
HETATM    6  C   UNL     1      38.471 -12.577  -2.168  1.00  0.00     0.019 A 
ENDROOT
BRANCH   2   7
HETATM    7  N   UNL     1      40.024 -13.863   1.013  1.00  0.00    -0.326 N 
HETATM    8  C   UNL     1      41.190 -14.477   1.420  1.00  0.00     0.228 C 
HETATM    9  O   UNL     1      41.797 -15.322   0.767  1.00  0.00    -0.273 OA
HETATM   10  H   UNL     1      39.389 -13.567   1.745  1.00  0.00     0.169 HD
BRANCH   8  11
HETATM   11  C   UNL     1      41.696 -14.037   2.800  1.00  0.00     0.105 C 
HETATM   12  C   UNL     1      42.874 -14.854   3.303  1.00  0.00     0.147 C 
HETATM   13  N   UNL     1      42.241 -15.977   3.965  1.00  0.00    -0.315 N 
HETATM   14  C   UNL     1      40.936 -15.656   4.366  1.00  0.00     0.225 C 
HETATM   15  O   UNL     1      40.162 -16.337   5.021  1.00  0.00    -0.273 OA
HETATM   16  C   UNL     1      40.631 -14.263   3.868  1.00  0.00     0.119 C 
BRANCH  13  17
HETATM   17  C   UNL     1      42.831 -17.268   4.021  1.00  0.00     0.071 A 
HETATM   18  C   UNL     1      43.510 -17.737   5.158  1.00  0.00     0.095 A 
HETATM   19  C   UNL     1      44.217 -18.945   5.124  1.00  0.00     0.039 A 
HETATM   20  C   UNL     1      44.231 -19.716   3.964  1.00  0.00     0.009 A 
HETATM   21  C   UNL     1      43.521 -19.299   2.836  1.00  0.00    -0.060 A 
HETATM   22  C   UNL     1      43.583 -20.087   1.560  1.00  0.00     0.048 C 
HETATM   23  C   UNL     1      42.822 -18.082   2.877  1.00  0.00     0.039 A 
BRANCH  18  24
HETATM   24  O   UNL     1      43.492 -17.009   6.324  1.00  0.00    -0.354 OA
HETATM   25  C   UNL     1      44.753 -16.367   6.536  1.00  0.00     0.210 C 
ENDBRANCH  18  24
ENDBRANCH  13  17
ENDBRANCH   8  11
ENDBRANCH   2   7
BRANCH   1  26
HETATM   26  C   UNL     1      38.841 -11.281  -0.118  1.00  0.00     0.256 C 
HETATM   27  N   UNL     1      39.927 -10.435   0.069  1.00  0.00    -0.345 N 
HETATM   28  C   UNL     1      41.334 -10.751  -0.193  1.00  0.00     0.146 C 
HETATM   29  C   UNL     1      39.733  -9.137   0.709  1.00  0.00     0.146 C 
HETATM   30  C   UNL     1      41.955  -9.676  -1.092  1.00  0.00     0.148 C 
HETATM   31  N   UNL     1      41.711  -8.316  -0.602  1.00  0.00    -0.325 N 
HETATM   32  C   UNL     1      42.541  -7.311  -1.078  1.00  0.00     0.362 C 
HETATM   33  C   UNL     1      40.347  -8.014  -0.138  1.00  0.00     0.148 C 
HETATM   34  O   UNL     1      43.543  -7.520  -1.751  1.00  0.00    -0.238 OA
HETATM   35  O   UNL     1      37.695 -11.002   0.234  1.00  0.00    -0.267 OA
BRANCH  32  36
HETATM   36  O   UNL     1      42.118  -6.070  -0.714  1.00  0.00    -0.304 OA
BRANCH  36  37
HETATM   37  C   UNL     1      42.077  -5.088  -1.758  1.00  0.00     0.176 C 
HETATM   38  C   UNL     1      43.123  -4.012  -1.526  1.00  0.00     0.034 C 
ENDBRANCH  36  37
ENDBRANCH  32  36
ENDBRANCH   1  26
TORSDOF 7
ENDMDL
MODEL 5
REMARK VINA RESULT:      -8.0      4.036      7.426
REMARK  7 active torsions:
REMARK  status: ('A' for Active; 'I' for Inactive)
REMARK    1  A    between atoms: C_2  and  O_3 
REMARK    2  A    between atoms: O_3  and  C_4 
REMARK       I    between atoms: C_4  and  N_5 
REMARK       I    between atoms: N_8  and  C_9 
REMARK    3  A    between atoms: C_9  and  C_10 
REMARK    4  A    between atoms: C_11  and  N_12 
REMARK       I    between atoms: N_12  and  C_13 
REMARK    5  A    between atoms: C_13  and  C_14 
REMARK    6  A    between atoms: N_16  and  C_17 
REMARK    7  A    between atoms: C_18  and  O_19 
ROOT
HETATM    1  C   UNL     1      43.744  -9.830   8.533  1.00  0.00     0.059 A 
HETATM    2  C   UNL     1      44.396 -10.953   8.000  1.00  0.00     0.050 A 
HETATM    3  C   UNL     1      45.766 -10.853   7.696  1.00  0.00     0.030 A 
HETATM    4  C   UNL     1      46.480  -9.677   7.939  1.00  0.00     0.002 A 
HETATM    5  C   UNL     1      45.827  -8.565   8.456  1.00  0.00     0.001 A 
HETATM    6  C   UNL     1      44.463  -8.634   8.731  1.00  0.00     0.019 A 
ENDROOT
BRANCH   2   7
HETATM    7  N   UNL     1      43.792 -12.177   7.644  1.00  0.00    -0.326 N 
HETATM    8  C   UNL     1      43.709 -12.747   6.391  1.00  0.00     0.228 C 
HETATM    9  O   UNL     1      43.802 -12.128   5.335  1.00  0.00    -0.273 OA
HETATM   10  H   UNL     1      43.272 -12.633   8.385  1.00  0.00     0.169 HD
BRANCH   8  11
HETATM   11  C   UNL     1      43.466 -14.263   6.394  1.00  0.00     0.105 C 
HETATM   12  C   UNL     1      43.117 -14.824   5.027  1.00  0.00     0.147 C 
HETATM   13  N   UNL     1      41.679 -14.660   4.957  1.00  0.00    -0.315 N 
HETATM   14  C   UNL     1      41.116 -14.590   6.240  1.00  0.00     0.225 C 
HETATM   15  O   UNL     1      39.934 -14.540   6.541  1.00  0.00    -0.273 OA
HETATM   16  C   UNL     1      42.248 -14.618   7.241  1.00  0.00     0.119 C 
BRANCH  13  17
HETATM   17  C   UNL     1      40.991 -14.425   3.737  1.00  0.00     0.071 A 
HETATM   18  C   UNL     1      40.791 -15.433   2.778  1.00  0.00     0.095 A 
HETATM   19  C   UNL     1      40.254 -15.132   1.522  1.00  0.00     0.039 A 
HETATM   20  C   UNL     1      39.881 -13.826   1.215  1.00  0.00     0.009 A 
HETATM   21  C   UNL     1      40.019 -12.814   2.167  1.00  0.00    -0.060 A 
HETATM   22  C   UNL     1      39.683 -11.391   1.825  1.00  0.00     0.048 C 
HETATM   23  C   UNL     1      40.566 -13.124   3.422  1.00  0.00     0.039 A 
BRANCH  18  24
HETATM   24  O   UNL     1      41.128 -16.735   3.064  1.00  0.00    -0.354 OA
HETATM   25  C   UNL     1      42.263 -17.142   2.295  1.00  0.00     0.210 C 
ENDBRANCH  18  24
ENDBRANCH  13  17
ENDBRANCH   8  11
ENDBRANCH   2   7
BRANCH   1  26
HETATM   26  C   UNL     1      42.271  -9.735   8.677  1.00  0.00     0.256 C 
HETATM   27  N   UNL     1      41.730  -9.583   9.948  1.00  0.00    -0.345 N 
HETATM   28  C   UNL     1      42.437  -9.746  11.222  1.00  0.00     0.146 C 
HETATM   29  C   UNL     1      40.294  -9.368  10.104  1.00  0.00     0.146 C 
HETATM   30  C   UNL     1      42.231  -8.506  12.099  1.00  0.00     0.148 C 
HETATM   31  N   UNL     1      40.820  -8.126  12.223  1.00  0.00    -0.325 N 
HETATM   32  C   UNL     1      40.474  -7.303  13.285  1.00  0.00     0.362 C 
HETATM   33  C   UNL     1      40.019  -8.144  10.987  1.00  0.00     0.148 C 
HETATM   34  O   UNL     1      41.242  -7.011  14.194  1.00  0.00    -0.238 OA
HETATM   35  O   UNL     1      41.600  -9.704   7.646  1.00  0.00    -0.267 OA
BRANCH  32  36
HETATM   36  O   UNL     1      39.191  -6.860  13.204  1.00  0.00    -0.304 OA
BRANCH  36  37
HETATM   37  C   UNL     1      38.989  -5.466  13.474  1.00  0.00     0.176 C 
HETATM   38  C   UNL     1      38.954  -4.666  12.184  1.00  0.00     0.034 C 
ENDBRANCH  36  37
ENDBRANCH  32  36
ENDBRANCH   1  26
TORSDOF 7
ENDMDL
MODEL 6
REMARK VINA RESULT:      -8.0      4.612      7.944
REMARK  7 active torsions:
REMARK  status: ('A' for Active; 'I' for Inactive)
REMARK    1  A    between atoms: C_2  and  O_3 
REMARK    2  A    between atoms: O_3  and  C_4 
REMARK       I    between atoms: C_4  and  N_5 
REMARK       I    between atoms: N_8  and  C_9 
REMARK    3  A    between atoms: C_9  and  C_10 
REMARK    4  A    between atoms: C_11  and  N_12 
REMARK       I    between atoms: N_12  and  C_13 
REMARK    5  A    between atoms: C_13  and  C_14 
REMARK    6  A    between atoms: N_16  and  C_17 
REMARK    7  A    between atoms: C_18  and  O_19 
ROOT
HETATM    1  C   UNL     1      43.832  -8.876   8.401  1.00  0.00     0.059 A 
HETATM    2  C   UNL     1      43.314 -10.084   7.907  1.00  0.00     0.050 A 
HETATM    3  C   UNL     1      44.214 -11.073   7.471  1.00  0.00     0.030 A 
HETATM    4  C   UNL     1      45.596 -10.881   7.548  1.00  0.00     0.002 A 
HETATM    5  C   UNL     1      46.103  -9.681   8.028  1.00  0.00     0.001 A 
HETATM    6  C   UNL     1      45.227  -8.675   8.431  1.00  0.00     0.019 A 
ENDROOT
BRANCH   2   7
HETATM    7  N   UNL     1      41.951 -10.388   7.711  1.00  0.00    -0.326 N 
HETATM    8  C   UNL     1      41.226 -10.314   6.540  1.00  0.00     0.228 C 
HETATM    9  O   UNL     1      41.531  -9.621   5.574  1.00  0.00    -0.273 OA
HETATM   10  H   UNL     1      41.427 -10.585   8.556  1.00  0.00     0.169 HD
BRANCH   8  11
HETATM   11  C   UNL     1      39.952 -11.171   6.522  1.00  0.00     0.105 C 
HETATM   12  C   UNL     1      40.191 -12.604   6.077  1.00  0.00     0.147 C 
HETATM   13  N   UNL     1      40.083 -12.527   4.634  1.00  0.00    -0.315 N 
HETATM   14  C   UNL     1      39.316 -11.419   4.244  1.00  0.00     0.225 C 
HETATM   15  O   UNL     1      38.959 -11.112   3.118  1.00  0.00    -0.273 OA
HETATM   16  C   UNL     1      38.958 -10.646   5.491  1.00  0.00     0.119 C 
BRANCH  13  17
HETATM   17  C   UNL     1      40.817 -13.375   3.763  1.00  0.00     0.071 A 
HETATM   18  C   UNL     1      42.209 -13.266   3.601  1.00  0.00     0.095 A 
HETATM   19  C   UNL     1      42.877 -14.005   2.619  1.00  0.00     0.039 A 
HETATM   20  C   UNL     1      42.170 -14.887   1.804  1.00  0.00     0.009 A 
HETATM   21  C   UNL     1      40.795 -15.054   1.978  1.00  0.00    -0.060 A 
HETATM   22  C   UNL     1      40.012 -15.950   1.063  1.00  0.00     0.048 C 
HETATM   23  C   UNL     1      40.132 -14.302   2.961  1.00  0.00     0.039 A 
BRANCH  18  24
HETATM   24  O   UNL     1      42.934 -12.423   4.409  1.00  0.00    -0.354 OA
HETATM   25  C   UNL     1      43.830 -11.626   3.628  1.00  0.00     0.210 C 
ENDBRANCH  18  24
ENDBRANCH  13  17
ENDBRANCH   8  11
ENDBRANCH   2   7
BRANCH   1  26
HETATM   26  C   UNL     1      42.997  -7.681   8.671  1.00  0.00     0.256 C 
HETATM   27  N   UNL     1      42.403  -7.546   9.919  1.00  0.00    -0.345 N 
HETATM   28  C   UNL     1      42.301  -8.580  10.953  1.00  0.00     0.146 C 
HETATM   29  C   UNL     1      41.675  -6.323  10.247  1.00  0.00     0.146 C 
HETATM   30  C   UNL     1      42.840  -8.045  12.285  1.00  0.00     0.148 C 
HETATM   31  N   UNL     1      42.261  -6.750  12.652  1.00  0.00    -0.325 N 
HETATM   32  C   UNL     1      42.349  -6.370  13.984  1.00  0.00     0.362 C 
HETATM   33  C   UNL     1      42.160  -5.743  11.582  1.00  0.00     0.148 C 
HETATM   34  O   UNL     1      42.736  -7.113  14.877  1.00  0.00    -0.238 OA
HETATM   35  O   UNL     1      42.944  -6.815   7.797  1.00  0.00    -0.267 OA
BRANCH  32  36
HETATM   36  O   UNL     1      41.955  -5.083  14.185  1.00  0.00    -0.304 OA
BRANCH  36  37
HETATM   37  C   UNL     1      41.052  -4.865  15.278  1.00  0.00     0.176 C 
HETATM   38  C   UNL     1      39.638  -5.264  14.896  1.00  0.00     0.034 C 
ENDBRANCH  36  37
ENDBRANCH  32  36
ENDBRANCH   1  26
TORSDOF 7
ENDMDL
MODEL 7
REMARK VINA RESULT:      -8.0      2.337      3.935
REMARK  7 active torsions:
REMARK  status: ('A' for Active; 'I' for Inactive)
REMARK    1  A    between atoms: C_2  and  O_3 
REMARK    2  A    between atoms: O_3  and  C_4 
REMARK       I    between atoms: C_4  and  N_5 
REMARK       I    between atoms: N_8  and  C_9 
REMARK    3  A    between atoms: C_9  and  C_10 
REMARK    4  A    between atoms: C_11  and  N_12 
REMARK       I    between atoms: N_12  and  C_13 
REMARK    5  A    between atoms: C_13  and  C_14 
REMARK    6  A    between atoms: N_16  and  C_17 
REMARK    7  A    between atoms: C_18  and  O_19 
ROOT
HETATM    1  C   UNL     1      38.703 -10.925   3.572  1.00  0.00     0.059 A 
HETATM    2  C   UNL     1      39.229 -12.160   3.986  1.00  0.00     0.050 A 
HETATM    3  C   UNL     1      39.868 -12.234   5.237  1.00  0.00     0.030 A 
HETATM    4  C   UNL     1      39.961 -11.117   6.071  1.00  0.00     0.002 A 
HETATM    5  C   UNL     1      39.449  -9.895   5.653  1.00  0.00     0.001 A 
HETATM    6  C   UNL     1      38.843  -9.794   4.402  1.00  0.00     0.019 A 
ENDROOT
BRANCH   2   7
HETATM    7  N   UNL     1      39.265 -13.347   3.225  1.00  0.00    -0.326 N 
HETATM    8  C   UNL     1      40.082 -13.642   2.153  1.00  0.00     0.228 C 
HETATM    9  O   UNL     1      40.636 -12.803   1.448  1.00  0.00    -0.273 OA
HETATM   10  H   UNL     1      38.532 -14.015   3.433  1.00  0.00     0.169 HD
BRANCH   8  11
HETATM   11  C   UNL     1      40.251 -15.141   1.871  1.00  0.00     0.105 C 
HETATM   12  C   UNL     1      40.690 -15.941   3.085  1.00  0.00     0.147 C 
HETATM   13  N   UNL     1      42.135 -15.837   3.047  1.00  0.00    -0.315 N 
HETATM   14  C   UNL     1      42.587 -15.564   1.748  1.00  0.00     0.225 C 
HETATM   15  O   UNL     1      43.740 -15.502   1.351  1.00  0.00    -0.273 OA
HETATM   16  C   UNL     1      41.373 -15.383   0.867  1.00  0.00     0.119 C 
BRANCH  13  17
HETATM   17  C   UNL     1      42.936 -15.839   4.220  1.00  0.00     0.071 A 
HETATM   18  C   UNL     1      43.617 -16.985   4.665  1.00  0.00     0.095 A 
HETATM   19  C   UNL     1      44.264 -16.999   5.906  1.00  0.00     0.039 A 
HETATM   20  C   UNL     1      44.266 -15.859   6.707  1.00  0.00     0.009 A 
HETATM   21  C   UNL     1      43.643 -14.690   6.266  1.00  0.00    -0.060 A 
HETATM   22  C   UNL     1      43.581 -13.477   7.148  1.00  0.00     0.048 C 
HETATM   23  C   UNL     1      42.989 -14.689   5.023  1.00  0.00     0.039 A 
BRANCH  18  24
HETATM   24  O   UNL     1      43.652 -18.115   3.884  1.00  0.00    -0.354 OA
HETATM   25  C   UNL     1      44.101 -19.240   4.646  1.00  0.00     0.210 C 
ENDBRANCH  18  24
ENDBRANCH  13  17
ENDBRANCH   8  11
ENDBRANCH   2   7
BRANCH   1  26
HETATM   26  C   UNL     1      38.218 -10.666   2.195  1.00  0.00     0.256 C 
HETATM   27  N   UNL     1      38.937  -9.798   1.384  1.00  0.00    -0.345 N 
HETATM   28  C   UNL     1      40.015  -8.898   1.808  1.00  0.00     0.146 C 
HETATM   29  C   UNL     1      38.547  -9.619  -0.012  1.00  0.00     0.146 C 
HETATM   30  C   UNL     1      41.255  -9.114   0.932  1.00  0.00     0.148 C 
HETATM   31  N   UNL     1      40.950  -9.076  -0.502  1.00  0.00    -0.325 N 
HETATM   32  C   UNL     1      42.008  -8.851  -1.370  1.00  0.00     0.362 C 
HETATM   33  C   UNL     1      39.751  -9.809  -0.943  1.00  0.00     0.148 C 
HETATM   34  O   UNL     1      43.133  -8.533  -1.001  1.00  0.00    -0.238 OA
HETATM   35  O   UNL     1      37.244 -11.308   1.806  1.00  0.00    -0.267 OA
BRANCH  32  36
HETATM   36  O   UNL     1      41.658  -9.021  -2.673  1.00  0.00    -0.304 OA
BRANCH  36  37
HETATM   37  C   UNL     1      41.376  -7.824  -3.410  1.00  0.00     0.176 C 
HETATM   38  C   UNL     1      42.543  -7.457  -4.309  1.00  0.00     0.034 C 
ENDBRANCH  36  37
ENDBRANCH  32  36
ENDBRANCH   1  26
TORSDOF 7
ENDMDL
MODEL 8
REMARK VINA RESULT:      -7.9     16.786     18.945
REMARK  7 active torsions:
REMARK  status: ('A' for Active; 'I' for Inactive)
REMARK    1  A    between atoms: C_2  and  O_3 
REMARK    2  A    between atoms: O_3  and  C_4 
REMARK       I    between atoms: C_4  and  N_5 
REMARK       I    between atoms: N_8  and  C_9 
REMARK    3  A    between atoms: C_9  and  C_10 
REMARK    4  A    between atoms: C_11  and  N_12 
REMARK       I    between atoms: N_12  and  C_13 
REMARK    5  A    between atoms: C_13  and  C_14 
REMARK    6  A    between atoms: N_16  and  C_17 
REMARK    7  A    between atoms: C_18  and  O_19 
ROOT
HETATM    1  C   UNL     1      48.495 -29.818   2.706  1.00  0.00     0.059 A 
HETATM    2  C   UNL     1      49.336 -30.643   1.942  1.00  0.00     0.050 A 
HETATM    3  C   UNL     1      50.613 -30.951   2.445  1.00  0.00     0.030 A 
HETATM    4  C   UNL     1      51.038 -30.476   3.688  1.00  0.00     0.002 A 
HETATM    5  C   UNL     1      50.206 -29.651   4.435  1.00  0.00     0.001 A 
HETATM    6  C   UNL     1      48.951 -29.306   3.938  1.00  0.00     0.019 A 
ENDROOT
BRANCH   2   7
HETATM    7  N   UNL     1      49.067 -31.138   0.649  1.00  0.00    -0.326 N 
HETATM    8  C   UNL     1      49.670 -30.780  -0.538  1.00  0.00     0.228 C 
HETATM    9  O   UNL     1      50.260 -29.719  -0.728  1.00  0.00    -0.273 OA
HETATM   10  H   UNL     1      48.264 -31.754   0.581  1.00  0.00     0.169 HD
BRANCH   8  11
HETATM   11  C   UNL     1      49.541 -31.819  -1.660  1.00  0.00     0.105 C 
HETATM   12  C   UNL     1      48.837 -31.291  -2.898  1.00  0.00     0.147 C 
HETATM   13  N   UNL     1      47.436 -31.524  -2.610  1.00  0.00    -0.315 N 
HETATM   14  C   UNL     1      47.279 -32.553  -1.670  1.00  0.00     0.225 C 
HETATM   15  O   UNL     1      46.241 -33.057  -1.273  1.00  0.00    -0.273 OA
HETATM   16  C   UNL     1      48.658 -32.984  -1.225  1.00  0.00     0.119 C 
BRANCH  13  17
HETATM   17  C   UNL     1      46.401 -30.683  -3.099  1.00  0.00     0.071 A 
HETATM   18  C   UNL     1      45.945 -29.559  -2.389  1.00  0.00     0.095 A 
HETATM   19  C   UNL     1      44.820 -28.848  -2.818  1.00  0.00     0.039 A 
HETATM   20  C   UNL     1      44.150 -29.230  -3.979  1.00  0.00     0.009 A 
HETATM   21  C   UNL     1      44.613 -30.310  -4.732  1.00  0.00    -0.060 A 
HETATM   22  C   UNL     1      43.862 -30.773  -5.947  1.00  0.00     0.048 C 
HETATM   23  C   UNL     1      45.738 -31.023  -4.289  1.00  0.00     0.039 A 
BRANCH  18  24
HETATM   24  O   UNL     1      46.602 -29.145  -1.255  1.00  0.00    -0.354 OA
HETATM   25  C   UNL     1      47.326 -27.938  -1.505  1.00  0.00     0.210 C 
ENDBRANCH  18  24
ENDBRANCH  13  17
ENDBRANCH   8  11
ENDBRANCH   2   7
BRANCH   1  26
HETATM   26  C   UNL     1      47.232 -29.238   2.188  1.00  0.00     0.256 C 
HETATM   27  N   UNL     1      46.094 -30.033   2.154  1.00  0.00    -0.345 N 
HETATM   28  C   UNL     1      46.038 -31.485   2.349  1.00  0.00     0.146 C 
HETATM   29  C   UNL     1      44.814 -29.450   1.761  1.00  0.00     0.146 C 
HETATM   30  C   UNL     1      45.004 -31.831   3.427  1.00  0.00     0.148 C 
HETATM   31  N   UNL     1      43.705 -31.191   3.193  1.00  0.00    -0.325 N 
HETATM   32  C   UNL     1      42.605 -31.733   3.841  1.00  0.00     0.362 C 
HETATM   33  C   UNL     1      43.728 -29.773   2.796  1.00  0.00     0.148 C 
HETATM   34  O   UNL     1      42.635 -32.789   4.461  1.00  0.00    -0.238 OA
HETATM   35  O   UNL     1      47.233 -28.042   1.897  1.00  0.00    -0.267 OA
BRANCH  32  36
HETATM   36  O   UNL     1      41.492 -30.962   3.710  1.00  0.00    -0.304 OA
BRANCH  36  37
HETATM   37  C   UNL     1      40.349 -31.601   3.124  1.00  0.00     0.176 C 
HETATM   38  C   UNL     1      40.511 -31.720   1.619  1.00  0.00     0.034 C 
ENDBRANCH  36  37
ENDBRANCH  32  36
ENDBRANCH   1  26
TORSDOF 7
ENDMDL
MODEL 9
REMARK VINA RESULT:      -7.9      4.240      7.878
REMARK  7 active torsions:
REMARK  status: ('A' for Active; 'I' for Inactive)
REMARK    1  A    between atoms: C_2  and  O_3 
REMARK    2  A    between atoms: O_3  and  C_4 
REMARK       I    between atoms: C_4  and  N_5 
REMARK       I    between atoms: N_8  and  C_9 
REMARK    3  A    between atoms: C_9  and  C_10 
REMARK    4  A    between atoms: C_11  and  N_12 
REMARK       I    between atoms: N_12  and  C_13 
REMARK    5  A    between atoms: C_13  and  C_14 
REMARK    6  A    between atoms: N_16  and  C_17 
REMARK    7  A    between atoms: C_18  and  O_19 
ROOT
HETATM    1  C   UNL     1      43.823  -9.901   8.328  1.00  0.00     0.059 A 
HETATM    2  C   UNL     1      44.083 -11.022   7.523  1.00  0.00     0.050 A 
HETATM    3  C   UNL     1      45.410 -11.270   7.125  1.00  0.00     0.030 A 
HETATM    4  C   UNL     1      46.458 -10.442   7.536  1.00  0.00     0.002 A 
HETATM    5  C   UNL     1      46.194  -9.329   8.324  1.00  0.00     0.001 A 
HETATM    6  C   UNL     1      44.881  -9.047   8.699  1.00  0.00     0.019 A 
ENDROOT
BRANCH   2   7
HETATM    7  N   UNL     1      43.122 -11.900   6.982  1.00  0.00    -0.326 N 
HETATM    8  C   UNL     1      43.127 -12.500   5.740  1.00  0.00     0.228 C 
HETATM    9  O   UNL     1      43.750 -12.084   4.767  1.00  0.00    -0.273 OA
HETATM   10  H   UNL     1      42.283 -12.018   7.539  1.00  0.00     0.169 HD
BRANCH   8  11
HETATM   11  C   UNL     1      42.257 -13.760   5.635  1.00  0.00     0.105 C 
HETATM   12  C   UNL     1      42.182 -14.331   4.230  1.00  0.00     0.147 C 
HETATM   13  N   UNL     1      41.081 -13.602   3.633  1.00  0.00    -0.315 N 
HETATM   14  C   UNL     1      40.210 -13.109   4.616  1.00  0.00     0.225 C 
HETATM   15  O   UNL     1      39.147 -12.531   4.457  1.00  0.00    -0.273 OA
HETATM   16  C   UNL     1      40.801 -13.446   5.965  1.00  0.00     0.119 C 
BRANCH  13  17
HETATM   17  C   UNL     1      41.025 -13.295   2.247  1.00  0.00     0.071 A 
HETATM   18  C   UNL     1      41.447 -12.058   1.731  1.00  0.00     0.095 A 
HETATM   19  C   UNL     1      41.229 -11.729   0.389  1.00  0.00     0.039 A 
HETATM   20  C   UNL     1      40.614 -12.642  -0.465  1.00  0.00     0.009 A 
HETATM   21  C   UNL     1      40.232 -13.898   0.008  1.00  0.00    -0.060 A 
HETATM   22  C   UNL     1      39.508 -14.864  -0.884  1.00  0.00     0.048 C 
HETATM   23  C   UNL     1      40.448 -14.217   1.359  1.00  0.00     0.039 A 
BRANCH  18  24
HETATM   24  O   UNL     1      42.079 -11.149   2.546  1.00  0.00    -0.354 OA
HETATM   25  C   UNL     1      41.237 -10.017   2.785  1.00  0.00     0.210 C 
ENDBRANCH  18  24
ENDBRANCH  13  17
ENDBRANCH   8  11
ENDBRANCH   2   7
BRANCH   1  26
HETATM   26  C   UNL     1      42.456  -9.406   8.619  1.00  0.00     0.256 C 
HETATM   27  N   UNL     1      42.010  -9.401   9.934  1.00  0.00    -0.345 N 
HETATM   28  C   UNL     1      42.651 -10.062  11.075  1.00  0.00     0.146 C 
HETATM   29  C   UNL     1      40.715  -8.809  10.259  1.00  0.00     0.146 C 
HETATM   30  C   UNL     1      42.856  -9.059  12.216  1.00  0.00     0.148 C 
HETATM   31  N   UNL     1      41.636  -8.315  12.543  1.00  0.00    -0.325 N 
HETATM   32  C   UNL     1      41.581  -7.700  13.785  1.00  0.00     0.362 C 
HETATM   33  C   UNL     1      40.850  -7.802  11.408  1.00  0.00     0.148 C 
HETATM   34  O   UNL     1      42.416  -7.873  14.665  1.00  0.00    -0.238 OA
HETATM   35  O   UNL     1      41.811  -8.935   7.682  1.00  0.00    -0.267 OA
BRANCH  32  36
HETATM   36  O   UNL     1      40.499  -6.886  13.916  1.00  0.00    -0.304 OA
BRANCH  36  37
HETATM   37  C   UNL     1      40.488  -6.035  15.071  1.00  0.00     0.176 C 
HETATM   38  C   UNL     1      39.119  -6.038  15.728  1.00  0.00     0.034 C 
ENDBRANCH  36  37
ENDBRANCH  32  36
ENDBRANCH   1  26
TORSDOF 7
ENDMDL
MODEL 10
REMARK VINA RESULT:      -7.6      4.201      8.628
REMARK  7 active torsions:
REMARK  status: ('A' for Active; 'I' for Inactive)
REMARK    1  A    between atoms: C_2  and  O_3 
REMARK    2  A    between atoms: O_3  and  C_4 
REMARK       I    between atoms: C_4  and  N_5 
REMARK       I    between atoms: N_8  and  C_9 
REMARK    3  A    between atoms: C_9  and  C_10 
REMARK    4  A    between atoms: C_11  and  N_12 
REMARK       I    between atoms: N_12  and  C_13 
REMARK    5  A    between atoms: C_13  and  C_14 
REMARK    6  A    between atoms: N_16  and  C_17 
REMARK    7  A    between atoms: C_18  and  O_19 
ROOT
HETATM    1  C   UNL     1      42.730 -11.266   6.130  1.00  0.00     0.059 A 
HETATM    2  C   UNL     1      42.977 -10.513   7.290  1.00  0.00     0.050 A 
HETATM    3  C   UNL     1      44.298 -10.427   7.767  1.00  0.00     0.030 A 
HETATM    4  C   UNL     1      45.354 -11.050   7.096  1.00  0.00     0.002 A 
HETATM    5  C   UNL     1      45.102 -11.802   5.956  1.00  0.00     0.001 A 
HETATM    6  C   UNL     1      43.796 -11.928   5.488  1.00  0.00     0.019 A 
ENDROOT
BRANCH   2   7
HETATM    7  N   UNL     1      42.007  -9.889   8.101  1.00  0.00    -0.326 N 
HETATM    8  C   UNL     1      41.811  -8.539   8.302  1.00  0.00     0.228 C 
HETATM    9  O   UNL     1      42.667  -7.676   8.121  1.00  0.00    -0.273 OA
HETATM   10  H   UNL     1      41.460 -10.517   8.680  1.00  0.00     0.169 HD
BRANCH   8  11
HETATM   11  C   UNL     1      40.410  -8.163   8.801  1.00  0.00     0.105 C 
HETATM   12  C   UNL     1      40.421  -7.178   9.958  1.00  0.00     0.147 C 
HETATM   13  N   UNL     1      40.536  -8.033  11.122  1.00  0.00    -0.315 N 
HETATM   14  C   UNL     1      40.067  -9.326  10.846  1.00  0.00     0.225 C 
HETATM   15  O   UNL     1      39.940 -10.261  11.621  1.00  0.00    -0.273 OA
HETATM   16  C   UNL     1      39.695  -9.378   9.383  1.00  0.00     0.119 C 
BRANCH  13  17
HETATM   17  C   UNL     1      41.204  -7.630  12.308  1.00  0.00     0.071 A 
HETATM   18  C   UNL     1      42.599  -7.710  12.452  1.00  0.00     0.095 A 
HETATM   19  C   UNL     1      43.210  -7.458  13.685  1.00  0.00     0.039 A 
HETATM   20  C   UNL     1      42.438  -7.092  14.787  1.00  0.00     0.009 A 
HETATM   21  C   UNL     1      41.055  -6.954  14.659  1.00  0.00    -0.060 A 
HETATM   22  C   UNL     1      40.206  -6.626  15.853  1.00  0.00     0.048 C 
HETATM   23  C   UNL     1      40.451  -7.217  13.419  1.00  0.00     0.039 A 
BRANCH  18  24
HETATM   24  O   UNL     1      43.387  -8.044  11.376  1.00  0.00    -0.354 OA
HETATM   25  C   UNL     1      43.747  -9.427  11.426  1.00  0.00     0.210 C 
ENDBRANCH  18  24
ENDBRANCH  13  17
ENDBRANCH   8  11
ENDBRANCH   2   7
BRANCH   1  26
HETATM   26  C   UNL     1      41.368 -11.620   5.664  1.00  0.00     0.256 C 
HETATM   27  N   UNL     1      40.943 -11.160   4.424  1.00  0.00    -0.345 N 
HETATM   28  C   UNL     1      41.601 -10.143   3.599  1.00  0.00     0.146 C 
HETATM   29  C   UNL     1      39.654 -11.594   3.893  1.00  0.00     0.146 C 
HETATM   30  C   UNL     1      41.825 -10.681   2.181  1.00  0.00     0.148 C 
HETATM   31  N   UNL     1      40.611 -11.257   1.595  1.00  0.00    -0.325 N 
HETATM   32  C   UNL     1      40.576 -11.396   0.215  1.00  0.00     0.362 C 
HETATM   33  C   UNL     1      39.807 -12.133   2.464  1.00  0.00     0.148 C 
HETATM   34  O   UNL     1      41.425 -10.929  -0.536  1.00  0.00    -0.238 OA
HETATM   35  O   UNL     1      40.709 -12.388   6.365  1.00  0.00    -0.267 OA
BRANCH  32  36
HETATM   36  O   UNL     1      39.497 -12.107  -0.210  1.00  0.00    -0.304 OA
BRANCH  36  37
HETATM   37  C   UNL     1      39.762 -13.141  -1.168  1.00  0.00     0.176 C 
HETATM   38  C   UNL     1      39.868 -14.493  -0.485  1.00  0.00     0.034 C 
ENDBRANCH  36  37
ENDBRANCH  32  36
ENDBRANCH   1  26
TORSDOF 7
ENDMDL
