MODEL 1
REMARK VINA RESULT:      -9.3      0.000      0.000
REMARK  9 active torsions:
REMARK  status: ('A' for Active; 'I' for Inactive)
REMARK    1  A    between atoms: C_2  and  C_3 
REMARK    2  A    between atoms: C_8  and  O_9 
REMARK    3  A    between atoms: C_10  and  C_11 
REMARK    4  A    between atoms: C_11  and  N_12 
REMARK       I    between atoms: N_12  and  C_13 
REMARK    5  A    between atoms: N_12  and  C_23 
REMARK       I    between atoms: C_13  and  N_14 
REMARK    6  A    between atoms: N_14  and  C_15 
REMARK    7  A    between atoms: C_23  and  C_24 
REMARK    8  A    between atoms: C_24  and  C_25 
REMARK    9  A    between atoms: C_25  and  N_26 
ROOT
HETATM    1  N   UNL     1      42.348 -13.029   4.027  1.00  0.00    -0.330 N 
HETATM    2  C   UNL     1      42.205 -14.419   4.165  1.00  0.00     0.323 C 
HETATM    3  N   UNL     1      43.398 -15.104   4.055  1.00  0.00    -0.309 N 
HETATM    4  O   UNL     1      41.102 -14.936   4.294  1.00  0.00    -0.247 OA
HETATM    5  H   UNL     1      44.179 -14.565   3.737  1.00  0.00     0.170 HD
ENDROOT
BRANCH   1   6
HETATM    6  C   UNL     1      41.148 -12.269   3.637  1.00  0.00     0.170 C 
BRANCH   6   7
HETATM    7  C   UNL     1      40.977 -12.204   2.143  1.00  0.00     0.013 A 
HETATM    8  C   UNL     1      41.511 -11.200   1.361  1.00  0.00     0.170 A 
HETATM    9  N   UNL     1      41.460 -11.127   0.020  1.00  0.00    -0.224 NA
HETATM   10  C   UNL     1      40.823 -12.121  -0.629  1.00  0.00     0.070 A 
HETATM   11  C   UNL     1      40.203 -13.185   0.053  1.00  0.00    -0.006 A 
HETATM   12  C   UNL     1      40.765 -12.119  -2.017  1.00  0.00     0.033 A 
HETATM   13  C   UNL     1      39.535 -14.200  -0.656  1.00  0.00     0.021 A 
HETATM   14  C   UNL     1      40.286 -13.203   1.452  1.00  0.00     0.027 A 
HETATM   15  C   UNL     1      39.487 -14.183  -2.054  1.00  0.00    -0.058 A 
HETATM   16  C   UNL     1      40.112 -13.132  -2.729  1.00  0.00     0.009 A 
BRANCH   8  17
HETATM   17  O   UNL     1      42.157 -10.131   1.894  1.00  0.00    -0.344 OA
HETATM   18  H   UNL     1      43.044 -10.542   1.953  1.00  0.00     0.219 HD
ENDBRANCH   8  17
BRANCH  15  19
HETATM   19  C   UNL     1      38.767 -15.270  -2.813  1.00  0.00     0.034 C 
HETATM   20  C   UNL     1      38.004 -14.723  -4.011  1.00  0.00     0.010 C 
ENDBRANCH  15  19
ENDBRANCH   6   7
ENDBRANCH   1   6
BRANCH   1  21
HETATM   21  C   UNL     1      43.504 -12.288   4.529  1.00  0.00     0.129 C 
BRANCH  21  22
HETATM   22  C   UNL     1      43.171 -11.393   5.721  1.00  0.00     0.048 C 
BRANCH  22  23
HETATM   23  C   UNL     1      43.736 -11.911   7.042  1.00  0.00     0.236 C 
BRANCH  23  24
HETATM   24  N   UNL     1      44.395 -10.836   7.881  1.00  0.00    -0.067 N 
HETATM   25  H   UNL     1      44.545 -11.185   8.836  1.00  0.00     0.280 HD
HETATM   26  C   UNL     1      45.780 -10.492   7.309  1.00  0.00     0.261 C 
HETATM   27  C   UNL     1      46.427  -9.369   8.122  1.00  0.00     0.195 C 
HETATM   28  O   UNL     1      45.590  -8.210   8.139  1.00  0.00    -0.388 OA
HETATM   29  C   UNL     1      44.330  -8.479   8.757  1.00  0.00     0.195 C 
HETATM   30  C   UNL     1      43.557  -9.555   7.986  1.00  0.00     0.261 C 
ENDBRANCH  23  24
ENDBRANCH  22  23
ENDBRANCH  21  22
ENDBRANCH   1  21
BRANCH   3  31
HETATM   31  C   UNL     1      43.574 -16.503   3.975  1.00  0.00     0.036 A 
HETATM   32  C   UNL     1      43.268 -17.109   2.748  1.00  0.00     0.031 A 
HETATM   33  C   UNL     1      43.356 -18.496   2.594  1.00  0.00     0.026 A 
HETATM   34  C   UNL     1      43.758 -19.284   3.667  1.00  0.00     0.034 A 
HETATM   35 CL   UNL     1      43.847 -20.991   3.487  1.00  0.00    -0.084 Cl
HETATM   36  C   UNL     1      44.084 -18.694   4.885  1.00  0.00     0.026 A 
HETATM   37  C   UNL     1      43.997 -17.305   5.036  1.00  0.00     0.031 A 
ENDBRANCH   3  31
TORSDOF 9
ENDMDL
MODEL 2
REMARK VINA RESULT:      -9.0      2.008      8.292
REMARK  9 active torsions:
REMARK  status: ('A' for Active; 'I' for Inactive)
REMARK    1  A    between atoms: C_2  and  C_3 
REMARK    2  A    between atoms: C_8  and  O_9 
REMARK    3  A    between atoms: C_10  and  C_11 
REMARK    4  A    between atoms: C_11  and  N_12 
REMARK       I    between atoms: N_12  and  C_13 
REMARK    5  A    between atoms: N_12  and  C_23 
REMARK       I    between atoms: C_13  and  N_14 
REMARK    6  A    between atoms: N_14  and  C_15 
REMARK    7  A    between atoms: C_23  and  C_24 
REMARK    8  A    between atoms: C_24  and  C_25 
REMARK    9  A    between atoms: C_25  and  N_26 
ROOT
HETATM    1  N   UNL     1      41.890 -12.264   4.460  1.00  0.00    -0.330 N 
HETATM    2  C   UNL     1      42.523 -13.324   3.792  1.00  0.00     0.323 C 
HETATM    3  N   UNL     1      42.066 -14.567   4.180  1.00  0.00    -0.309 N 
HETATM    4  O   UNL     1      43.439 -13.123   3.004  1.00  0.00    -0.247 OA
HETATM    5  H   UNL     1      41.470 -14.576   4.985  1.00  0.00     0.170 HD
ENDROOT
BRANCH   1   6
HETATM    6  C   UNL     1      42.605 -10.978   4.504  1.00  0.00     0.170 C 
BRANCH   6   7
HETATM    7  C   UNL     1      43.437 -10.832   5.749  1.00  0.00     0.013 A 
HETATM    8  C   UNL     1      44.802 -11.038   5.778  1.00  0.00     0.170 A 
HETATM    9  N   UNL     1      45.609 -10.850   6.836  1.00  0.00    -0.224 NA
HETATM   10  C   UNL     1      45.040 -10.428   7.982  1.00  0.00     0.070 A 
HETATM   11  C   UNL     1      43.652 -10.216   8.095  1.00  0.00    -0.006 A 
HETATM   12  C   UNL     1      45.827 -10.184   9.100  1.00  0.00     0.033 A 
HETATM   13  C   UNL     1      43.090  -9.786   9.311  1.00  0.00     0.021 A 
HETATM   14  C   UNL     1      42.862 -10.434   6.959  1.00  0.00     0.027 A 
HETATM   15  C   UNL     1      43.897  -9.545  10.427  1.00  0.00    -0.058 A 
HETATM   16  C   UNL     1      45.275  -9.745  10.309  1.00  0.00     0.009 A 
BRANCH   8  17
HETATM   17  O   UNL     1      45.490 -11.485   4.697  1.00  0.00    -0.344 OA
HETATM   18  H   UNL     1      45.223 -10.773   4.080  1.00  0.00     0.219 HD
ENDBRANCH   8  17
BRANCH  15  19
HETATM   19  C   UNL     1      43.292  -9.089  11.731  1.00  0.00     0.034 C 
HETATM   20  C   UNL     1      42.666 -10.240  12.506  1.00  0.00     0.010 C 
ENDBRANCH  15  19
ENDBRANCH   6   7
ENDBRANCH   1   6
BRANCH   1  21
HETATM   21  C   UNL     1      40.476 -12.284   4.834  1.00  0.00     0.129 C 
BRANCH  21  22
HETATM   22  C   UNL     1      39.549 -11.860   3.696  1.00  0.00     0.048 C 
BRANCH  22  23
HETATM   23  C   UNL     1      39.020 -13.035   2.877  1.00  0.00     0.236 C 
BRANCH  23  24
HETATM   24  N   UNL     1      39.201 -12.862   1.383  1.00  0.00    -0.067 N 
HETATM   25  H   UNL     1      38.282 -12.836   0.924  1.00  0.00     0.280 HD
HETATM   26  C   UNL     1      39.886 -11.518   1.086  1.00  0.00     0.261 C 
HETATM   27  C   UNL     1      40.119 -11.363  -0.419  1.00  0.00     0.195 C 
HETATM   28  O   UNL     1      40.901 -12.447  -0.925  1.00  0.00    -0.388 OA
HETATM   29  C   UNL     1      40.238 -13.701  -0.748  1.00  0.00     0.195 C 
HETATM   30  C   UNL     1      40.007 -13.997   0.738  1.00  0.00     0.261 C 
ENDBRANCH  23  24
ENDBRANCH  22  23
ENDBRANCH  21  22
ENDBRANCH   1  21
BRANCH   3  31
HETATM   31  C   UNL     1      42.608 -15.823   3.832  1.00  0.00     0.036 A 
HETATM   32  C   UNL     1      42.184 -16.379   2.616  1.00  0.00     0.031 A 
HETATM   33  C   UNL     1      42.622 -17.646   2.218  1.00  0.00     0.026 A 
HETATM   34  C   UNL     1      43.494 -18.361   3.033  1.00  0.00     0.034 A 
HETATM   35 CL   UNL     1      44.016 -19.927   2.556  1.00  0.00    -0.084 Cl
HETATM   36  C   UNL     1      43.937 -17.813   4.233  1.00  0.00     0.026 A 
HETATM   37  C   UNL     1      43.499 -16.543   4.628  1.00  0.00     0.031 A 
ENDBRANCH   3  31
TORSDOF 9
ENDMDL
MODEL 3
REMARK VINA RESULT:      -8.8      2.505      6.580
REMARK  9 active torsions:
REMARK  status: ('A' for Active; 'I' for Inactive)
REMARK    1  A    between atoms: C_2  and  C_3 
REMARK    2  A    between atoms: C_8  and  O_9 
REMARK    3  A    between atoms: C_10  and  C_11 
REMARK    4  A    between atoms: C_11  and  N_12 
REMARK       I    between atoms: N_12  and  C_13 
REMARK    5  A    between atoms: N_12  and  C_23 
REMARK       I    between atoms: C_13  and  N_14 
REMARK    6  A    between atoms: N_14  and  C_15 
REMARK    7  A    between atoms: C_23  and  C_24 
REMARK    8  A    between atoms: C_24  and  C_25 
REMARK    9  A    between atoms: C_25  and  N_26 
ROOT
HETATM    1  N   UNL     1      42.385 -13.411   5.036  1.00  0.00    -0.330 N 
HETATM    2  C   UNL     1      42.310 -13.558   3.642  1.00  0.00     0.323 C 
HETATM    3  N   UNL     1      41.016 -13.584   3.163  1.00  0.00    -0.309 N 
HETATM    4  O   UNL     1      43.317 -13.719   2.964  1.00  0.00    -0.247 OA
HETATM    5  H   UNL     1      40.299 -13.658   3.859  1.00  0.00     0.170 HD
ENDROOT
BRANCH   1   6
HETATM    6  C   UNL     1      43.627 -13.855   5.690  1.00  0.00     0.170 C 
BRANCH   6   7
HETATM    7  C   UNL     1      43.637 -15.339   5.942  1.00  0.00     0.013 A 
HETATM    8  C   UNL     1      43.384 -15.901   7.178  1.00  0.00     0.170 A 
HETATM    9  N   UNL     1      43.302 -17.214   7.450  1.00  0.00    -0.224 NA
HETATM   10  C   UNL     1      43.491 -18.070   6.427  1.00  0.00     0.070 A 
HETATM   11  C   UNL     1      43.793 -17.627   5.124  1.00  0.00    -0.006 A 
HETATM   12  C   UNL     1      43.386 -19.439   6.638  1.00  0.00     0.033 A 
HETATM   13  C   UNL     1      43.996 -18.550   4.082  1.00  0.00     0.021 A 
HETATM   14  C   UNL     1      43.870 -16.245   4.905  1.00  0.00     0.027 A 
HETATM   15  C   UNL     1      43.886 -19.925   4.313  1.00  0.00    -0.058 A 
HETATM   16  C   UNL     1      43.576 -20.362   5.603  1.00  0.00     0.009 A 
BRANCH   8  17
HETATM   17  O   UNL     1      43.199 -15.147   8.292  1.00  0.00    -0.344 OA
HETATM   18  H   UNL     1      43.904 -14.492   8.113  1.00  0.00     0.219 HD
ENDBRANCH   8  17
BRANCH  15  19
HETATM   19  C   UNL     1      44.109 -20.913   3.195  1.00  0.00     0.034 C 
HETATM   20  C   UNL     1      43.567 -20.408   1.867  1.00  0.00     0.010 C 
ENDBRANCH  15  19
ENDBRANCH   6   7
ENDBRANCH   1   6
BRANCH   1  21
HETATM   21  C   UNL     1      41.452 -12.589   5.806  1.00  0.00     0.129 C 
BRANCH  21  22
HETATM   22  C   UNL     1      41.744 -11.092   5.699  1.00  0.00     0.048 C 
BRANCH  22  23
HETATM   23  C   UNL     1      41.923 -10.414   7.056  1.00  0.00     0.236 C 
BRANCH  23  24
HETATM   24  N   UNL     1      43.353 -10.005   7.343  1.00  0.00    -0.067 N 
HETATM   25  H   UNL     1      43.817  -9.730   6.469  1.00  0.00     0.280 HD
HETATM   26  C   UNL     1      43.376  -8.776   8.267  1.00  0.00     0.261 C 
HETATM   27  C   UNL     1      44.818  -8.391   8.603  1.00  0.00     0.195 C 
HETATM   28  O   UNL     1      45.506  -9.487   9.211  1.00  0.00    -0.388 OA
HETATM   29  C   UNL     1      45.584 -10.612   8.333  1.00  0.00     0.195 C 
HETATM   30  C   UNL     1      44.186 -11.129   7.974  1.00  0.00     0.261 C 
ENDBRANCH  23  24
ENDBRANCH  22  23
ENDBRANCH  21  22
ENDBRANCH   1  21
BRANCH   3  31
HETATM   31  C   UNL     1      40.597 -13.889   1.850  1.00  0.00     0.036 A 
HETATM   32  C   UNL     1      40.539 -12.821   0.942  1.00  0.00     0.031 A 
HETATM   33  C   UNL     1      40.079 -13.017  -0.364  1.00  0.00     0.026 A 
HETATM   34  C   UNL     1      39.681 -14.287  -0.771  1.00  0.00     0.034 A 
HETATM   35 CL   UNL     1      39.095 -14.526  -2.369  1.00  0.00    -0.084 Cl
HETATM   36  C   UNL     1      39.752 -15.359   0.114  1.00  0.00     0.026 A 
HETATM   37  C   UNL     1      40.214 -15.160   1.420  1.00  0.00     0.031 A 
ENDBRANCH   3  31
TORSDOF 9
ENDMDL
MODEL 4
REMARK VINA RESULT:      -8.7      3.087      8.070
REMARK  9 active torsions:
REMARK  status: ('A' for Active; 'I' for Inactive)
REMARK    1  A    between atoms: C_2  and  C_3 
REMARK    2  A    between atoms: C_8  and  O_9 
REMARK    3  A    between atoms: C_10  and  C_11 
REMARK    4  A    between atoms: C_11  and  N_12 
REMARK       I    between atoms: N_12  and  C_13 
REMARK    5  A    between atoms: N_12  and  C_23 
REMARK       I    between atoms: C_13  and  N_14 
REMARK    6  A    between atoms: N_14  and  C_15 
REMARK    7  A    between atoms: C_23  and  C_24 
REMARK    8  A    between atoms: C_24  and  C_25 
REMARK    9  A    between atoms: C_25  and  N_26 
ROOT
HETATM    1  N   UNL     1      41.757 -12.007   3.361  1.00  0.00    -0.330 N 
HETATM    2  C   UNL     1      41.968 -11.732   4.721  1.00  0.00     0.323 C 
HETATM    3  N   UNL     1      43.161 -11.084   4.970  1.00  0.00    -0.309 N 
HETATM    4  O   UNL     1      41.179 -12.113   5.577  1.00  0.00    -0.247 OA
HETATM    5  H   UNL     1      43.794 -11.033   4.197  1.00  0.00     0.170 HD
ENDROOT
BRANCH   1   6
HETATM    6  C   UNL     1      40.812 -13.088   3.035  1.00  0.00     0.170 C 
BRANCH   6   7
HETATM    7  C   UNL     1      41.509 -14.401   2.801  1.00  0.00     0.013 A 
HETATM    8  C   UNL     1      41.940 -14.820   1.559  1.00  0.00     0.170 A 
HETATM    9  N   UNL     1      42.634 -15.941   1.297  1.00  0.00    -0.224 NA
HETATM   10  C   UNL     1      42.934 -16.740   2.340  1.00  0.00     0.070 A 
HETATM   11  C   UNL     1      42.520 -16.445   3.654  1.00  0.00    -0.006 A 
HETATM   12  C   UNL     1      43.678 -17.896   2.138  1.00  0.00     0.033 A 
HETATM   13  C   UNL     1      42.842 -17.309   4.717  1.00  0.00     0.021 A 
HETATM   14  C   UNL     1      41.796 -15.264   3.862  1.00  0.00     0.027 A 
HETATM   15  C   UNL     1      43.591 -18.468   4.496  1.00  0.00    -0.058 A 
HETATM   16  C   UNL     1      44.010 -18.753   3.194  1.00  0.00     0.009 A 
BRANCH   8  17
HETATM   17  O   UNL     1      41.682 -14.118   0.427  1.00  0.00    -0.344 OA
HETATM   18  H   UNL     1      42.380 -13.440   0.542  1.00  0.00     0.219 HD
ENDBRANCH   8  17
BRANCH  15  19
HETATM   19  C   UNL     1      43.930 -19.395   5.636  1.00  0.00     0.034 C 
HETATM   20  C   UNL     1      43.950 -20.853   5.203  1.00  0.00     0.010 C 
ENDBRANCH  15  19
ENDBRANCH   6   7
ENDBRANCH   1   6
BRANCH   1  21
HETATM   21  C   UNL     1      42.178 -11.108   2.287  1.00  0.00     0.129 C 
BRANCH  21  22
HETATM   22  C   UNL     1      41.034 -10.258   1.735  1.00  0.00     0.048 C 
BRANCH  22  23
HETATM   23  C   UNL     1      41.094 -10.076   0.220  1.00  0.00     0.236 C 
BRANCH  23  24
HETATM   24  N   UNL     1      40.801 -11.345  -0.554  1.00  0.00    -0.067 N 
HETATM   25  H   UNL     1      41.246 -12.146  -0.089  1.00  0.00     0.280 HD
HETATM   26  C   UNL     1      39.288 -11.621  -0.564  1.00  0.00     0.261 C 
HETATM   27  C   UNL     1      38.982 -12.872  -1.390  1.00  0.00     0.195 C 
HETATM   28  O   UNL     1      39.475 -12.731  -2.725  1.00  0.00    -0.388 OA
HETATM   29  C   UNL     1      40.895 -12.572  -2.747  1.00  0.00     0.195 C 
HETATM   30  C   UNL     1      41.319 -11.304  -1.998  1.00  0.00     0.261 C 
ENDBRANCH  23  24
ENDBRANCH  22  23
ENDBRANCH  21  22
ENDBRANCH   1  21
BRANCH   3  31
HETATM   31  C   UNL     1      43.744 -10.823   6.229  1.00  0.00     0.036 A 
HETATM   32  C   UNL     1      43.042  -9.960   7.084  1.00  0.00     0.031 A 
HETATM   33  C   UNL     1      43.571  -9.598   8.326  1.00  0.00     0.026 A 
HETATM   34  C   UNL     1      44.805 -10.102   8.723  1.00  0.00     0.034 A 
HETATM   35 CL   UNL     1      45.468  -9.641  10.240  1.00  0.00    -0.084 Cl
HETATM   36  C   UNL     1      45.504 -10.974   7.893  1.00  0.00     0.026 A 
HETATM   37  C   UNL     1      44.971 -11.337   6.650  1.00  0.00     0.031 A 
ENDBRANCH   3  31
TORSDOF 9
ENDMDL
MODEL 5
REMARK VINA RESULT:      -8.7      3.509      7.364
REMARK  9 active torsions:
REMARK  status: ('A' for Active; 'I' for Inactive)
REMARK    1  A    between atoms: C_2  and  C_3 
REMARK    2  A    between atoms: C_8  and  O_9 
REMARK    3  A    between atoms: C_10  and  C_11 
REMARK    4  A    between atoms: C_11  and  N_12 
REMARK       I    between atoms: N_12  and  C_13 
REMARK    5  A    between atoms: N_12  and  C_23 
REMARK       I    between atoms: C_13  and  N_14 
REMARK    6  A    between atoms: N_14  and  C_15 
REMARK    7  A    between atoms: C_23  and  C_24 
REMARK    8  A    between atoms: C_24  and  C_25 
REMARK    9  A    between atoms: C_25  and  N_26 
ROOT
HETATM    1  N   UNL     1      41.455 -13.508   4.406  1.00  0.00    -0.330 N 
HETATM    2  C   UNL     1      41.408 -13.352   3.012  1.00  0.00     0.323 C 
HETATM    3  N   UNL     1      40.178 -13.664   2.468  1.00  0.00    -0.309 N 
HETATM    4  O   UNL     1      42.404 -13.038   2.372  1.00  0.00    -0.247 OA
HETATM    5  H   UNL     1      39.532 -14.109   3.089  1.00  0.00     0.170 HD
ENDROOT
BRANCH   1   6
HETATM    6  C   UNL     1      42.784 -13.686   5.015  1.00  0.00     0.170 C 
BRANCH   6   7
HETATM    7  C   UNL     1      43.057 -15.122   5.373  1.00  0.00     0.013 A 
HETATM    8  C   UNL     1      43.012 -15.604   6.666  1.00  0.00     0.170 A 
HETATM    9  N   UNL     1      43.169 -16.885   7.040  1.00  0.00    -0.224 NA
HETATM   10  C   UNL     1      43.401 -17.789   6.069  1.00  0.00     0.070 A 
HETATM   11  C   UNL     1      43.508 -17.422   4.713  1.00  0.00    -0.006 A 
HETATM   12  C   UNL     1      43.539 -19.134   6.390  1.00  0.00     0.033 A 
HETATM   13  C   UNL     1      43.763 -18.392   3.726  1.00  0.00     0.021 A 
HETATM   14  C   UNL     1      43.339 -16.070   4.386  1.00  0.00     0.027 A 
HETATM   15  C   UNL     1      43.899 -19.741   4.067  1.00  0.00    -0.058 A 
HETATM   16  C   UNL     1      43.781 -20.104   5.411  1.00  0.00     0.009 A 
BRANCH   8  17
HETATM   17  O   UNL     1      42.809 -14.792   7.735  1.00  0.00    -0.344 OA
HETATM   18  H   UNL     1      42.874 -15.483   8.426  1.00  0.00     0.219 HD
ENDBRANCH   8  17
BRANCH  15  19
HETATM   19  C   UNL     1      44.177 -20.778   3.008  1.00  0.00     0.034 C 
HETATM   20  C   UNL     1      43.482 -20.455   1.693  1.00  0.00     0.010 C 
ENDBRANCH  15  19
ENDBRANCH   6   7
ENDBRANCH   1   6
BRANCH   1  21
HETATM   21  C   UNL     1      40.325 -13.207   5.285  1.00  0.00     0.129 C 
BRANCH  21  22
HETATM   22  C   UNL     1      40.483 -11.883   6.032  1.00  0.00     0.048 C 
BRANCH  22  23
HETATM   23  C   UNL     1      39.501 -10.809   5.570  1.00  0.00     0.236 C 
BRANCH  23  24
HETATM   24  N   UNL     1      39.592 -10.503   4.089  1.00  0.00    -0.067 N 
HETATM   25  H   UNL     1      39.475 -11.369   3.548  1.00  0.00     0.280 HD
HETATM   26  C   UNL     1      38.450  -9.561   3.673  1.00  0.00     0.261 C 
HETATM   27  C   UNL     1      38.569  -9.207   2.189  1.00  0.00     0.195 C 
HETATM   28  O   UNL     1      39.838  -8.610   1.911  1.00  0.00    -0.388 OA
HETATM   29  C   UNL     1      40.915  -9.505   2.198  1.00  0.00     0.195 C 
HETATM   30  C   UNL     1      40.935  -9.883   3.683  1.00  0.00     0.261 C 
ENDBRANCH  23  24
ENDBRANCH  22  23
ENDBRANCH  21  22
ENDBRANCH   1  21
BRANCH   3  31
HETATM   31  C   UNL     1      39.855 -13.777   1.099  1.00  0.00     0.036 A 
HETATM   32  C   UNL     1      39.345 -12.630   0.473  1.00  0.00     0.031 A 
HETATM   33  C   UNL     1      38.942 -12.665  -0.865  1.00  0.00     0.026 A 
HETATM   34  C   UNL     1      39.053 -13.848  -1.587  1.00  0.00     0.034 A 
HETATM   35 CL   UNL     1      38.537 -13.899  -3.226  1.00  0.00    -0.084 Cl
HETATM   36  C   UNL     1      39.575 -14.989  -0.985  1.00  0.00     0.026 A 
HETATM   37  C   UNL     1      39.980 -14.951   0.355  1.00  0.00     0.031 A 
ENDBRANCH   3  31
TORSDOF 9
ENDMDL
MODEL 6
REMARK VINA RESULT:      -8.4      2.010      8.063
REMARK  9 active torsions:
REMARK  status: ('A' for Active; 'I' for Inactive)
REMARK    1  A    between atoms: C_2  and  C_3 
REMARK    2  A    between atoms: C_8  and  O_9 
REMARK    3  A    between atoms: C_10  and  C_11 
REMARK    4  A    between atoms: C_11  and  N_12 
REMARK       I    between atoms: N_12  and  C_13 
REMARK    5  A    between atoms: N_12  and  C_23 
REMARK       I    between atoms: C_13  and  N_14 
REMARK    6  A    between atoms: N_14  and  C_15 
REMARK    7  A    between atoms: C_23  and  C_24 
REMARK    8  A    between atoms: C_24  and  C_25 
REMARK    9  A    between atoms: C_25  and  N_26 
ROOT
HETATM    1  N   UNL     1      41.680 -13.236   2.754  1.00  0.00    -0.330 N 
HETATM    2  C   UNL     1      42.500 -14.375   2.715  1.00  0.00     0.323 C 
HETATM    3  N   UNL     1      41.951 -15.466   3.357  1.00  0.00    -0.309 N 
HETATM    4  O   UNL     1      43.617 -14.338   2.214  1.00  0.00    -0.247 OA
HETATM    5  H   UNL     1      41.131 -15.280   3.901  1.00  0.00     0.170 HD
ENDROOT
BRANCH   1   6
HETATM    6  C   UNL     1      42.336 -11.932   2.557  1.00  0.00     0.170 C 
BRANCH   6   7
HETATM    7  C   UNL     1      42.376 -11.120   3.823  1.00  0.00     0.013 A 
HETATM    8  C   UNL     1      41.417 -10.183   4.154  1.00  0.00     0.170 A 
HETATM    9  N   UNL     1      41.354  -9.483   5.300  1.00  0.00    -0.224 NA
HETATM   10  C   UNL     1      42.319  -9.707   6.214  1.00  0.00     0.070 A 
HETATM   11  C   UNL     1      43.375 -10.610   5.985  1.00  0.00    -0.006 A 
HETATM   12  C   UNL     1      42.290  -9.038   7.432  1.00  0.00     0.033 A 
HETATM   13  C   UNL     1      44.371 -10.809   6.958  1.00  0.00     0.021 A 
HETATM   14  C   UNL     1      43.388 -11.306   4.769  1.00  0.00     0.027 A 
HETATM   15  C   UNL     1      44.326 -10.129   8.178  1.00  0.00    -0.058 A 
HETATM   16  C   UNL     1      43.272  -9.242   8.408  1.00  0.00     0.009 A 
BRANCH   8  17
HETATM   17  O   UNL     1      40.407  -9.850   3.310  1.00  0.00    -0.344 OA
HETATM   18  H   UNL     1      39.761 -10.513   3.628  1.00  0.00     0.219 HD
ENDBRANCH   8  17
BRANCH  15  19
HETATM   19  C   UNL     1      45.398 -10.340   9.218  1.00  0.00     0.034 C 
HETATM   20  C   UNL     1      45.051  -9.678  10.543  1.00  0.00     0.010 C 
ENDBRANCH  15  19
ENDBRANCH   6   7
ENDBRANCH   1   6
BRANCH   1  21
HETATM   21  C   UNL     1      40.221 -13.296   2.676  1.00  0.00     0.129 C 
BRANCH  21  22
HETATM   22  C   UNL     1      39.707 -13.590   1.268  1.00  0.00     0.048 C 
BRANCH  22  23
HETATM   23  C   UNL     1      39.340 -12.332   0.484  1.00  0.00     0.236 C 
BRANCH  23  24
HETATM   24  N   UNL     1      39.464 -12.496  -1.017  1.00  0.00    -0.067 N 
HETATM   25  H   UNL     1      38.813 -11.858  -1.491  1.00  0.00     0.280 HD
HETATM   26  C   UNL     1      40.880 -12.109  -1.476  1.00  0.00     0.261 C 
HETATM   27  C   UNL     1      41.027 -12.325  -2.984  1.00  0.00     0.195 C 
HETATM   28  O   UNL     1      40.740 -13.681  -3.332  1.00  0.00    -0.388 OA
HETATM   29  C   UNL     1      39.395 -14.036  -3.004  1.00  0.00     0.195 C 
HETATM   30  C   UNL     1      39.146 -13.919  -1.496  1.00  0.00     0.261 C 
ENDBRANCH  23  24
ENDBRANCH  22  23
ENDBRANCH  21  22
ENDBRANCH   1  21
BRANCH   3  31
HETATM   31  C   UNL     1      42.583 -16.695   3.644  1.00  0.00     0.036 A 
HETATM   32  C   UNL     1      42.905 -16.942   4.987  1.00  0.00     0.031 A 
HETATM   33  C   UNL     1      43.586 -18.106   5.357  1.00  0.00     0.026 A 
HETATM   34  C   UNL     1      43.942 -19.034   4.385  1.00  0.00     0.034 A 
HETATM   35 CL   UNL     1      44.798 -20.455   4.834  1.00  0.00    -0.084 Cl
HETATM   36  C   UNL     1      43.612 -18.811   3.051  1.00  0.00     0.026 A 
HETATM   37  C   UNL     1      42.929 -17.646   2.683  1.00  0.00     0.031 A 
ENDBRANCH   3  31
TORSDOF 9
ENDMDL
MODEL 7
REMARK VINA RESULT:      -8.3      3.493      8.547
REMARK  9 active torsions:
REMARK  status: ('A' for Active; 'I' for Inactive)
REMARK    1  A    between atoms: C_2  and  C_3 
REMARK    2  A    between atoms: C_8  and  O_9 
REMARK    3  A    between atoms: C_10  and  C_11 
REMARK    4  A    between atoms: C_11  and  N_12 
REMARK       I    between atoms: N_12  and  C_13 
REMARK    5  A    between atoms: N_12  and  C_23 
REMARK       I    between atoms: C_13  and  N_14 
REMARK    6  A    between atoms: N_14  and  C_15 
REMARK    7  A    between atoms: C_23  and  C_24 
REMARK    8  A    between atoms: C_24  and  C_25 
REMARK    9  A    between atoms: C_25  and  N_26 
ROOT
HETATM    1  N   UNL     1      41.904 -12.146   5.170  1.00  0.00    -0.330 N 
HETATM    2  C   UNL     1      42.511 -13.140   4.386  1.00  0.00     0.323 C 
HETATM    3  N   UNL     1      42.042 -14.410   4.654  1.00  0.00    -0.309 N 
HETATM    4  O   UNL     1      43.415 -12.871   3.605  1.00  0.00    -0.247 OA
HETATM    5  H   UNL     1      41.461 -14.494   5.465  1.00  0.00     0.170 HD
ENDROOT
BRANCH   1   6
HETATM    6  C   UNL     1      42.638 -10.880   5.331  1.00  0.00     0.170 C 
BRANCH   6   7
HETATM    7  C   UNL     1      43.189 -10.715   6.722  1.00  0.00     0.013 A 
HETATM    8  C   UNL     1      44.345 -11.330   7.158  1.00  0.00     0.170 A 
HETATM    9  N   UNL     1      44.928 -11.163   8.358  1.00  0.00    -0.224 NA
HETATM   10  C   UNL     1      44.329 -10.323   9.225  1.00  0.00     0.070 A 
HETATM   11  C   UNL     1      43.124  -9.662   8.917  1.00  0.00    -0.006 A 
HETATM   12  C   UNL     1      44.901 -10.084  10.468  1.00  0.00     0.033 A 
HETATM   13  C   UNL     1      42.520  -8.801   9.851  1.00  0.00     0.021 A 
HETATM   14  C   UNL     1      42.563  -9.881   7.652  1.00  0.00     0.027 A 
HETATM   15  C   UNL     1      43.109  -8.571  11.098  1.00  0.00    -0.058 A 
HETATM   16  C   UNL     1      44.310  -9.220  11.397  1.00  0.00     0.009 A 
BRANCH   8  17
HETATM   17  O   UNL     1      45.030 -12.215   6.390  1.00  0.00    -0.344 OA
HETATM   18  H   UNL     1      45.375 -12.768   7.120  1.00  0.00     0.219 HD
ENDBRANCH   8  17
BRANCH  15  19
HETATM   19  C   UNL     1      42.457  -7.652  12.100  1.00  0.00     0.034 C 
HETATM   20  C   UNL     1      43.150  -7.697  13.454  1.00  0.00     0.010 C 
ENDBRANCH  15  19
ENDBRANCH   6   7
ENDBRANCH   1   6
BRANCH   1  21
HETATM   21  C   UNL     1      40.497 -12.186   5.567  1.00  0.00     0.129 C 
BRANCH  21  22
HETATM   22  C   UNL     1      39.729 -10.923   5.180  1.00  0.00     0.048 C 
BRANCH  22  23
HETATM   23  C   UNL     1      39.107 -10.998   3.787  1.00  0.00     0.236 C 
BRANCH  23  24
HETATM   24  N   UNL     1      38.086  -9.911   3.522  1.00  0.00    -0.067 N 
HETATM   25  H   UNL     1      37.145 -10.256   3.747  1.00  0.00     0.280 HD
HETATM   26  C   UNL     1      38.348  -8.703   4.437  1.00  0.00     0.261 C 
HETATM   27  C   UNL     1      37.352  -7.581   4.135  1.00  0.00     0.195 C 
HETATM   28  O   UNL     1      37.427  -7.194   2.761  1.00  0.00    -0.388 OA
HETATM   29  C   UNL     1      37.090  -8.276   1.891  1.00  0.00     0.195 C 
HETATM   30  C   UNL     1      38.068  -9.445   2.060  1.00  0.00     0.261 C 
ENDBRANCH  23  24
ENDBRANCH  22  23
ENDBRANCH  21  22
ENDBRANCH   1  21
BRANCH   3  31
HETATM   31  C   UNL     1      42.560 -15.631   4.170  1.00  0.00     0.036 A 
HETATM   32  C   UNL     1      42.029 -16.108   2.962  1.00  0.00     0.031 A 
HETATM   33  C   UNL     1      42.438 -17.337   2.437  1.00  0.00     0.026 A 
HETATM   34  C   UNL     1      43.388 -18.094   3.115  1.00  0.00     0.034 A 
HETATM   35 CL   UNL     1      43.877 -19.615   2.483  1.00  0.00    -0.084 Cl
HETATM   36  C   UNL     1      43.937 -17.624   4.304  1.00  0.00     0.026 A 
HETATM   37  C   UNL     1      43.527 -16.392   4.827  1.00  0.00     0.031 A 
ENDBRANCH   3  31
TORSDOF 9
ENDMDL
MODEL 8
REMARK VINA RESULT:      -8.2     16.417     19.243
REMARK  9 active torsions:
REMARK  status: ('A' for Active; 'I' for Inactive)
REMARK    1  A    between atoms: C_2  and  C_3 
REMARK    2  A    between atoms: C_8  and  O_9 
REMARK    3  A    between atoms: C_10  and  C_11 
REMARK    4  A    between atoms: C_11  and  N_12 
REMARK       I    between atoms: N_12  and  C_13 
REMARK    5  A    between atoms: N_12  and  C_23 
REMARK       I    between atoms: C_13  and  N_14 
REMARK    6  A    between atoms: N_14  and  C_15 
REMARK    7  A    between atoms: C_23  and  C_24 
REMARK    8  A    between atoms: C_24  and  C_25 
REMARK    9  A    between atoms: C_25  and  N_26 
ROOT
HETATM    1  N   UNL     1      44.754 -28.894  -1.791  1.00  0.00    -0.330 N 
HETATM    2  C   UNL     1      44.904 -29.042  -3.178  1.00  0.00     0.323 C 
HETATM    3  N   UNL     1      44.488 -30.272  -3.645  1.00  0.00    -0.309 N 
HETATM    4  O   UNL     1      45.427 -28.168  -3.859  1.00  0.00    -0.247 OA
HETATM    5  H   UNL     1      44.286 -30.956  -2.942  1.00  0.00     0.170 HD
ENDROOT
BRANCH   1   6
HETATM    6  C   UNL     1      45.588 -27.874  -1.132  1.00  0.00     0.170 C 
BRANCH   6   7
HETATM    7  C   UNL     1      46.836 -28.462  -0.532  1.00  0.00     0.013 A 
HETATM    8  C   UNL     1      47.059 -28.544   0.828  1.00  0.00     0.170 A 
HETATM    9  N   UNL     1      48.113 -29.125   1.425  1.00  0.00    -0.224 NA
HETATM   10  C   UNL     1      49.050 -29.675   0.628  1.00  0.00     0.070 A 
HETATM   11  C   UNL     1      48.961 -29.626  -0.777  1.00  0.00    -0.006 A 
HETATM   12  C   UNL     1      50.147 -30.319   1.186  1.00  0.00     0.033 A 
HETATM   13  C   UNL     1      49.964 -30.200  -1.579  1.00  0.00     0.021 A 
HETATM   14  C   UNL     1      47.840 -29.002  -1.340  1.00  0.00     0.027 A 
HETATM   15  C   UNL     1      51.061 -30.845  -1.000  1.00  0.00    -0.058 A 
HETATM   16  C   UNL     1      51.142 -30.902   0.393  1.00  0.00     0.009 A 
BRANCH   8  17
HETATM   17  O   UNL     1      46.203 -28.010   1.736  1.00  0.00    -0.344 OA
HETATM   18  H   UNL     1      46.863 -27.477   2.226  1.00  0.00     0.219 HD
ENDBRANCH   8  17
BRANCH  15  19
HETATM   19  C   UNL     1      52.138 -31.456  -1.862  1.00  0.00     0.034 C 
HETATM   20  C   UNL     1      51.581 -32.023  -3.159  1.00  0.00     0.010 C 
ENDBRANCH  15  19
ENDBRANCH   6   7
ENDBRANCH   1   6
BRANCH   1  21
HETATM   21  C   UNL     1      43.635 -29.464  -1.040  1.00  0.00     0.129 C 
BRANCH  21  22
HETATM   22  C   UNL     1      43.967 -30.813  -0.403  1.00  0.00     0.048 C 
BRANCH  22  23
HETATM   23  C   UNL     1      43.995 -30.769   1.123  1.00  0.00     0.236 C 
BRANCH  23  24
HETATM   24  N   UNL     1      42.624 -30.616   1.749  1.00  0.00    -0.067 N 
HETATM   25  H   UNL     1      42.166 -29.774   1.380  1.00  0.00     0.280 HD
HETATM   26  C   UNL     1      41.733 -31.810   1.370  1.00  0.00     0.261 C 
HETATM   27  C   UNL     1      40.365 -31.687   2.044  1.00  0.00     0.195 C 
HETATM   28  O   UNL     1      40.506 -31.598   3.464  1.00  0.00    -0.388 OA
HETATM   29  C   UNL     1      41.249 -30.439   3.847  1.00  0.00     0.195 C 
HETATM   30  C   UNL     1      42.671 -30.482   3.277  1.00  0.00     0.261 C 
ENDBRANCH  23  24
ENDBRANCH  22  23
ENDBRANCH  21  22
ENDBRANCH   1  21
BRANCH   3  31
HETATM   31  C   UNL     1      44.662 -30.796  -4.944  1.00  0.00     0.036 A 
HETATM   32  C   UNL     1      45.877 -31.448  -5.205  1.00  0.00     0.031 A 
HETATM   33  C   UNL     1      46.162 -31.946  -6.480  1.00  0.00     0.026 A 
HETATM   34  C   UNL     1      45.229 -31.801  -7.501  1.00  0.00     0.034 A 
HETATM   35 CL   UNL     1      45.586 -32.392  -9.074  1.00  0.00    -0.084 Cl
HETATM   36  C   UNL     1      44.012 -31.174  -7.251  1.00  0.00     0.026 A 
HETATM   37  C   UNL     1      43.728 -30.677  -5.973  1.00  0.00     0.031 A 
ENDBRANCH   3  31
TORSDOF 9
ENDMDL
MODEL 9
REMARK VINA RESULT:      -8.2      3.208      6.923
REMARK  9 active torsions:
REMARK  status: ('A' for Active; 'I' for Inactive)
REMARK    1  A    between atoms: C_2  and  C_3 
REMARK    2  A    between atoms: C_8  and  O_9 
REMARK    3  A    between atoms: C_10  and  C_11 
REMARK    4  A    between atoms: C_11  and  N_12 
REMARK       I    between atoms: N_12  and  C_13 
REMARK    5  A    between atoms: N_12  and  C_23 
REMARK       I    between atoms: C_13  and  N_14 
REMARK    6  A    between atoms: N_14  and  C_15 
REMARK    7  A    between atoms: C_23  and  C_24 
REMARK    8  A    between atoms: C_24  and  C_25 
REMARK    9  A    between atoms: C_25  and  N_26 
ROOT
HETATM    1  N   UNL     1      41.226 -12.942   4.552  1.00  0.00    -0.330 N 
HETATM    2  C   UNL     1      41.059 -12.543   3.217  1.00  0.00     0.323 C 
HETATM    3  N   UNL     1      39.826 -12.876   2.696  1.00  0.00    -0.309 N 
HETATM    4  O   UNL     1      41.972 -12.018   2.591  1.00  0.00    -0.247 OA
HETATM    5  H   UNL     1      39.270 -13.490   3.260  1.00  0.00     0.170 HD
ENDROOT
BRANCH   1   6
HETATM    6  C   UNL     1      42.608 -13.089   5.039  1.00  0.00     0.170 C 
BRANCH   6   7
HETATM    7  C   UNL     1      42.967 -14.527   5.304  1.00  0.00     0.013 A 
HETATM    8  C   UNL     1      43.073 -15.061   6.572  1.00  0.00     0.170 A 
HETATM    9  N   UNL     1      43.313 -16.349   6.872  1.00  0.00    -0.224 NA
HETATM   10  C   UNL     1      43.473 -17.204   5.843  1.00  0.00     0.070 A 
HETATM   11  C   UNL     1      43.425 -16.779   4.501  1.00  0.00    -0.006 A 
HETATM   12  C   UNL     1      43.691 -18.554   6.089  1.00  0.00     0.033 A 
HETATM   13  C   UNL     1      43.609 -17.698   3.452  1.00  0.00     0.021 A 
HETATM   14  C   UNL     1      43.176 -15.423   4.253  1.00  0.00     0.027 A 
HETATM   15  C   UNL     1      43.827 -19.053   3.717  1.00  0.00    -0.058 A 
HETATM   16  C   UNL     1      43.863 -19.474   5.049  1.00  0.00     0.009 A 
BRANCH   8  17
HETATM   17  O   UNL     1      42.955 -14.301   7.691  1.00  0.00    -0.344 OA
HETATM   18  H   UNL     1      43.116 -15.017   8.341  1.00  0.00     0.219 HD
ENDBRANCH   8  17
BRANCH  15  19
HETATM   19  C   UNL     1      44.029 -20.036   2.591  1.00  0.00     0.034 C 
HETATM   20  C   UNL     1      42.760 -20.242   1.776  1.00  0.00     0.010 C 
ENDBRANCH  15  19
ENDBRANCH   6   7
ENDBRANCH   1   6
BRANCH   1  21
HETATM   21  C   UNL     1      40.143 -12.922   5.536  1.00  0.00     0.129 C 
BRANCH  21  22
HETATM   22  C   UNL     1      39.567 -11.526   5.765  1.00  0.00     0.048 C 
BRANCH  22  23
HETATM   23  C   UNL     1      40.609 -10.512   6.233  1.00  0.00     0.236 C 
BRANCH  23  24
HETATM   24  N   UNL     1      40.624 -10.309   7.734  1.00  0.00    -0.067 N 
HETATM   25  H   UNL     1      40.833 -11.199   8.202  1.00  0.00     0.280 HD
HETATM   26  C   UNL     1      41.742  -9.328   8.123  1.00  0.00     0.261 C 
HETATM   27  C   UNL     1      41.727  -9.078   9.633  1.00  0.00     0.195 C 
HETATM   28  O   UNL     1      40.455  -8.579  10.051  1.00  0.00    -0.388 OA
HETATM   29  C   UNL     1      39.409  -9.517   9.788  1.00  0.00     0.195 C 
HETATM   30  C   UNL     1      39.287  -9.800   8.287  1.00  0.00     0.261 C 
ENDBRANCH  23  24
ENDBRANCH  22  23
ENDBRANCH  21  22
ENDBRANCH   1  21
BRANCH   3  31
HETATM   31  C   UNL     1      39.411 -12.773   1.351  1.00  0.00     0.036 A 
HETATM   32  C   UNL     1      38.490 -11.759   1.050  1.00  0.00     0.031 A 
HETATM   33  C   UNL     1      37.978 -11.619  -0.244  1.00  0.00     0.026 A 
HETATM   34  C   UNL     1      38.391 -12.490  -1.246  1.00  0.00     0.034 A 
HETATM   35 CL   UNL     1      37.746 -12.334  -2.832  1.00  0.00    -0.084 Cl
HETATM   36  C   UNL     1      39.318 -13.489  -0.966  1.00  0.00     0.026 A 
HETATM   37  C   UNL     1      39.831 -13.627   0.330  1.00  0.00     0.031 A 
ENDBRANCH   3  31
TORSDOF 9
ENDMDL
MODEL 10
REMARK VINA RESULT:      -8.2      2.471      7.642
REMARK  9 active torsions:
REMARK  status: ('A' for Active; 'I' for Inactive)
REMARK    1  A    between atoms: C_2  and  C_3 
REMARK    2  A    between atoms: C_8  and  O_9 
REMARK    3  A    between atoms: C_10  and  C_11 
REMARK    4  A    between atoms: C_11  and  N_12 
REMARK       I    between atoms: N_12  and  C_13 
REMARK    5  A    between atoms: N_12  and  C_23 
REMARK       I    between atoms: C_13  and  N_14 
REMARK    6  A    between atoms: N_14  and  C_15 
REMARK    7  A    between atoms: C_23  and  C_24 
REMARK    8  A    between atoms: C_24  and  C_25 
REMARK    9  A    between atoms: C_25  and  N_26 
ROOT
HETATM    1  N   UNL     1      41.641 -14.238   1.416  1.00  0.00    -0.330 N 
HETATM    2  C   UNL     1      42.565 -15.239   1.753  1.00  0.00     0.323 C 
HETATM    3  N   UNL     1      41.978 -16.365   2.296  1.00  0.00    -0.309 N 
HETATM    4  O   UNL     1      43.771 -15.061   1.630  1.00  0.00    -0.247 OA
HETATM    5  H   UNL     1      41.009 -16.276   2.531  1.00  0.00     0.170 HD
ENDROOT
BRANCH   1   6
HETATM    6  C   UNL     1      42.155 -12.863   1.306  1.00  0.00     0.170 C 
BRANCH   6   7
HETATM    7  C   UNL     1      42.216 -12.170   2.641  1.00  0.00     0.013 A 
HETATM    8  C   UNL     1      41.114 -11.616   3.259  1.00  0.00     0.170 A 
HETATM    9  N   UNL     1      41.088 -11.055   4.480  1.00  0.00    -0.224 NA
HETATM   10  C   UNL     1      42.245 -11.020   5.169  1.00  0.00     0.070 A 
HETATM   11  C   UNL     1      43.450 -11.518   4.637  1.00  0.00    -0.006 A 
HETATM   12  C   UNL     1      42.275 -10.483   6.450  1.00  0.00     0.033 A 
HETATM   13  C   UNL     1      44.643 -11.455   5.380  1.00  0.00     0.021 A 
HETATM   14  C   UNL     1      43.414 -12.087   3.356  1.00  0.00     0.027 A 
HETATM   15  C   UNL     1      44.655 -10.911   6.668  1.00  0.00    -0.058 A 
HETATM   16  C   UNL     1      43.457 -10.428   7.199  1.00  0.00     0.009 A 
BRANCH   8  17
HETATM   17  O   UNL     1      39.896 -11.567   2.662  1.00  0.00    -0.344 OA
HETATM   18  H   UNL     1      40.201 -11.243   1.790  1.00  0.00     0.219 HD
ENDBRANCH   8  17
BRANCH  15  19
HETATM   19  C   UNL     1      45.936 -10.839   7.461  1.00  0.00     0.034 C 
HETATM   20  C   UNL     1      46.135  -9.475   8.106  1.00  0.00     0.010 C 
ENDBRANCH  15  19
ENDBRANCH   6   7
ENDBRANCH   1   6
BRANCH   1  21
HETATM   21  C   UNL     1      40.308 -14.523   0.888  1.00  0.00     0.129 C 
BRANCH  21  22
HETATM   22  C   UNL     1      40.112 -14.027  -0.544  1.00  0.00     0.048 C 
BRANCH  22  23
HETATM   23  C   UNL     1      39.087 -12.900  -0.658  1.00  0.00     0.236 C 
BRANCH  23  24
HETATM   24  N   UNL     1      39.558 -11.738  -1.508  1.00  0.00    -0.067 N 
HETATM   25  H   UNL     1      40.464 -11.967  -1.937  1.00  0.00     0.280 HD
HETATM   26  C   UNL     1      38.570 -11.491  -2.660  1.00  0.00     0.261 C 
HETATM   27  C   UNL     1      39.013 -10.284  -3.490  1.00  0.00     0.195 C 
HETATM   28  O   UNL     1      39.128  -9.119  -2.669  1.00  0.00    -0.388 OA
HETATM   29  C   UNL     1      40.115  -9.290  -1.649  1.00  0.00     0.195 C 
HETATM   30  C   UNL     1      39.742 -10.442  -0.709  1.00  0.00     0.261 C 
ENDBRANCH  23  24
ENDBRANCH  22  23
ENDBRANCH  21  22
ENDBRANCH   1  21
BRANCH   3  31
HETATM   31  C   UNL     1      42.632 -17.466   2.890  1.00  0.00     0.036 A 
HETATM   32  C   UNL     1      43.008 -17.327   4.235  1.00  0.00     0.031 A 
HETATM   33  C   UNL     1      43.712 -18.343   4.889  1.00  0.00     0.026 A 
HETATM   34  C   UNL     1      44.038 -19.507   4.202  1.00  0.00     0.034 A 
HETATM   35 CL   UNL     1      44.922 -20.748   4.998  1.00  0.00    -0.084 Cl
HETATM   36  C   UNL     1      43.654 -19.666   2.874  1.00  0.00     0.026 A 
HETATM   37  C   UNL     1      42.948 -18.649   2.221  1.00  0.00     0.031 A 
ENDBRANCH   3  31
TORSDOF 9
ENDMDL
