MODEL 1
REMARK VINA RESULT:      -9.1      0.000      0.000
REMARK  1 active torsions:
REMARK  status: ('A' for Active; 'I' for Inactive)
REMARK    1  A    between atoms: C_8  and  C_9 
ROOT
HETATM    1  C   UNL     1      42.616 -15.148   1.145  1.00  0.00     0.073 C 
HETATM    2  C   UNL     1      41.485 -14.799   2.045  1.00  0.00     0.062 C 
HETATM    3  N   UNL     1      40.230 -14.933   1.603  1.00  0.00    -0.178 NA
HETATM    4  N   UNL     1      39.481 -14.609   2.660  1.00  0.00    -0.262 N 
HETATM    5  H   UNL     1      38.473 -14.659   2.563  1.00  0.00     0.191 HD
HETATM    6  C   UNL     1      40.203 -14.136   3.720  1.00  0.00     0.134 C 
HETATM    7  C   UNL     1      41.535 -14.340   3.404  1.00  0.00     0.032 C 
HETATM    8  C   UNL     1      42.771 -14.232   4.244  1.00  0.00     0.119 C 
HETATM    9  S   UNL     1      42.877 -12.965   5.541  1.00  0.00    -0.141 SA
HETATM   10  C   UNL     1      41.394 -11.965   5.242  1.00  0.00     0.136 C 
HETATM   11  C   UNL     1      41.549 -10.673   6.049  1.00  0.00     0.031 C 
HETATM   12  C   UNL     1      40.126 -12.704   5.680  1.00  0.00     0.236 C 
HETATM   13  O   UNL     1      39.510 -12.431   6.712  1.00  0.00    -0.272 OA
HETATM   14  N   UNL     1      39.582 -13.634   4.834  1.00  0.00    -0.311 N 
HETATM   15  H   UNL     1      38.621 -13.878   5.047  1.00  0.00     0.170 HD
ENDROOT
BRANCH   8  16
HETATM   16  C   UNL     1      42.985 -15.621   4.841  1.00  0.00    -0.039 A 
HETATM   17  C   UNL     1      43.492 -16.691   4.074  1.00  0.00     0.021 A 
HETATM   18  C   UNL     1      43.645 -17.980   4.611  1.00  0.00    -0.025 A 
HETATM   19  C   UNL     1      43.288 -18.215   5.955  1.00  0.00    -0.026 A 
HETATM   20  C   UNL     1      44.134 -19.041   3.832  1.00  0.00     0.012 A 
HETATM   21  C   UNL     1      42.790 -17.153   6.725  1.00  0.00     0.013 A 
HETATM   22  C   UNL     1      43.429 -19.508   6.485  1.00  0.00     0.012 A 
HETATM   23  C   UNL     1      42.636 -15.877   6.176  1.00  0.00     0.009 A 
HETATM   24  C   UNL     1      43.915 -20.553   5.698  1.00  0.00     0.001 A 
HETATM   25  C   UNL     1      44.268 -20.320   4.372  1.00  0.00     0.001 A 
ENDBRANCH   8  16
TORSDOF 1
ENDMDL
MODEL 2
REMARK VINA RESULT:      -8.9      2.741      3.600
REMARK  1 active torsions:
REMARK  status: ('A' for Active; 'I' for Inactive)
REMARK    1  A    between atoms: C_8  and  C_9 
ROOT
HETATM    1  C   UNL     1      43.949 -12.560   7.083  1.00  0.00     0.073 C 
HETATM    2  C   UNL     1      43.809 -12.313   5.624  1.00  0.00     0.062 C 
HETATM    3  N   UNL     1      44.699 -11.533   5.003  1.00  0.00    -0.178 NA
HETATM    4  N   UNL     1      44.327 -11.580   3.720  1.00  0.00    -0.262 N 
HETATM    5  H   UNL     1      44.882 -11.067   3.044  1.00  0.00     0.191 HD
HETATM    6  C   UNL     1      43.150 -12.244   3.515  1.00  0.00     0.134 C 
HETATM    7  C   UNL     1      42.823 -12.837   4.722  1.00  0.00     0.032 C 
HETATM    8  C   UNL     1      41.781 -13.857   5.064  1.00  0.00     0.119 C 
HETATM    9  S   UNL     1      40.183 -13.847   4.199  1.00  0.00    -0.141 SA
HETATM   10  C   UNL     1      40.256 -12.304   3.248  1.00  0.00     0.136 C 
HETATM   11  C   UNL     1      38.839 -12.014   2.748  1.00  0.00     0.031 C 
HETATM   12  C   UNL     1      41.214 -12.427   2.060  1.00  0.00     0.236 C 
HETATM   13  O   UNL     1      40.830 -12.556   0.896  1.00  0.00    -0.272 OA
HETATM   14  N   UNL     1      42.558 -12.271   2.279  1.00  0.00    -0.311 N 
HETATM   15  H   UNL     1      43.097 -12.089   1.439  1.00  0.00     0.170 HD
ENDROOT
BRANCH   8  16
HETATM   16  C   UNL     1      42.464 -15.213   4.899  1.00  0.00    -0.039 A 
HETATM   17  C   UNL     1      42.360 -15.960   3.708  1.00  0.00     0.021 A 
HETATM   18  C   UNL     1      42.951 -17.227   3.574  1.00  0.00    -0.025 A 
HETATM   19  C   UNL     1      43.673 -17.771   4.656  1.00  0.00    -0.026 A 
HETATM   20  C   UNL     1      42.824 -17.969   2.388  1.00  0.00     0.012 A 
HETATM   21  C   UNL     1      43.787 -17.029   5.841  1.00  0.00     0.013 A 
HETATM   22  C   UNL     1      44.251 -19.044   4.523  1.00  0.00     0.012 A 
HETATM   23  C   UNL     1      43.188 -15.772   5.964  1.00  0.00     0.009 A 
HETATM   24  C   UNL     1      44.116 -19.770   3.339  1.00  0.00     0.001 A 
HETATM   25  C   UNL     1      43.402 -19.233   2.271  1.00  0.00     0.001 A 
ENDBRANCH   8  16
TORSDOF 1
ENDMDL
MODEL 3
REMARK VINA RESULT:      -8.8      1.346      2.357
REMARK  1 active torsions:
REMARK  status: ('A' for Active; 'I' for Inactive)
REMARK    1  A    between atoms: C_8  and  C_9 
ROOT
HETATM    1  C   UNL     1      41.313 -12.686   0.017  1.00  0.00     0.073 C 
HETATM    2  C   UNL     1      40.444 -12.852   1.212  1.00  0.00     0.062 C 
HETATM    3  N   UNL     1      39.122 -12.966   1.049  1.00  0.00    -0.178 NA
HETATM    4  N   UNL     1      38.663 -13.167   2.288  1.00  0.00    -0.262 N 
HETATM    5  H   UNL     1      37.666 -13.304   2.410  1.00  0.00     0.191 HD
HETATM    6  C   UNL     1      39.622 -13.045   3.254  1.00  0.00     0.134 C 
HETATM    7  C   UNL     1      40.831 -12.942   2.590  1.00  0.00     0.032 C 
HETATM    8  C   UNL     1      42.239 -13.005   3.100  1.00  0.00     0.119 C 
HETATM    9  S   UNL     1      42.643 -12.324   4.735  1.00  0.00    -0.141 SA
HETATM   10  C   UNL     1      41.106 -11.483   5.206  1.00  0.00     0.136 C 
HETATM   11  C   UNL     1      41.430 -10.587   6.403  1.00  0.00     0.031 C 
HETATM   12  C   UNL     1      40.015 -12.488   5.585  1.00  0.00     0.236 C 
HETATM   13  O   UNL     1      39.679 -12.708   6.751  1.00  0.00    -0.272 OA
HETATM   14  N   UNL     1      39.296 -13.088   4.585  1.00  0.00    -0.311 N 
HETATM   15  H   UNL     1      38.429 -13.514   4.895  1.00  0.00     0.170 HD
ENDROOT
BRANCH   8  16
HETATM   16  C   UNL     1      42.638 -14.477   3.026  1.00  0.00    -0.039 A 
HETATM   17  C   UNL     1      42.858 -15.249   4.185  1.00  0.00     0.021 A 
HETATM   18  C   UNL     1      43.269 -16.590   4.115  1.00  0.00    -0.025 A 
HETATM   19  C   UNL     1      43.464 -17.188   2.853  1.00  0.00    -0.026 A 
HETATM   20  C   UNL     1      43.502 -17.342   5.278  1.00  0.00     0.012 A 
HETATM   21  C   UNL     1      43.239 -16.428   1.696  1.00  0.00     0.013 A 
HETATM   22  C   UNL     1      43.888 -18.526   2.787  1.00  0.00     0.012 A 
HETATM   23  C   UNL     1      42.837 -15.092   1.780  1.00  0.00     0.009 A 
HETATM   24  C   UNL     1      44.117 -19.261   3.952  1.00  0.00     0.001 A 
HETATM   25  C   UNL     1      43.924 -18.669   5.197  1.00  0.00     0.001 A 
ENDBRANCH   8  16
TORSDOF 1
ENDMDL
MODEL 4
REMARK VINA RESULT:      -8.3      1.905      3.100
REMARK  1 active torsions:
REMARK  status: ('A' for Active; 'I' for Inactive)
REMARK    1  A    between atoms: C_8  and  C_9 
ROOT
HETATM    1  C   UNL     1      39.762 -12.667   2.223  1.00  0.00     0.073 C 
HETATM    2  C   UNL     1      40.112 -12.851   3.657  1.00  0.00     0.062 C 
HETATM    3  N   UNL     1      39.134 -12.952   4.562  1.00  0.00    -0.178 NA
HETATM    4  N   UNL     1      39.781 -13.174   5.710  1.00  0.00    -0.262 N 
HETATM    5  H   UNL     1      39.228 -13.306   6.550  1.00  0.00     0.191 HD
HETATM    6  C   UNL     1      41.140 -13.077   5.601  1.00  0.00     0.134 C 
HETATM    7  C   UNL     1      41.414 -12.970   4.248  1.00  0.00     0.032 C 
HETATM    8  C   UNL     1      42.709 -13.052   3.500  1.00  0.00     0.119 C 
HETATM    9  S   UNL     1      44.232 -12.406   4.249  1.00  0.00    -0.141 SA
HETATM   10  C   UNL     1      43.618 -11.564   5.734  1.00  0.00     0.136 C 
HETATM   11  C   UNL     1      44.760 -10.693   6.264  1.00  0.00     0.031 C 
HETATM   12  C   UNL     1      43.186 -12.568   6.806  1.00  0.00     0.236 C 
HETATM   13  O   UNL     1      43.856 -12.808   7.812  1.00  0.00    -0.272 OA
HETATM   14  N   UNL     1      41.946 -13.143   6.707  1.00  0.00    -0.311 N 
HETATM   15  H   UNL     1      41.616 -13.570   7.566  1.00  0.00     0.170 HD
ENDROOT
BRANCH   8  16
HETATM   16  C   UNL     1      42.881 -14.526   3.137  1.00  0.00    -0.039 A 
HETATM   17  C   UNL     1      43.222 -15.496   4.102  1.00  0.00     0.021 A 
HETATM   18  C   UNL     1      43.425 -16.843   3.759  1.00  0.00    -0.025 A 
HETATM   19  C   UNL     1      43.280 -17.243   2.414  1.00  0.00    -0.026 A 
HETATM   20  C   UNL     1      43.783 -17.795   4.727  1.00  0.00     0.012 A 
HETATM   21  C   UNL     1      42.931 -16.284   1.451  1.00  0.00     0.013 A 
HETATM   22  C   UNL     1      43.496 -18.588   2.072  1.00  0.00     0.012 A 
HETATM   23  C   UNL     1      42.740 -14.945   1.805  1.00  0.00     0.009 A 
HETATM   24  C   UNL     1      43.853 -19.523   3.045  1.00  0.00     0.001 A 
HETATM   25  C   UNL     1      43.996 -19.127   4.372  1.00  0.00     0.001 A 
ENDBRANCH   8  16
TORSDOF 1
ENDMDL
MODEL 5
REMARK VINA RESULT:      -8.1      2.757      6.274
REMARK  1 active torsions:
REMARK  status: ('A' for Active; 'I' for Inactive)
REMARK    1  A    between atoms: C_8  and  C_9 
ROOT
HETATM    1  C   UNL     1      43.318 -15.843   7.259  1.00  0.00     0.073 C 
HETATM    2  C   UNL     1      42.053 -15.367   6.639  1.00  0.00     0.062 C 
HETATM    3  N   UNL     1      40.883 -15.777   7.139  1.00  0.00    -0.178 NA
HETATM    4  N   UNL     1      39.975 -15.122   6.410  1.00  0.00    -0.262 N 
HETATM    5  H   UNL     1      38.996 -15.265   6.629  1.00  0.00     0.191 HD
HETATM    6  C   UNL     1      40.513 -14.417   5.370  1.00  0.00     0.134 C 
HETATM    7  C   UNL     1      41.886 -14.460   5.540  1.00  0.00     0.032 C 
HETATM    8  C   UNL     1      42.984 -13.703   4.857  1.00  0.00     0.119 C 
HETATM    9  S   UNL     1      42.831 -13.271   3.099  1.00  0.00    -0.141 SA
HETATM   10  C   UNL     1      41.346 -14.181   2.595  1.00  0.00     0.136 C 
HETATM   11  C   UNL     1      41.308 -14.173   1.064  1.00  0.00     0.031 C 
HETATM   12  C   UNL     1      40.077 -13.530   3.152  1.00  0.00     0.236 C 
HETATM   13  O   UNL     1      39.307 -12.857   2.462  1.00  0.00    -0.272 OA
HETATM   14  N   UNL     1      39.713 -13.797   4.445  1.00  0.00    -0.311 N 
HETATM   15  H   UNL     1      38.748 -13.570   4.661  1.00  0.00     0.170 HD
ENDROOT
BRANCH   8  16
HETATM   16  C   UNL     1      43.197 -12.444   5.696  1.00  0.00    -0.039 A 
HETATM   17  C   UNL     1      44.461 -12.104   6.221  1.00  0.00     0.021 A 
HETATM   18  C   UNL     1      44.646 -10.972   7.031  1.00  0.00    -0.025 A 
HETATM   19  C   UNL     1      43.542 -10.145   7.325  1.00  0.00    -0.026 A 
HETATM   20  C   UNL     1      45.906 -10.655   7.563  1.00  0.00     0.012 A 
HETATM   21  C   UNL     1      42.284 -10.473   6.799  1.00  0.00     0.013 A 
HETATM   22  C   UNL     1      43.728  -9.020   8.146  1.00  0.00     0.012 A 
HETATM   23  C   UNL     1      42.112 -11.608   6.000  1.00  0.00     0.009 A 
HETATM   24  C   UNL     1      44.987  -8.718   8.669  1.00  0.00     0.001 A 
HETATM   25  C   UNL     1      46.076  -9.535   8.378  1.00  0.00     0.001 A 
ENDBRANCH   8  16
TORSDOF 1
ENDMDL
MODEL 6
REMARK VINA RESULT:      -8.1      3.138      4.810
REMARK  1 active torsions:
REMARK  status: ('A' for Active; 'I' for Inactive)
REMARK    1  A    between atoms: C_8  and  C_9 
ROOT
HETATM    1  C   UNL     1      41.345 -10.081   3.986  1.00  0.00     0.073 C 
HETATM    2  C   UNL     1      41.546 -10.170   5.457  1.00  0.00     0.062 C 
HETATM    3  N   UNL     1      40.557  -9.801   6.277  1.00  0.00    -0.178 NA
HETATM    4  N   UNL     1      41.035 -10.068   7.496  1.00  0.00    -0.262 N 
HETATM    5  H   UNL     1      40.436  -9.882   8.293  1.00  0.00     0.191 HD
HETATM    6  C   UNL     1      42.344 -10.461   7.498  1.00  0.00     0.134 C 
HETATM    7  C   UNL     1      42.695 -10.646   6.172  1.00  0.00     0.032 C 
HETATM    8  C   UNL     1      43.909 -11.273   5.557  1.00  0.00     0.119 C 
HETATM    9  S   UNL     1      45.529 -11.092   6.359  1.00  0.00    -0.141 SA
HETATM   10  C   UNL     1      45.188  -9.890   7.674  1.00  0.00     0.136 C 
HETATM   11  C   UNL     1      46.540  -9.400   8.199  1.00  0.00     0.031 C 
HETATM   12  C   UNL     1      44.384 -10.523   8.813  1.00  0.00     0.236 C 
HETATM   13  O   UNL     1      44.883 -10.835   9.896  1.00  0.00    -0.272 OA
HETATM   14  N   UNL     1      43.027 -10.644   8.672  1.00  0.00    -0.311 N 
HETATM   15  H   UNL     1      42.531 -10.806   9.542  1.00  0.00     0.170 HD
ENDROOT
BRANCH   8  16
HETATM   16  C   UNL     1      43.565 -12.751   5.385  1.00  0.00    -0.039 A 
HETATM   17  C   UNL     1      43.773 -13.689   6.417  1.00  0.00     0.021 A 
HETATM   18  C   UNL     1      43.500 -15.056   6.242  1.00  0.00    -0.025 A 
HETATM   19  C   UNL     1      42.998 -15.507   5.004  1.00  0.00    -0.026 A 
HETATM   20  C   UNL     1      43.729 -15.983   7.272  1.00  0.00     0.012 A 
HETATM   21  C   UNL     1      42.781 -14.578   3.976  1.00  0.00     0.013 A 
HETATM   22  C   UNL     1      42.738 -16.877   4.828  1.00  0.00     0.012 A 
HETATM   23  C   UNL     1      43.064 -13.221   4.161  1.00  0.00     0.009 A 
HETATM   24  C   UNL     1      42.972 -17.786   5.860  1.00  0.00     0.001 A 
HETATM   25  C   UNL     1      43.468 -17.340   7.082  1.00  0.00     0.001 A 
ENDBRANCH   8  16
TORSDOF 1
ENDMDL
MODEL 7
REMARK VINA RESULT:      -7.9      2.928      5.802
REMARK  1 active torsions:
REMARK  status: ('A' for Active; 'I' for Inactive)
REMARK    1  A    between atoms: C_8  and  C_9 
ROOT
HETATM    1  C   UNL     1      42.029 -10.453   3.597  1.00  0.00     0.073 C 
HETATM    2  C   UNL     1      41.121 -11.308   4.407  1.00  0.00     0.062 C 
HETATM    3  N   UNL     1      40.087 -10.748   5.042  1.00  0.00    -0.178 NA
HETATM    4  N   UNL     1      39.455 -11.784   5.602  1.00  0.00    -0.262 N 
HETATM    5  H   UNL     1      38.611 -11.596   6.131  1.00  0.00     0.191 HD
HETATM    6  C   UNL     1      40.122 -12.969   5.469  1.00  0.00     0.134 C 
HETATM    7  C   UNL     1      41.171 -12.729   4.599  1.00  0.00     0.032 C 
HETATM    8  C   UNL     1      42.107 -13.672   3.906  1.00  0.00     0.119 C 
HETATM    9  S   UNL     1      42.645 -15.193   4.741  1.00  0.00    -0.141 SA
HETATM   10  C   UNL     1      42.000 -14.972   6.422  1.00  0.00     0.136 C 
HETATM   11  C   UNL     1      42.677 -16.022   7.307  1.00  0.00     0.031 C 
HETATM   12  C   UNL     1      40.480 -15.155   6.464  1.00  0.00     0.236 C 
HETATM   13  O   UNL     1      39.936 -16.167   6.912  1.00  0.00    -0.272 OA
HETATM   14  N   UNL     1      39.681 -14.104   6.098  1.00  0.00    -0.311 N 
HETATM   15  H   UNL     1      38.718 -14.189   6.404  1.00  0.00     0.170 HD
ENDROOT
BRANCH   8  16
HETATM   16  C   UNL     1      41.441 -14.006   2.573  1.00  0.00    -0.039 A 
HETATM   17  C   UNL     1      41.516 -13.137   1.465  1.00  0.00     0.021 A 
HETATM   18  C   UNL     1      40.864 -13.423   0.254  1.00  0.00    -0.025 A 
HETATM   19  C   UNL     1      40.117 -14.613   0.136  1.00  0.00    -0.026 A 
HETATM   20  C   UNL     1      40.931 -12.540  -0.836  1.00  0.00     0.012 A 
HETATM   21  C   UNL     1      40.046 -15.486   1.232  1.00  0.00     0.013 A 
HETATM   22  C   UNL     1      39.456 -14.890  -1.072  1.00  0.00     0.012 A 
HETATM   23  C   UNL     1      40.694 -15.186   2.434  1.00  0.00     0.009 A 
HETATM   24  C   UNL     1      39.531 -14.002  -2.147  1.00  0.00     0.001 A 
HETATM   25  C   UNL     1      40.268 -12.827  -2.029  1.00  0.00     0.001 A 
ENDBRANCH   8  16
TORSDOF 1
ENDMDL
MODEL 8
REMARK VINA RESULT:      -7.9      2.942      4.213
REMARK  1 active torsions:
REMARK  status: ('A' for Active; 'I' for Inactive)
REMARK    1  A    between atoms: C_8  and  C_9 
ROOT
HETATM    1  C   UNL     1      41.552 -12.817   6.177  1.00  0.00     0.073 C 
HETATM    2  C   UNL     1      41.944 -12.282   4.846  1.00  0.00     0.062 C 
HETATM    3  N   UNL     1      42.865 -11.316   4.773  1.00  0.00    -0.178 NA
HETATM    4  N   UNL     1      43.025 -11.125   3.460  1.00  0.00    -0.262 N 
HETATM    5  H   UNL     1      43.706 -10.436   3.159  1.00  0.00     0.191 HD
HETATM    6  C   UNL     1      42.142 -11.829   2.692  1.00  0.00     0.134 C 
HETATM    7  C   UNL     1      41.478 -12.687   3.551  1.00  0.00     0.032 C 
HETATM    8  C   UNL     1      40.564 -13.842   3.273  1.00  0.00     0.119 C 
HETATM    9  S   UNL     1      39.441 -13.787   1.846  1.00  0.00    -0.141 SA
HETATM   10  C   UNL     1      39.622 -12.078   1.264  1.00  0.00     0.136 C 
HETATM   11  C   UNL     1      38.477 -11.812   0.284  1.00  0.00     0.031 C 
HETATM   12  C   UNL     1      40.968 -11.867   0.566  1.00  0.00     0.236 C 
HETATM   13  O   UNL     1      41.085 -11.781  -0.658  1.00  0.00    -0.272 OA
HETATM   14  N   UNL     1      42.080 -11.646   1.335  1.00  0.00    -0.311 N 
HETATM   15  H   UNL     1      42.863 -11.247   0.828  1.00  0.00     0.170 HD
ENDROOT
BRANCH   8  16
HETATM   16  C   UNL     1      41.469 -15.070   3.189  1.00  0.00    -0.039 A 
HETATM   17  C   UNL     1      41.825 -15.812   4.333  1.00  0.00     0.021 A 
HETATM   18  C   UNL     1      42.694 -16.913   4.261  1.00  0.00    -0.025 A 
HETATM   19  C   UNL     1      43.224 -17.294   3.011  1.00  0.00    -0.026 A 
HETATM   20  C   UNL     1      43.055 -17.633   5.412  1.00  0.00     0.012 A 
HETATM   21  C   UNL     1      42.867 -16.564   1.867  1.00  0.00     0.013 A 
HETATM   22  C   UNL     1      44.104 -18.388   2.944  1.00  0.00     0.012 A 
HETATM   23  C   UNL     1      42.007 -15.466   1.955  1.00  0.00     0.009 A 
HETATM   24  C   UNL     1      44.455 -19.093   4.097  1.00  0.00     0.001 A 
HETATM   25  C   UNL     1      43.931 -18.716   5.330  1.00  0.00     0.001 A 
ENDBRANCH   8  16
TORSDOF 1
ENDMDL
MODEL 9
REMARK VINA RESULT:      -7.7      3.303      6.165
REMARK  1 active torsions:
REMARK  status: ('A' for Active; 'I' for Inactive)
REMARK    1  A    between atoms: C_8  and  C_9 
ROOT
HETATM    1  C   UNL     1      42.811 -14.621   3.993  1.00  0.00     0.073 C 
HETATM    2  C   UNL     1      41.623 -14.087   4.709  1.00  0.00     0.062 C 
HETATM    3  N   UNL     1      40.785 -14.936   5.312  1.00  0.00    -0.178 NA
HETATM    4  N   UNL     1      39.890 -14.139   5.903  1.00  0.00    -0.262 N 
HETATM    5  H   UNL     1      39.153 -14.572   6.448  1.00  0.00     0.191 HD
HETATM    6  C   UNL     1      40.039 -12.818   5.585  1.00  0.00     0.134 C 
HETATM    7  C   UNL     1      41.230 -12.719   4.887  1.00  0.00     0.032 C 
HETATM    8  C   UNL     1      42.027 -11.520   4.471  1.00  0.00     0.119 C 
HETATM    9  S   UNL     1      41.178  -9.986   3.997  1.00  0.00    -0.141 SA
HETATM   10  C   UNL     1      39.438 -10.495   3.945  1.00  0.00     0.136 C 
HETATM   11  C   UNL     1      38.664  -9.385   3.229  1.00  0.00     0.031 C 
HETATM   12  C   UNL     1      38.875 -10.699   5.354  1.00  0.00     0.236 C 
HETATM   13  O   UNL     1      38.117  -9.894   5.900  1.00  0.00    -0.272 OA
HETATM   14  N   UNL     1      39.126 -11.882   5.998  1.00  0.00    -0.311 N 
HETATM   15  H   UNL     1      38.513 -12.065   6.785  1.00  0.00     0.170 HD
ENDROOT
BRANCH   8  16
HETATM   16  C   UNL     1      42.999 -11.255   5.620  1.00  0.00    -0.039 A 
HETATM   17  C   UNL     1      42.596 -10.593   6.798  1.00  0.00     0.021 A 
HETATM   18  C   UNL     1      43.502 -10.309   7.834  1.00  0.00    -0.025 A 
HETATM   19  C   UNL     1      44.850 -10.699   7.699  1.00  0.00    -0.026 A 
HETATM   20  C   UNL     1      43.092  -9.633   8.995  1.00  0.00     0.012 A 
HETATM   21  C   UNL     1      45.255 -11.365   6.533  1.00  0.00     0.013 A 
HETATM   22  C   UNL     1      45.756 -10.402   8.732  1.00  0.00     0.012 A 
HETATM   23  C   UNL     1      44.345 -11.635   5.506  1.00  0.00     0.009 A 
HETATM   24  C   UNL     1      45.334  -9.728   9.879  1.00  0.00     0.001 A 
HETATM   25  C   UNL     1      44.003  -9.344  10.011  1.00  0.00     0.001 A 
ENDBRANCH   8  16
TORSDOF 1
ENDMDL
MODEL 10
REMARK VINA RESULT:      -7.5      2.884      3.956
REMARK  1 active torsions:
REMARK  status: ('A' for Active; 'I' for Inactive)
REMARK    1  A    between atoms: C_8  and  C_9 
ROOT
HETATM    1  C   UNL     1      41.282 -10.015   1.615  1.00  0.00     0.073 C 
HETATM    2  C   UNL     1      40.225 -10.185   2.646  1.00  0.00     0.062 C 
HETATM    3  N   UNL     1      38.946  -9.983   2.313  1.00  0.00    -0.178 NA
HETATM    4  N   UNL     1      38.273 -10.282   3.429  1.00  0.00    -0.262 N 
HETATM    5  H   UNL     1      37.262 -10.218   3.406  1.00  0.00     0.191 HD
HETATM    6  C   UNL     1      39.079 -10.532   4.504  1.00  0.00     0.134 C 
HETATM    7  C   UNL     1      40.373 -10.584   4.016  1.00  0.00     0.032 C 
HETATM    8  C   UNL     1      41.648 -11.033   4.663  1.00  0.00     0.119 C 
HETATM    9  S   UNL     1      41.920 -10.737   6.434  1.00  0.00    -0.141 SA
HETATM   10  C   UNL     1      40.519  -9.674   6.879  1.00  0.00     0.136 C 
HETATM   11  C   UNL     1      40.822  -9.079   8.257  1.00  0.00     0.031 C 
HETATM   12  C   UNL     1      39.211 -10.468   6.928  1.00  0.00     0.236 C 
HETATM   13  O   UNL     1      38.665 -10.800   7.982  1.00  0.00    -0.272 OA
HETATM   14  N   UNL     1      38.551 -10.723   5.755  1.00  0.00    -0.311 N 
HETATM   15  H   UNL     1      37.583 -10.998   5.874  1.00  0.00     0.170 HD
ENDROOT
BRANCH   8  16
HETATM   16  C   UNL     1      41.764 -12.524   4.351  1.00  0.00    -0.039 A 
HETATM   17  C   UNL     1      42.526 -13.001   3.265  1.00  0.00     0.021 A 
HETATM   18  C   UNL     1      42.594 -14.368   2.951  1.00  0.00    -0.025 A 
HETATM   19  C   UNL     1      41.886 -15.295   3.744  1.00  0.00    -0.026 A 
HETATM   20  C   UNL     1      43.342 -14.828   1.855  1.00  0.00     0.012 A 
HETATM   21  C   UNL     1      41.133 -14.828   4.831  1.00  0.00     0.013 A 
HETATM   22  C   UNL     1      41.946 -16.660   3.420  1.00  0.00     0.012 A 
HETATM   23  C   UNL     1      41.068 -13.463   5.128  1.00  0.00     0.009 A 
HETATM   24  C   UNL     1      42.693 -17.103   2.326  1.00  0.00     0.001 A 
HETATM   25  C   UNL     1      43.391 -16.187   1.544  1.00  0.00     0.001 A 
ENDBRANCH   8  16
TORSDOF 1
ENDMDL
