MODEL 1
REMARK VINA RESULT:      -9.1      0.000      0.000
REMARK  6 active torsions:
REMARK  status: ('A' for Active; 'I' for Inactive)
REMARK    1  A    between atoms: C_4  and  C_5 
REMARK    2  A    between atoms: C_5  and  O_6 
REMARK    3  A    between atoms: O_6  and  C_7 
REMARK    4  A    between atoms: C_10  and  C_11 
REMARK    5  A    between atoms: C_17  and  C_18 
REMARK    6  A    between atoms: C_27  and  N_28 
ROOT
HETATM    1  C   UNL     1      40.549 -12.854   5.952  1.00  0.00     0.072 A 
HETATM    2  N   UNL     1      39.525 -12.459   6.786  1.00  0.00    -0.274 N 
HETATM    3  H   UNL     1      39.260 -12.868   7.677  1.00  0.00     0.189 HD
HETATM    4  N   UNL     1      38.815 -11.408   6.325  1.00  0.00    -0.148 NA
HETATM    5  C   UNL     1      39.421 -11.140   5.174  1.00  0.00     0.199 A 
HETATM    6  C   UNL     1      40.489 -11.987   4.874  1.00  0.00     0.040 A 
HETATM    7  C   UNL     1      41.252 -11.832   3.604  1.00  0.00     0.107 A 
HETATM    8  C   UNL     1      40.703 -10.672   2.779  1.00  0.00     0.081 A 
HETATM    9  C   UNL     1      41.389 -10.372   1.565  1.00  0.00     0.100 C 
HETATM   10  N   UNL     1      41.947 -10.133   0.577  1.00  0.00    -0.191 NA
HETATM   11  C   UNL     1      39.649  -9.912   3.181  1.00  0.00     0.140 A 
HETATM   12  O   UNL     1      38.976 -10.144   4.388  1.00  0.00    -0.277 OA
ENDROOT
BRANCH   7  13
HETATM   13  C   UNL     1      41.180 -13.170   2.895  1.00  0.00    -0.027 A 
HETATM   14  C   UNL     1      39.943 -13.675   2.492  1.00  0.00     0.124 A 
HETATM   15  N   UNL     1      39.767 -14.848   1.844  1.00  0.00    -0.273 NA
HETATM   16  C   UNL     1      40.877 -15.569   1.585  1.00  0.00     0.116 A 
HETATM   17  C   UNL     1      42.153 -15.173   1.949  1.00  0.00     0.020 A 
HETATM   18  C   UNL     1      42.304 -13.960   2.615  1.00  0.00     0.011 A 
ENDBRANCH   7  13
BRANCH  11  19
HETATM   19  N   UNL     1      39.127  -8.847   2.479  1.00  0.00    -0.282 NA
HETATM   20  H   UNL     1      38.618  -8.157   3.025  1.00  0.00     0.126 HD
HETATM   21  H   UNL     1      39.810  -8.435   1.847  1.00  0.00     0.126 HD
ENDBRANCH  11  19
BRANCH   1  22
HETATM   22  C   UNL     1      41.395 -14.009   6.204  1.00  0.00    -0.007 A 
HETATM   23  C   UNL     1      40.869 -15.303   6.099  1.00  0.00     0.016 A 
HETATM   24  C   UNL     1      41.709 -16.412   6.188  1.00  0.00     0.037 A 
HETATM   25  C   UNL     1      43.080 -16.232   6.362  1.00  0.00     0.069 A 
HETATM   26  C   UNL     1      43.604 -14.953   6.544  1.00  0.00     0.037 A 
HETATM   27  C   UNL     1      42.761 -13.842   6.461  1.00  0.00     0.016 A 
BRANCH  25  28
HETATM   28  O   UNL     1      43.852 -17.360   6.353  1.00  0.00    -0.347 OA
BRANCH  28  29
HETATM   29  C   UNL     1      44.705 -17.434   5.202  1.00  0.00     0.214 C 
BRANCH  29  30
HETATM   30  C   UNL     1      44.208 -18.521   4.279  1.00  0.00    -0.034 A 
HETATM   31  C   UNL     1      43.708 -18.195   3.008  1.00  0.00     0.009 A 
HETATM   32  C   UNL     1      43.291 -19.196   2.131  1.00  0.00     0.001 A 
HETATM   33  C   UNL     1      43.375 -20.534   2.511  1.00  0.00     0.000 A 
HETATM   34  C   UNL     1      43.877 -20.871   3.767  1.00  0.00     0.001 A 
HETATM   35  C   UNL     1      44.294 -19.870   4.647  1.00  0.00     0.009 A 
ENDBRANCH  29  30
ENDBRANCH  28  29
ENDBRANCH  25  28
ENDBRANCH   1  22
TORSDOF 6
ENDMDL
MODEL 2
REMARK VINA RESULT:      -8.9      3.396      5.424
REMARK  6 active torsions:
REMARK  status: ('A' for Active; 'I' for Inactive)
REMARK    1  A    between atoms: C_4  and  C_5 
REMARK    2  A    between atoms: C_5  and  O_6 
REMARK    3  A    between atoms: O_6  and  C_7 
REMARK    4  A    between atoms: C_10  and  C_11 
REMARK    5  A    between atoms: C_17  and  C_18 
REMARK    6  A    between atoms: C_27  and  N_28 
ROOT
HETATM    1  C   UNL     1      40.220 -13.610  -0.963  1.00  0.00     0.072 A 
HETATM    2  N   UNL     1      40.894 -13.872  -2.137  1.00  0.00    -0.274 N 
HETATM    3  H   UNL     1      41.659 -14.523  -2.279  1.00  0.00     0.189 HD
HETATM    4  N   UNL     1      40.455 -13.155  -3.193  1.00  0.00    -0.148 NA
HETATM    5  C   UNL     1      39.478 -12.432  -2.659  1.00  0.00     0.199 A 
HETATM    6  C   UNL     1      39.277 -12.651  -1.296  1.00  0.00     0.040 A 
HETATM    7  C   UNL     1      38.236 -11.895  -0.547  1.00  0.00     0.107 A 
HETATM    8  C   UNL     1      37.492 -10.936  -1.470  1.00  0.00     0.081 A 
HETATM    9  C   UNL     1      36.419 -10.195  -0.891  1.00  0.00     0.100 C 
HETATM   10  N   UNL     1      35.550  -9.593  -0.416  1.00  0.00    -0.191 NA
HETATM   11  C   UNL     1      37.779 -10.811  -2.793  1.00  0.00     0.140 A 
HETATM   12  O   UNL     1      38.795 -11.553  -3.412  1.00  0.00    -0.277 OA
ENDROOT
BRANCH   7  13
HETATM   13  C   UNL     1      38.950 -11.205   0.600  1.00  0.00    -0.027 A 
HETATM   14  C   UNL     1      39.914 -10.233   0.332  1.00  0.00     0.124 A 
HETATM   15  N   UNL     1      40.599  -9.550   1.276  1.00  0.00    -0.273 NA
HETATM   16  C   UNL     1      40.321  -9.849   2.561  1.00  0.00     0.116 A 
HETATM   17  C   UNL     1      39.393 -10.802   2.944  1.00  0.00     0.020 A 
HETATM   18  C   UNL     1      38.702 -11.491   1.950  1.00  0.00     0.011 A 
ENDBRANCH   7  13
BRANCH  11  19
HETATM   19  N   UNL     1      37.127  -9.970  -3.670  1.00  0.00    -0.282 NA
HETATM   20  H   UNL     1      36.559 -10.420  -4.383  1.00  0.00     0.126 HD
HETATM   21  H   UNL     1      36.643  -9.216  -3.187  1.00  0.00     0.126 HD
ENDBRANCH  11  19
BRANCH   1  22
HETATM   22  C   UNL     1      40.569 -14.205   0.317  1.00  0.00    -0.007 A 
HETATM   23  C   UNL     1      39.904 -15.355   0.763  1.00  0.00     0.016 A 
HETATM   24  C   UNL     1      40.338 -16.015   1.912  1.00  0.00     0.037 A 
HETATM   25  C   UNL     1      41.449 -15.542   2.606  1.00  0.00     0.069 A 
HETATM   26  C   UNL     1      42.071 -14.357   2.216  1.00  0.00     0.037 A 
HETATM   27  C   UNL     1      41.632 -13.692   1.068  1.00  0.00     0.016 A 
BRANCH  25  28
HETATM   28  O   UNL     1      41.870 -16.289   3.671  1.00  0.00    -0.347 OA
BRANCH  28  29
HETATM   29  C   UNL     1      43.278 -16.559   3.632  1.00  0.00     0.214 C 
BRANCH  29  30
HETATM   30  C   UNL     1      43.498 -18.046   3.479  1.00  0.00    -0.034 A 
HETATM   31  C   UNL     1      43.989 -18.801   4.556  1.00  0.00     0.009 A 
HETATM   32  C   UNL     1      44.151 -20.182   4.438  1.00  0.00     0.001 A 
HETATM   33  C   UNL     1      43.817 -20.824   3.247  1.00  0.00     0.000 A 
HETATM   34  C   UNL     1      43.321 -20.086   2.174  1.00  0.00     0.001 A 
HETATM   35  C   UNL     1      43.160 -18.703   2.289  1.00  0.00     0.009 A 
ENDBRANCH  29  30
ENDBRANCH  28  29
ENDBRANCH  25  28
ENDBRANCH   1  22
TORSDOF 6
ENDMDL
MODEL 3
REMARK VINA RESULT:      -8.8      1.837      4.411
REMARK  6 active torsions:
REMARK  status: ('A' for Active; 'I' for Inactive)
REMARK    1  A    between atoms: C_4  and  C_5 
REMARK    2  A    between atoms: C_5  and  O_6 
REMARK    3  A    between atoms: O_6  and  C_7 
REMARK    4  A    between atoms: C_10  and  C_11 
REMARK    5  A    between atoms: C_17  and  C_18 
REMARK    6  A    between atoms: C_27  and  N_28 
ROOT
HETATM    1  C   UNL     1      40.348 -13.733   1.142  1.00  0.00     0.072 A 
HETATM    2  N   UNL     1      39.927 -13.481  -0.147  1.00  0.00    -0.274 N 
HETATM    3  H   UNL     1      40.142 -14.014  -0.983  1.00  0.00     0.189 HD
HETATM    4  N   UNL     1      39.147 -12.386  -0.265  1.00  0.00    -0.148 NA
HETATM    5  C   UNL     1      39.076 -11.951   0.987  1.00  0.00     0.199 A 
HETATM    6  C   UNL     1      39.792 -12.721   1.906  1.00  0.00     0.040 A 
HETATM    7  C   UNL     1      39.834 -12.345   3.346  1.00  0.00     0.107 A 
HETATM    8  C   UNL     1      39.014 -11.085   3.603  1.00  0.00     0.081 A 
HETATM    9  C   UNL     1      38.915 -10.653   4.959  1.00  0.00     0.100 C 
HETATM   10  N   UNL     1      38.841 -10.303   6.062  1.00  0.00    -0.191 NA
HETATM   11  C   UNL     1      38.354 -10.419   2.619  1.00  0.00     0.140 A 
HETATM   12  O   UNL     1      38.386 -10.836   1.281  1.00  0.00    -0.277 OA
ENDROOT
BRANCH   7  13
HETATM   13  C   UNL     1      41.300 -12.201   3.708  1.00  0.00    -0.027 A 
HETATM   14  C   UNL     1      42.085 -11.251   3.054  1.00  0.00     0.124 A 
HETATM   15  N   UNL     1      43.394 -11.031   3.306  1.00  0.00    -0.273 NA
HETATM   16  C   UNL     1      43.965 -11.799   4.256  1.00  0.00     0.116 A 
HETATM   17  C   UNL     1      43.287 -12.779   4.962  1.00  0.00     0.020 A 
HETATM   18  C   UNL     1      41.938 -12.983   4.680  1.00  0.00     0.011 A 
ENDBRANCH   7  13
BRANCH  11  19
HETATM   19  N   UNL     1      37.589  -9.287   2.803  1.00  0.00    -0.282 NA
HETATM   20  H   UNL     1      36.581  -9.422   2.799  1.00  0.00     0.126 HD
HETATM   21  H   UNL     1      37.917  -8.729   3.589  1.00  0.00     0.126 HD
ENDBRANCH  11  19
BRANCH   1  22
HETATM   22  C   UNL     1      41.258 -14.810   1.497  1.00  0.00    -0.007 A 
HETATM   23  C   UNL     1      42.641 -14.590   1.498  1.00  0.00     0.016 A 
HETATM   24  C   UNL     1      43.507 -15.569   1.984  1.00  0.00     0.037 A 
HETATM   25  C   UNL     1      42.993 -16.761   2.490  1.00  0.00     0.069 A 
HETATM   26  C   UNL     1      41.625 -17.021   2.425  1.00  0.00     0.037 A 
HETATM   27  C   UNL     1      40.758 -16.043   1.932  1.00  0.00     0.016 A 
BRANCH  25  28
HETATM   28  O   UNL     1      43.894 -17.637   3.030  1.00  0.00    -0.347 OA
BRANCH  28  29
HETATM   29  C   UNL     1      43.401 -18.270   4.219  1.00  0.00     0.214 C 
BRANCH  29  30
HETATM   30  C   UNL     1      43.355 -17.261   5.342  1.00  0.00    -0.034 A 
HETATM   31  C   UNL     1      42.131 -16.932   5.945  1.00  0.00     0.009 A 
HETATM   32  C   UNL     1      42.084 -16.036   7.014  1.00  0.00     0.001 A 
HETATM   33  C   UNL     1      43.260 -15.465   7.496  1.00  0.00     0.000 A 
HETATM   34  C   UNL     1      44.483 -15.790   6.910  1.00  0.00     0.001 A 
HETATM   35  C   UNL     1      44.531 -16.685   5.839  1.00  0.00     0.009 A 
ENDBRANCH  29  30
ENDBRANCH  28  29
ENDBRANCH  25  28
ENDBRANCH   1  22
TORSDOF 6
ENDMDL
MODEL 4
REMARK VINA RESULT:      -8.7      4.091      7.286
REMARK  6 active torsions:
REMARK  status: ('A' for Active; 'I' for Inactive)
REMARK    1  A    between atoms: C_4  and  C_5 
REMARK    2  A    between atoms: C_5  and  O_6 
REMARK    3  A    between atoms: O_6  and  C_7 
REMARK    4  A    between atoms: C_10  and  C_11 
REMARK    5  A    between atoms: C_17  and  C_18 
REMARK    6  A    between atoms: C_27  and  N_28 
ROOT
HETATM    1  C   UNL     1      43.080 -11.478   4.168  1.00  0.00     0.072 A 
HETATM    2  N   UNL     1      42.516 -10.372   3.568  1.00  0.00    -0.274 N 
HETATM    3  H   UNL     1      42.521  -9.415   3.906  1.00  0.00     0.189 HD
HETATM    4  N   UNL     1      41.893 -10.638   2.401  1.00  0.00    -0.148 NA
HETATM    5  C   UNL     1      42.081 -11.946   2.272  1.00  0.00     0.199 A 
HETATM    6  C   UNL     1      42.795 -12.533   3.318  1.00  0.00     0.040 A 
HETATM    7  C   UNL     1      43.062 -13.997   3.331  1.00  0.00     0.107 A 
HETATM    8  C   UNL     1      42.474 -14.668   2.094  1.00  0.00     0.081 A 
HETATM    9  C   UNL     1      42.718 -16.066   1.949  1.00  0.00     0.100 C 
HETATM   10  N   UNL     1      42.915 -17.204   1.837  1.00  0.00    -0.191 NA
HETATM   11  C   UNL     1      41.794 -13.985   1.135  1.00  0.00     0.140 A 
HETATM   12  O   UNL     1      41.572 -12.603   1.215  1.00  0.00    -0.277 OA
ENDROOT
BRANCH   7  13
HETATM   13  C   UNL     1      42.495 -14.524   4.636  1.00  0.00    -0.027 A 
HETATM   14  C   UNL     1      41.119 -14.485   4.860  1.00  0.00     0.124 A 
HETATM   15  N   UNL     1      40.510 -14.937   5.978  1.00  0.00    -0.273 NA
HETATM   16  C   UNL     1      41.307 -15.453   6.936  1.00  0.00     0.116 A 
HETATM   17  C   UNL     1      42.685 -15.531   6.827  1.00  0.00     0.020 A 
HETATM   18  C   UNL     1      43.286 -15.057   5.664  1.00  0.00     0.011 A 
ENDBRANCH   7  13
BRANCH  11  19
HETATM   19  N   UNL     1      41.258 -14.543  -0.006  1.00  0.00    -0.282 NA
HETATM   20  H   UNL     1      41.706 -15.392  -0.342  1.00  0.00     0.126 HD
HETATM   21  H   UNL     1      40.244 -14.618   0.046  1.00  0.00     0.126 HD
ENDBRANCH  11  19
BRANCH   1  22
HETATM   22  C   UNL     1      43.734 -11.446   5.466  1.00  0.00    -0.007 A 
HETATM   23  C   UNL     1      45.130 -11.364   5.549  1.00  0.00     0.016 A 
HETATM   24  C   UNL     1      45.750 -11.179   6.784  1.00  0.00     0.037 A 
HETATM   25  C   UNL     1      44.978 -11.052   7.936  1.00  0.00     0.069 A 
HETATM   26  C   UNL     1      43.593 -11.207   7.877  1.00  0.00     0.037 A 
HETATM   27  C   UNL     1      42.973 -11.400   6.640  1.00  0.00     0.016 A 
BRANCH  25  28
HETATM   28  O   UNL     1      45.649 -10.785   9.097  1.00  0.00    -0.347 OA
BRANCH  28  29
HETATM   29  C   UNL     1      45.387  -9.464   9.593  1.00  0.00     0.214 C 
BRANCH  29  30
HETATM   30  C   UNL     1      44.414  -9.546  10.746  1.00  0.00    -0.034 A 
HETATM   31  C   UNL     1      43.702  -8.406  11.151  1.00  0.00     0.009 A 
HETATM   32  C   UNL     1      42.767  -8.483  12.184  1.00  0.00     0.001 A 
HETATM   33  C   UNL     1      42.529  -9.700  12.818  1.00  0.00     0.000 A 
HETATM   34  C   UNL     1      43.224 -10.841  12.420  1.00  0.00     0.001 A 
HETATM   35  C   UNL     1      44.162 -10.766  11.387  1.00  0.00     0.009 A 
ENDBRANCH  29  30
ENDBRANCH  28  29
ENDBRANCH  25  28
ENDBRANCH   1  22
TORSDOF 6
ENDMDL
MODEL 5
REMARK VINA RESULT:      -8.7      1.824      4.088
REMARK  6 active torsions:
REMARK  status: ('A' for Active; 'I' for Inactive)
REMARK    1  A    between atoms: C_4  and  C_5 
REMARK    2  A    between atoms: C_5  and  O_6 
REMARK    3  A    between atoms: O_6  and  C_7 
REMARK    4  A    between atoms: C_10  and  C_11 
REMARK    5  A    between atoms: C_17  and  C_18 
REMARK    6  A    between atoms: C_27  and  N_28 
ROOT
HETATM    1  C   UNL     1      39.871 -12.346   2.006  1.00  0.00     0.072 A 
HETATM    2  N   UNL     1      39.512 -11.553   0.937  1.00  0.00    -0.274 N 
HETATM    3  H   UNL     1      39.665 -11.738  -0.049  1.00  0.00     0.189 HD
HETATM    4  N   UNL     1      38.893 -10.407   1.288  1.00  0.00    -0.148 NA
HETATM    5  C   UNL     1      38.862 -10.495   2.613  1.00  0.00     0.199 A 
HETATM    6  C   UNL     1      39.447 -11.653   3.128  1.00  0.00     0.040 A 
HETATM    7  C   UNL     1      39.516 -11.884   4.597  1.00  0.00     0.107 A 
HETATM    8  C   UNL     1      38.874 -10.729   5.359  1.00  0.00     0.081 A 
HETATM    9  C   UNL     1      38.812 -10.857   6.778  1.00  0.00     0.100 C 
HETATM   10  N   UNL     1      38.768 -10.963   7.932  1.00  0.00    -0.191 NA
HETATM   11  C   UNL     1      38.330  -9.647   4.741  1.00  0.00     0.140 A 
HETATM   12  O   UNL     1      38.328  -9.503   3.347  1.00  0.00    -0.277 OA
ENDROOT
BRANCH   7  13
HETATM   13  C   UNL     1      40.981 -12.092   4.929  1.00  0.00    -0.027 A 
HETATM   14  C   UNL     1      41.893 -11.057   4.718  1.00  0.00     0.124 A 
HETATM   15  N   UNL     1      43.215 -11.131   4.991  1.00  0.00    -0.273 NA
HETATM   16  C   UNL     1      43.665 -12.298   5.495  1.00  0.00     0.116 A 
HETATM   17  C   UNL     1      42.854 -13.395   5.735  1.00  0.00     0.020 A 
HETATM   18  C   UNL     1      41.496 -13.290   5.444  1.00  0.00     0.011 A 
ENDBRANCH   7  13
BRANCH  11  19
HETATM   19  N   UNL     1      37.727  -8.587   5.384  1.00  0.00    -0.282 NA
HETATM   20  H   UNL     1      38.324  -7.792   5.593  1.00  0.00     0.126 HD
HETATM   21  H   UNL     1      36.847  -8.325   4.946  1.00  0.00     0.126 HD
ENDBRANCH  11  19
BRANCH   1  22
HETATM   22  C   UNL     1      40.617 -13.588   1.875  1.00  0.00    -0.007 A 
HETATM   23  C   UNL     1      42.014 -13.562   1.777  1.00  0.00     0.016 A 
HETATM   24  C   UNL     1      42.741 -14.751   1.806  1.00  0.00     0.037 A 
HETATM   25  C   UNL     1      42.078 -15.967   1.955  1.00  0.00     0.069 A 
HETATM   26  C   UNL     1      40.684 -16.011   1.977  1.00  0.00     0.037 A 
HETATM   27  C   UNL     1      39.956 -14.820   1.941  1.00  0.00     0.016 A 
BRANCH  25  28
HETATM   28  O   UNL     1      42.861 -17.083   2.063  1.00  0.00    -0.347 OA
BRANCH  28  29
HETATM   29  C   UNL     1      43.664 -17.079   3.252  1.00  0.00     0.214 C 
BRANCH  29  30
HETATM   30  C   UNL     1      43.792 -18.490   3.774  1.00  0.00    -0.034 A 
HETATM   31  C   UNL     1      43.905 -18.725   5.154  1.00  0.00     0.009 A 
HETATM   32  C   UNL     1      43.977 -20.028   5.649  1.00  0.00     0.001 A 
HETATM   33  C   UNL     1      43.930 -21.109   4.772  1.00  0.00     0.000 A 
HETATM   34  C   UNL     1      43.810 -20.890   3.400  1.00  0.00     0.001 A 
HETATM   35  C   UNL     1      43.740 -19.586   2.903  1.00  0.00     0.009 A 
ENDBRANCH  29  30
ENDBRANCH  28  29
ENDBRANCH  25  28
ENDBRANCH   1  22
TORSDOF 6
ENDMDL
MODEL 6
REMARK VINA RESULT:      -8.7      2.383      4.278
REMARK  6 active torsions:
REMARK  status: ('A' for Active; 'I' for Inactive)
REMARK    1  A    between atoms: C_4  and  C_5 
REMARK    2  A    between atoms: C_5  and  O_6 
REMARK    3  A    between atoms: O_6  and  C_7 
REMARK    4  A    between atoms: C_10  and  C_11 
REMARK    5  A    between atoms: C_17  and  C_18 
REMARK    6  A    between atoms: C_27  and  N_28 
ROOT
HETATM    1  C   UNL     1      40.348 -14.096   0.464  1.00  0.00     0.072 A 
HETATM    2  N   UNL     1      40.496 -14.426  -0.866  1.00  0.00    -0.274 N 
HETATM    3  H   UNL     1      40.947 -15.248  -1.254  1.00  0.00     0.189 HD
HETATM    4  N   UNL     1      39.968 -13.521  -1.717  1.00  0.00    -0.148 NA
HETATM    5  C   UNL     1      39.474 -12.607  -0.890  1.00  0.00     0.199 A 
HETATM    6  C   UNL     1      39.673 -12.886   0.463  1.00  0.00     0.040 A 
HETATM    7  C   UNL     1      39.202 -11.942   1.513  1.00  0.00     0.107 A 
HETATM    8  C   UNL     1      38.514 -10.733   0.888  1.00  0.00     0.081 A 
HETATM    9  C   UNL     1      37.955  -9.780   1.790  1.00  0.00     0.100 C 
HETATM   10  N   UNL     1      37.504  -9.006   2.527  1.00  0.00    -0.191 NA
HETATM   11  C   UNL     1      38.378 -10.572  -0.455  1.00  0.00     0.140 A 
HETATM   12  O   UNL     1      38.873 -11.507  -1.375  1.00  0.00    -0.277 OA
ENDROOT
BRANCH   7  13
HETATM   13  C   UNL     1      40.419 -11.587   2.346  1.00  0.00    -0.027 A 
HETATM   14  C   UNL     1      41.510 -10.958   1.746  1.00  0.00     0.124 A 
HETATM   15  N   UNL     1      42.636 -10.588   2.395  1.00  0.00    -0.273 NA
HETATM   16  C   UNL     1      42.691 -10.860   3.715  1.00  0.00     0.116 A 
HETATM   17  C   UNL     1      41.674 -11.489   4.412  1.00  0.00     0.020 A 
HETATM   18  C   UNL     1      40.526 -11.860   3.717  1.00  0.00     0.011 A 
ENDBRANCH   7  13
BRANCH  11  19
HETATM   19  N   UNL     1      37.753  -9.506  -1.066  1.00  0.00    -0.282 NA
HETATM   20  H   UNL     1      38.325  -8.679  -1.218  1.00  0.00     0.126 HD
HETATM   21  H   UNL     1      37.232  -9.791  -1.892  1.00  0.00     0.126 HD
ENDBRANCH  11  19
BRANCH   1  22
HETATM   22  C   UNL     1      40.904 -14.879   1.556  1.00  0.00    -0.007 A 
HETATM   23  C   UNL     1      42.278 -14.834   1.826  1.00  0.00     0.016 A 
HETATM   24  C   UNL     1      42.791 -15.460   2.961  1.00  0.00     0.037 A 
HETATM   25  C   UNL     1      41.931 -16.113   3.842  1.00  0.00     0.069 A 
HETATM   26  C   UNL     1      40.574 -16.230   3.544  1.00  0.00     0.037 A 
HETATM   27  C   UNL     1      40.062 -15.609   2.403  1.00  0.00     0.016 A 
BRANCH  25  28
HETATM   28  O   UNL     1      42.493 -16.627   4.977  1.00  0.00    -0.347 OA
BRANCH  28  29
HETATM   29  C   UNL     1      43.857 -17.027   4.785  1.00  0.00     0.214 C 
BRANCH  29  30
HETATM   30  C   UNL     1      43.902 -18.487   4.400  1.00  0.00    -0.034 A 
HETATM   31  C   UNL     1      43.982 -19.476   5.392  1.00  0.00     0.009 A 
HETATM   32  C   UNL     1      43.977 -20.829   5.048  1.00  0.00     0.001 A 
HETATM   33  C   UNL     1      43.884 -21.207   3.710  1.00  0.00     0.000 A 
HETATM   34  C   UNL     1      43.796 -20.233   2.716  1.00  0.00     0.001 A 
HETATM   35  C   UNL     1      43.803 -18.879   3.058  1.00  0.00     0.009 A 
ENDBRANCH  29  30
ENDBRANCH  28  29
ENDBRANCH  25  28
ENDBRANCH   1  22
TORSDOF 6
ENDMDL
MODEL 7
REMARK VINA RESULT:      -8.4      1.805      3.373
REMARK  6 active torsions:
REMARK  status: ('A' for Active; 'I' for Inactive)
REMARK    1  A    between atoms: C_4  and  C_5 
REMARK    2  A    between atoms: C_5  and  O_6 
REMARK    3  A    between atoms: O_6  and  C_7 
REMARK    4  A    between atoms: C_10  and  C_11 
REMARK    5  A    between atoms: C_17  and  C_18 
REMARK    6  A    between atoms: C_27  and  N_28 
ROOT
HETATM    1  C   UNL     1      40.272 -13.785   2.894  1.00  0.00     0.072 A 
HETATM    2  N   UNL     1      40.142 -14.093   1.556  1.00  0.00    -0.274 N 
HETATM    3  H   UNL     1      40.506 -14.907   1.071  1.00  0.00     0.189 HD
HETATM    4  N   UNL     1      39.448 -13.178   0.847  1.00  0.00    -0.148 NA
HETATM    5  C   UNL     1      39.134 -12.280   1.773  1.00  0.00     0.199 A 
HETATM    6  C   UNL     1      39.609 -12.580   3.052  1.00  0.00     0.040 A 
HETATM    7  C   UNL     1      39.364 -11.655   4.192  1.00  0.00     0.107 A 
HETATM    8  C   UNL     1      38.559 -10.440   3.743  1.00  0.00     0.081 A 
HETATM    9  C   UNL     1      38.196  -9.504   4.756  1.00  0.00     0.100 C 
HETATM   10  N   UNL     1      37.906  -8.744   5.583  1.00  0.00    -0.191 NA
HETATM   11  C   UNL     1      38.148 -10.258   2.459  1.00  0.00     0.140 A 
HETATM   12  O   UNL     1      38.444 -11.176   1.442  1.00  0.00    -0.277 OA
ENDROOT
BRANCH   7  13
HETATM   13  C   UNL     1      40.725 -11.306   4.762  1.00  0.00    -0.027 A 
HETATM   14  C   UNL     1      41.679 -10.692   3.950  1.00  0.00     0.124 A 
HETATM   15  N   UNL     1      42.916 -10.329   4.358  1.00  0.00    -0.273 NA
HETATM   16  C   UNL     1      43.232 -10.593   5.641  1.00  0.00     0.116 A 
HETATM   17  C   UNL     1      42.370 -11.208   6.534  1.00  0.00     0.020 A 
HETATM   18  C   UNL     1      41.102 -11.572   6.085  1.00  0.00     0.011 A 
ENDBRANCH   7  13
BRANCH  11  19
HETATM   19  N   UNL     1      37.408  -9.186   2.008  1.00  0.00    -0.282 NA
HETATM   20  H   UNL     1      37.319  -8.402   2.650  1.00  0.00     0.126 HD
HETATM   21  H   UNL     1      37.677  -8.906   1.067  1.00  0.00     0.126 HD
ENDBRANCH  11  19
BRANCH   1  22
HETATM   22  C   UNL     1      41.043 -14.583   3.834  1.00  0.00    -0.007 A 
HETATM   23  C   UNL     1      40.448 -15.669   4.488  1.00  0.00     0.016 A 
HETATM   24  C   UNL     1      41.220 -16.526   5.270  1.00  0.00     0.037 A 
HETATM   25  C   UNL     1      42.593 -16.315   5.383  1.00  0.00     0.069 A 
HETATM   26  C   UNL     1      43.183 -15.196   4.799  1.00  0.00     0.037 A 
HETATM   27  C   UNL     1      42.407 -14.333   4.021  1.00  0.00     0.016 A 
BRANCH  25  28
HETATM   28  O   UNL     1      43.300 -17.246   6.094  1.00  0.00    -0.347 OA
BRANCH  28  29
HETATM   29  C   UNL     1      44.483 -17.679   5.408  1.00  0.00     0.214 C 
BRANCH  29  30
HETATM   30  C   UNL     1      44.109 -18.706   4.365  1.00  0.00    -0.034 A 
HETATM   31  C   UNL     1      43.759 -18.299   3.068  1.00  0.00     0.009 A 
HETATM   32  C   UNL     1      43.457 -19.242   2.084  1.00  0.00     0.001 A 
HETATM   33  C   UNL     1      43.510 -20.602   2.385  1.00  0.00     0.000 A 
HETATM   34  C   UNL     1      43.864 -21.019   3.667  1.00  0.00     0.001 A 
HETATM   35  C   UNL     1      44.164 -20.076   4.653  1.00  0.00     0.009 A 
ENDBRANCH  29  30
ENDBRANCH  28  29
ENDBRANCH  25  28
ENDBRANCH   1  22
TORSDOF 6
ENDMDL
MODEL 8
REMARK VINA RESULT:      -8.2      3.099      4.544
REMARK  6 active torsions:
REMARK  status: ('A' for Active; 'I' for Inactive)
REMARK    1  A    between atoms: C_4  and  C_5 
REMARK    2  A    between atoms: C_5  and  O_6 
REMARK    3  A    between atoms: O_6  and  C_7 
REMARK    4  A    between atoms: C_10  and  C_11 
REMARK    5  A    between atoms: C_17  and  C_18 
REMARK    6  A    between atoms: C_27  and  N_28 
ROOT
HETATM    1  C   UNL     1      40.378 -11.830   1.356  1.00  0.00     0.072 A 
HETATM    2  N   UNL     1      39.890 -11.151   2.452  1.00  0.00    -0.274 N 
HETATM    3  H   UNL     1      39.784 -11.500   3.399  1.00  0.00     0.189 HD
HETATM    4  N   UNL     1      39.517  -9.881   2.189  1.00  0.00    -0.148 NA
HETATM    5  C   UNL     1      39.788  -9.768   0.894  1.00  0.00     0.199 A 
HETATM    6  C   UNL     1      40.312 -10.923   0.312  1.00  0.00     0.040 A 
HETATM    7  C   UNL     1      40.640 -10.963  -1.140  1.00  0.00     0.107 A 
HETATM    8  C   UNL     1      40.335  -9.624  -1.803  1.00  0.00     0.081 A 
HETATM    9  C   UNL     1      40.668  -9.506  -3.185  1.00  0.00     0.100 C 
HETATM   10  N   UNL     1      40.936  -9.415  -4.310  1.00  0.00    -0.191 NA
HETATM   11  C   UNL     1      39.823  -8.563  -1.125  1.00  0.00     0.140 A 
HETATM   12  O   UNL     1      39.525  -8.622   0.243  1.00  0.00    -0.277 OA
ENDROOT
BRANCH   7  13
HETATM   13  C   UNL     1      39.858 -12.124  -1.723  1.00  0.00    -0.027 A 
HETATM   14  C   UNL     1      40.529 -13.138  -2.408  1.00  0.00     0.124 A 
HETATM   15  N   UNL     1      39.933 -14.220  -2.955  1.00  0.00    -0.273 NA
HETATM   16  C   UNL     1      38.593 -14.303  -2.825  1.00  0.00     0.116 A 
HETATM   17  C   UNL     1      37.823 -13.352  -2.178  1.00  0.00     0.020 A 
HETATM   18  C   UNL     1      38.465 -12.247  -1.623  1.00  0.00     0.011 A 
ENDBRANCH   7  13
BRANCH  11  19
HETATM   19  N   UNL     1      39.544  -7.331  -1.676  1.00  0.00    -0.282 NA
HETATM   20  H   UNL     1      40.094  -6.550  -1.329  1.00  0.00     0.126 HD
HETATM   21  H   UNL     1      39.497  -7.369  -2.692  1.00  0.00     0.126 HD
ENDBRANCH  11  19
BRANCH   1  22
HETATM   22  C   UNL     1      40.766 -13.231   1.383  1.00  0.00    -0.007 A 
HETATM   23  C   UNL     1      42.100 -13.587   1.616  1.00  0.00     0.016 A 
HETATM   24  C   UNL     1      42.449 -14.925   1.795  1.00  0.00     0.037 A 
HETATM   25  C   UNL     1      41.464 -15.909   1.763  1.00  0.00     0.069 A 
HETATM   26  C   UNL     1      40.145 -15.576   1.457  1.00  0.00     0.037 A 
HETATM   27  C   UNL     1      39.797 -14.236   1.271  1.00  0.00     0.016 A 
BRANCH  25  28
HETATM   28  O   UNL     1      41.866 -17.188   2.033  1.00  0.00    -0.347 OA
BRANCH  28  29
HETATM   29  C   UNL     1      43.286 -17.293   2.208  1.00  0.00     0.214 C 
BRANCH  29  30
HETATM   30  C   UNL     1      43.598 -18.504   3.056  1.00  0.00    -0.034 A 
HETATM   31  C   UNL     1      43.849 -18.358   4.429  1.00  0.00     0.009 A 
HETATM   32  C   UNL     1      44.092 -19.476   5.229  1.00  0.00     0.001 A 
HETATM   33  C   UNL     1      44.078 -20.750   4.667  1.00  0.00     0.000 A 
HETATM   34  C   UNL     1      43.822 -20.909   3.305  1.00  0.00     0.001 A 
HETATM   35  C   UNL     1      43.581 -19.791   2.503  1.00  0.00     0.009 A 
ENDBRANCH  29  30
ENDBRANCH  28  29
ENDBRANCH  25  28
ENDBRANCH   1  22
TORSDOF 6
ENDMDL
MODEL 9
REMARK VINA RESULT:      -8.0     16.008     18.879
REMARK  6 active torsions:
REMARK  status: ('A' for Active; 'I' for Inactive)
REMARK    1  A    between atoms: C_4  and  C_5 
REMARK    2  A    between atoms: C_5  and  O_6 
REMARK    3  A    between atoms: O_6  and  C_7 
REMARK    4  A    between atoms: C_10  and  C_11 
REMARK    5  A    between atoms: C_17  and  C_18 
REMARK    6  A    between atoms: C_27  and  N_28 
ROOT
HETATM    1  C   UNL     1      47.950 -28.899   1.760  1.00  0.00     0.072 A 
HETATM    2  N   UNL     1      48.224 -27.992   2.761  1.00  0.00    -0.274 N 
HETATM    3  H   UNL     1      47.896 -27.034   2.836  1.00  0.00     0.189 HD
HETATM    4  N   UNL     1      49.029 -28.473   3.732  1.00  0.00    -0.148 NA
HETATM    5  C   UNL     1      49.255 -29.716   3.323  1.00  0.00     0.199 A 
HETATM    6  C   UNL     1      48.632 -30.049   2.119  1.00  0.00     0.040 A 
HETATM    7  C   UNL     1      48.813 -31.398   1.515  1.00  0.00     0.107 A 
HETATM    8  C   UNL     1      49.713 -32.267   2.387  1.00  0.00     0.081 A 
HETATM    9  C   UNL     1      49.914 -33.612   1.955  1.00  0.00     0.100 C 
HETATM   10  N   UNL     1      50.079 -34.703   1.598  1.00  0.00    -0.191 NA
HETATM   11  C   UNL     1      50.264 -31.828   3.549  1.00  0.00     0.140 A 
HETATM   12  O   UNL     1      50.055 -30.530   4.034  1.00  0.00    -0.277 OA
ENDROOT
BRANCH   7  13
HETATM   13  C   UNL     1      49.355 -31.171   0.117  1.00  0.00    -0.027 A 
HETATM   14  C   UNL     1      50.600 -30.565  -0.054  1.00  0.00     0.124 A 
HETATM   15  N   UNL     1      51.181 -30.327  -1.251  1.00  0.00    -0.273 NA
HETATM   16  C   UNL     1      50.490 -30.705  -2.345  1.00  0.00     0.116 A 
HETATM   17  C   UNL     1      49.242 -31.304  -2.296  1.00  0.00     0.020 A 
HETATM   18  C   UNL     1      48.668 -31.536  -1.049  1.00  0.00     0.011 A 
ENDBRANCH   7  13
BRANCH  11  19
HETATM   19  N   UNL     1      51.071 -32.579   4.377  1.00  0.00    -0.282 NA
HETATM   20  H   UNL     1      52.045 -32.662   4.098  1.00  0.00     0.126 HD
HETATM   21  H   UNL     1      50.953 -32.328   5.356  1.00  0.00     0.126 HD
ENDBRANCH  11  19
BRANCH   1  22
HETATM   22  C   UNL     1      47.170 -28.580   0.575  1.00  0.00    -0.007 A 
HETATM   23  C   UNL     1      47.792 -28.012  -0.544  1.00  0.00     0.016 A 
HETATM   24  C   UNL     1      47.083 -27.848  -1.734  1.00  0.00     0.037 A 
HETATM   25  C   UNL     1      45.758 -28.269  -1.815  1.00  0.00     0.069 A 
HETATM   26  C   UNL     1      45.106 -28.766  -0.687  1.00  0.00     0.037 A 
HETATM   27  C   UNL     1      45.815 -28.924   0.506  1.00  0.00     0.016 A 
BRANCH  25  28
HETATM   28  O   UNL     1      45.153 -28.157  -3.037  1.00  0.00    -0.347 OA
BRANCH  28  29
HETATM   29  C   UNL     1      44.164 -29.173  -3.257  1.00  0.00     0.214 C 
BRANCH  29  30
HETATM   30  C   UNL     1      44.667 -30.144  -4.299  1.00  0.00    -0.034 A 
HETATM   31  C   UNL     1      43.970 -30.308  -5.506  1.00  0.00     0.009 A 
HETATM   32  C   UNL     1      44.453 -31.168  -6.494  1.00  0.00     0.001 A 
HETATM   33  C   UNL     1      45.641 -31.867  -6.288  1.00  0.00     0.000 A 
HETATM   34  C   UNL     1      46.346 -31.706  -5.097  1.00  0.00     0.001 A 
HETATM   35  C   UNL     1      45.864 -30.848  -4.106  1.00  0.00     0.009 A 
ENDBRANCH  29  30
ENDBRANCH  28  29
ENDBRANCH  25  28
ENDBRANCH   1  22
TORSDOF 6
ENDMDL
MODEL 10
REMARK VINA RESULT:      -7.9      3.544      5.093
REMARK  6 active torsions:
REMARK  status: ('A' for Active; 'I' for Inactive)
REMARK    1  A    between atoms: C_4  and  C_5 
REMARK    2  A    between atoms: C_5  and  O_6 
REMARK    3  A    between atoms: O_6  and  C_7 
REMARK    4  A    between atoms: C_10  and  C_11 
REMARK    5  A    between atoms: C_17  and  C_18 
REMARK    6  A    between atoms: C_27  and  N_28 
ROOT
HETATM    1  C   UNL     1      43.184 -11.454   6.795  1.00  0.00     0.072 A 
HETATM    2  N   UNL     1      43.900 -12.002   7.838  1.00  0.00    -0.274 N 
HETATM    3  H   UNL     1      44.223 -12.959   7.932  1.00  0.00     0.189 HD
HETATM    4  N   UNL     1      44.178 -11.130   8.830  1.00  0.00    -0.148 NA
HETATM    5  C   UNL     1      43.623 -10.009   8.386  1.00  0.00     0.199 A 
HETATM    6  C   UNL     1      42.990 -10.129   7.148  1.00  0.00     0.040 A 
HETATM    7  C   UNL     1      42.297  -8.966   6.530  1.00  0.00     0.107 A 
HETATM    8  C   UNL     1      42.411  -7.731   7.417  1.00  0.00     0.081 A 
HETATM    9  C   UNL     1      41.844  -6.525   6.908  1.00  0.00     0.100 C 
HETATM   10  N   UNL     1      41.379  -5.547   6.493  1.00  0.00    -0.191 NA
HETATM   11  C   UNL     1      43.060  -7.736   8.612  1.00  0.00     0.140 A 
HETATM   12  O   UNL     1      43.670  -8.888   9.127  1.00  0.00    -0.277 OA
ENDROOT
BRANCH   7  13
HETATM   13  C   UNL     1      40.867  -9.404   6.278  1.00  0.00    -0.027 A 
HETATM   14  C   UNL     1      40.046  -9.744   7.354  1.00  0.00     0.124 A 
HETATM   15  N   UNL     1      38.757 -10.134   7.244  1.00  0.00    -0.273 NA
HETATM   16  C   UNL     1      38.249 -10.201   5.996  1.00  0.00     0.116 A 
HETATM   17  C   UNL     1      38.973  -9.899   4.855  1.00  0.00     0.020 A 
HETATM   18  C   UNL     1      40.300  -9.499   4.999  1.00  0.00     0.011 A 
ENDBRANCH   7  13
BRANCH  11  19
HETATM   19  N   UNL     1      43.202  -6.644   9.441  1.00  0.00    -0.282 NA
HETATM   20  H   UNL     1      43.382  -6.847  10.421  1.00  0.00     0.126 HD
HETATM   21  H   UNL     1      43.834  -5.949   9.052  1.00  0.00     0.126 HD
ENDBRANCH  11  19
BRANCH   1  22
HETATM   22  C   UNL     1      42.706 -12.220   5.655  1.00  0.00    -0.007 A 
HETATM   23  C   UNL     1      43.472 -12.293   4.485  1.00  0.00     0.016 A 
HETATM   24  C   UNL     1      43.093 -13.147   3.450  1.00  0.00     0.037 A 
HETATM   25  C   UNL     1      41.961 -13.947   3.590  1.00  0.00     0.069 A 
HETATM   26  C   UNL     1      41.149 -13.828   4.717  1.00  0.00     0.037 A 
HETATM   27  C   UNL     1      41.525 -12.967   5.751  1.00  0.00     0.016 A 
BRANCH  25  28
HETATM   28  O   UNL     1      41.700 -14.823   2.573  1.00  0.00    -0.347 OA
BRANCH  28  29
HETATM   29  C   UNL     1      41.196 -16.080   3.045  1.00  0.00     0.214 C 
BRANCH  29  30
HETATM   30  C   UNL     1      42.354 -17.005   3.340  1.00  0.00    -0.034 A 
HETATM   31  C   UNL     1      42.929 -17.029   4.621  1.00  0.00     0.009 A 
HETATM   32  C   UNL     1      43.968 -17.913   4.916  1.00  0.00     0.001 A 
HETATM   33  C   UNL     1      44.438 -18.786   3.937  1.00  0.00     0.000 A 
HETATM   34  C   UNL     1      43.870 -18.777   2.664  1.00  0.00     0.001 A 
HETATM   35  C   UNL     1      42.831 -17.892   2.366  1.00  0.00     0.009 A 
ENDBRANCH  29  30
ENDBRANCH  28  29
ENDBRANCH  25  28
ENDBRANCH   1  22
TORSDOF 6
ENDMDL
