MODEL 1
REMARK VINA RESULT:      -9.5      0.000      0.000
REMARK  4 active torsions:
REMARK  status: ('A' for Active; 'I' for Inactive)
REMARK    1  A    between atoms: N_4  and  C_5 
REMARK    2  A    between atoms: C_15  and  C_16 
REMARK       I    between atoms: C_16  and  N_17 
REMARK    3  A    between atoms: N_17  and  C_18 
REMARK    4  A    between atoms: C_19  and  C_20 
REMARK       I    between atoms: C_20  and  N_21 
ROOT
HETATM    1  C   UNL     1      39.583 -12.678   4.036  1.00  0.00     0.073 C 
HETATM    2  C   UNL     1      40.836 -13.346   4.467  1.00  0.00     0.069 A 
HETATM    3  N   UNL     1      41.072 -14.619   4.125  1.00  0.00    -0.170 NA
HETATM    4  N   UNL     1      42.307 -14.914   4.635  1.00  0.00    -0.216 N 
HETATM    5  C   UNL     1      42.770 -13.853   5.400  1.00  0.00     0.145 A 
HETATM    6  C   UNL     1      41.858 -12.830   5.282  1.00  0.00     0.087 A 
HETATM    7  N   UNL     1      43.856 -13.769   6.207  1.00  0.00    -0.349 N 
HETATM    8  C   UNL     1      44.036 -12.608   6.941  1.00  0.00     0.111 A 
HETATM    9  C   UNL     1      43.233 -11.522   6.881  1.00  0.00     0.098 A 
HETATM   10  C   UNL     1      42.033 -11.572   5.976  1.00  0.00     0.205 A 
HETATM   11  O   UNL     1      41.255 -10.627   5.877  1.00  0.00    -0.286 OA
HETATM   12  H   UNL     1      44.393 -14.580   6.514  1.00  0.00     0.167 HD
ENDROOT
BRANCH   9  13
HETATM   13  C   UNL     1      43.545 -10.363   7.773  1.00  0.00     0.261 C 
HETATM   14  N   UNL     1      42.568 -10.070   8.706  1.00  0.00    -0.322 N 
HETATM   15  H   UNL     1      41.835 -10.773   8.811  1.00  0.00     0.169 HD
HETATM   16  O   UNL     1      44.631  -9.800   7.686  1.00  0.00    -0.267 OA
BRANCH  14  17
HETATM   17  C   UNL     1      42.726  -9.186   9.803  1.00  0.00     0.050 A 
HETATM   18  C   UNL     1      43.250  -9.503  11.070  1.00  0.00     0.058 A 
HETATM   19  C   UNL     1      43.189  -8.549  12.103  1.00  0.00     0.019 A 
HETATM   20  C   UNL     1      42.670  -7.275  11.873  1.00  0.00     0.001 A 
HETATM   21  C   UNL     1      42.229  -6.932  10.601  1.00  0.00     0.002 A 
HETATM   22  C   UNL     1      42.264  -7.877   9.574  1.00  0.00     0.030 A 
BRANCH  18  23
HETATM   23  C   UNL     1      44.036 -10.723  11.400  1.00  0.00     0.251 C 
HETATM   24  N   UNL     1      43.474 -11.595  12.293  1.00  0.00    -0.366 N 
HETATM   25  H   UNL     1      42.628 -11.382  12.800  1.00  0.00     0.159 HD
HETATM   26  H   UNL     1      44.016 -12.409  12.545  1.00  0.00     0.159 HD
HETATM   27  O   UNL     1      45.077 -11.003  10.817  1.00  0.00    -0.268 OA
ENDBRANCH  18  23
ENDBRANCH  14  17
ENDBRANCH   9  13
BRANCH   4  28
HETATM   28  C   UNL     1      42.917 -16.166   4.340  1.00  0.00     0.060 A 
HETATM   29  C   UNL     1      43.438 -16.990   5.344  1.00  0.00     0.031 A 
HETATM   30  C   UNL     1      44.024 -18.216   5.013  1.00  0.00     0.002 A 
HETATM   31  C   UNL     1      44.099 -18.623   3.683  1.00  0.00     0.000 A 
HETATM   32  C   UNL     1      43.605 -17.799   2.675  1.00  0.00     0.002 A 
HETATM   33  C   UNL     1      43.024 -16.570   2.998  1.00  0.00     0.031 A 
ENDBRANCH   4  28
TORSDOF 4
ENDMDL
MODEL 2
REMARK VINA RESULT:      -9.2      4.910      8.802
REMARK  4 active torsions:
REMARK  status: ('A' for Active; 'I' for Inactive)
REMARK    1  A    between atoms: N_4  and  C_5 
REMARK    2  A    between atoms: C_15  and  C_16 
REMARK       I    between atoms: C_16  and  N_17 
REMARK    3  A    between atoms: N_17  and  C_18 
REMARK    4  A    between atoms: C_19  and  C_20 
REMARK       I    between atoms: C_20  and  N_21 
ROOT
HETATM    1  C   UNL     1      43.608 -14.174   6.262  1.00  0.00     0.073 C 
HETATM    2  C   UNL     1      43.298 -15.179   5.215  1.00  0.00     0.069 A 
HETATM    3  N   UNL     1      43.816 -16.412   5.291  1.00  0.00    -0.170 NA
HETATM    4  N   UNL     1      43.312 -17.089   4.215  1.00  0.00    -0.216 N 
HETATM    5  C   UNL     1      42.584 -16.226   3.409  1.00  0.00     0.145 A 
HETATM    6  C   UNL     1      42.538 -15.008   4.046  1.00  0.00     0.087 A 
HETATM    7  N   UNL     1      42.047 -16.424   2.180  1.00  0.00    -0.349 N 
HETATM    8  C   UNL     1      41.443 -15.349   1.549  1.00  0.00     0.111 A 
HETATM    9  C   UNL     1      41.302 -14.117   2.087  1.00  0.00     0.098 A 
HETATM   10  C   UNL     1      41.863 -13.869   3.460  1.00  0.00     0.205 A 
HETATM   11  O   UNL     1      41.779 -12.772   4.007  1.00  0.00    -0.286 OA
HETATM   12  H   UNL     1      42.286 -17.216   1.583  1.00  0.00     0.167 HD
ENDROOT
BRANCH   9  13
HETATM   13  C   UNL     1      40.660 -13.053   1.255  1.00  0.00     0.261 C 
HETATM   14  N   UNL     1      41.205 -12.896  -0.007  1.00  0.00    -0.322 N 
HETATM   15  H   UNL     1      41.851 -13.631  -0.302  1.00  0.00     0.169 HD
HETATM   16  O   UNL     1      39.682 -12.448   1.681  1.00  0.00    -0.267 OA
BRANCH  14  17
HETATM   17  C   UNL     1      40.631 -12.134  -1.055  1.00  0.00     0.050 A 
HETATM   18  C   UNL     1      39.622 -12.551  -1.944  1.00  0.00     0.058 A 
HETATM   19  C   UNL     1      39.275 -11.729  -3.033  1.00  0.00     0.019 A 
HETATM   20  C   UNL     1      39.876 -10.483  -3.210  1.00  0.00     0.001 A 
HETATM   21  C   UNL     1      40.813 -10.034  -2.288  1.00  0.00     0.002 A 
HETATM   22  C   UNL     1      41.180 -10.849  -1.215  1.00  0.00     0.030 A 
BRANCH  18  23
HETATM   23  C   UNL     1      38.738 -13.733  -1.755  1.00  0.00     0.251 C 
HETATM   24  N   UNL     1      37.406 -13.554  -2.009  1.00  0.00    -0.366 N 
HETATM   25  H   UNL     1      37.008 -12.646  -2.201  1.00  0.00     0.159 HD
HETATM   26  H   UNL     1      36.797 -14.343  -1.852  1.00  0.00     0.159 HD
HETATM   27  O   UNL     1      39.186 -14.845  -1.503  1.00  0.00    -0.268 OA
ENDBRANCH  18  23
ENDBRANCH  14  17
ENDBRANCH   9  13
BRANCH   4  28
HETATM   28  C   UNL     1      43.571 -18.481   4.066  1.00  0.00     0.060 A 
HETATM   29  C   UNL     1      43.492 -19.121   2.824  1.00  0.00     0.031 A 
HETATM   30  C   UNL     1      43.760 -20.489   2.720  1.00  0.00     0.002 A 
HETATM   31  C   UNL     1      44.102 -21.227   3.851  1.00  0.00     0.000 A 
HETATM   32  C   UNL     1      44.160 -20.604   5.096  1.00  0.00     0.002 A 
HETATM   33  C   UNL     1      43.886 -19.239   5.208  1.00  0.00     0.031 A 
ENDBRANCH   4  28
TORSDOF 4
ENDMDL
MODEL 3
REMARK VINA RESULT:      -8.9      2.542      8.602
REMARK  4 active torsions:
REMARK  status: ('A' for Active; 'I' for Inactive)
REMARK    1  A    between atoms: N_4  and  C_5 
REMARK    2  A    between atoms: C_15  and  C_16 
REMARK       I    between atoms: C_16  and  N_17 
REMARK    3  A    between atoms: N_17  and  C_18 
REMARK    4  A    between atoms: C_19  and  C_20 
REMARK       I    between atoms: C_20  and  N_21 
ROOT
HETATM    1  C   UNL     1      41.402  -9.689   4.132  1.00  0.00     0.073 C 
HETATM    2  C   UNL     1      42.005 -10.369   5.305  1.00  0.00     0.069 A 
HETATM    3  N   UNL     1      42.575  -9.650   6.281  1.00  0.00    -0.170 NA
HETATM    4  N   UNL     1      42.990 -10.560   7.214  1.00  0.00    -0.216 N 
HETATM    5  C   UNL     1      42.785 -11.849   6.745  1.00  0.00     0.145 A 
HETATM    6  C   UNL     1      42.130 -11.749   5.539  1.00  0.00     0.087 A 
HETATM    7  N   UNL     1      43.182 -13.039   7.259  1.00  0.00    -0.349 N 
HETATM    8  C   UNL     1      42.923 -14.186   6.528  1.00  0.00     0.111 A 
HETATM    9  C   UNL     1      42.256 -14.221   5.353  1.00  0.00     0.098 A 
HETATM   10  C   UNL     1      41.777 -12.921   4.766  1.00  0.00     0.205 A 
HETATM   11  O   UNL     1      41.172 -12.875   3.698  1.00  0.00    -0.286 OA
HETATM   12  H   UNL     1      43.881 -13.127   7.996  1.00  0.00     0.167 HD
ENDROOT
BRANCH   9  13
HETATM   13  C   UNL     1      42.096 -15.542   4.670  1.00  0.00     0.261 C 
HETATM   14  N   UNL     1      43.283 -16.174   4.346  1.00  0.00    -0.322 N 
HETATM   15  H   UNL     1      44.124 -15.771   4.763  1.00  0.00     0.169 HD
HETATM   16  O   UNL     1      40.976 -16.013   4.503  1.00  0.00    -0.267 OA
BRANCH  14  17
HETATM   17  C   UNL     1      43.400 -17.520   3.918  1.00  0.00     0.050 A 
HETATM   18  C   UNL     1      43.669 -18.640   4.727  1.00  0.00     0.058 A 
HETATM   19  C   UNL     1      43.914 -19.888   4.123  1.00  0.00     0.019 A 
HETATM   20  C   UNL     1      43.837 -20.042   2.740  1.00  0.00     0.001 A 
HETATM   21  C   UNL     1      43.490 -18.957   1.945  1.00  0.00     0.002 A 
HETATM   22  C   UNL     1      43.266 -17.709   2.530  1.00  0.00     0.030 A 
BRANCH  18  23
HETATM   23  C   UNL     1      43.556 -18.682   6.211  1.00  0.00     0.251 C 
HETATM   24  N   UNL     1      43.298 -19.901   6.775  1.00  0.00    -0.366 N 
HETATM   25  H   UNL     1      43.076 -20.717   6.224  1.00  0.00     0.159 HD
HETATM   26  H   UNL     1      43.189 -19.931   7.778  1.00  0.00     0.159 HD
HETATM   27  O   UNL     1      43.801 -17.705   6.908  1.00  0.00    -0.268 OA
ENDBRANCH  18  23
ENDBRANCH  14  17
ENDBRANCH   9  13
BRANCH   4  28
HETATM   28  C   UNL     1      43.533 -10.111   8.452  1.00  0.00     0.060 A 
HETATM   29  C   UNL     1      44.883 -10.284   8.773  1.00  0.00     0.031 A 
HETATM   30  C   UNL     1      45.379  -9.824   9.997  1.00  0.00     0.002 A 
HETATM   31  C   UNL     1      44.531  -9.195  10.907  1.00  0.00     0.000 A 
HETATM   32  C   UNL     1      43.180  -9.041  10.606  1.00  0.00     0.002 A 
HETATM   33  C   UNL     1      42.678  -9.505   9.388  1.00  0.00     0.031 A 
ENDBRANCH   4  28
TORSDOF 4
ENDMDL
MODEL 4
REMARK VINA RESULT:      -8.8      1.096      2.090
REMARK  4 active torsions:
REMARK  status: ('A' for Active; 'I' for Inactive)
REMARK    1  A    between atoms: N_4  and  C_5 
REMARK    2  A    between atoms: C_15  and  C_16 
REMARK       I    between atoms: C_16  and  N_17 
REMARK    3  A    between atoms: N_17  and  C_18 
REMARK    4  A    between atoms: C_19  and  C_20 
REMARK       I    between atoms: C_20  and  N_21 
ROOT
HETATM    1  C   UNL     1      39.534 -12.481   4.018  1.00  0.00     0.073 C 
HETATM    2  C   UNL     1      40.776 -13.207   4.383  1.00  0.00     0.069 A 
HETATM    3  N   UNL     1      40.981 -14.454   3.939  1.00  0.00    -0.170 NA
HETATM    4  N   UNL     1      42.213 -14.815   4.413  1.00  0.00    -0.216 N 
HETATM    5  C   UNL     1      42.706 -13.828   5.255  1.00  0.00     0.145 A 
HETATM    6  C   UNL     1      41.815 -12.779   5.226  1.00  0.00     0.087 A 
HETATM    7  N   UNL     1      43.799 -13.830   6.056  1.00  0.00    -0.349 N 
HETATM    8  C   UNL     1      44.010 -12.736   6.878  1.00  0.00     0.111 A 
HETATM    9  C   UNL     1      43.230 -11.632   6.911  1.00  0.00     0.098 A 
HETATM   10  C   UNL     1      42.023 -11.584   6.016  1.00  0.00     0.205 A 
HETATM   11  O   UNL     1      41.265 -10.618   5.999  1.00  0.00    -0.286 OA
HETATM   12  H   UNL     1      44.320 -14.674   6.293  1.00  0.00     0.167 HD
ENDROOT
BRANCH   9  13
HETATM   13  C   UNL     1      43.575 -10.554   7.888  1.00  0.00     0.261 C 
HETATM   14  N   UNL     1      42.523 -10.131   8.680  1.00  0.00    -0.322 N 
HETATM   15  H   UNL     1      41.684 -10.714   8.646  1.00  0.00     0.169 HD
HETATM   16  O   UNL     1      44.734 -10.165   7.987  1.00  0.00    -0.267 OA
BRANCH  14  17
HETATM   17  C   UNL     1      42.644  -9.305   9.826  1.00  0.00     0.050 A 
HETATM   18  C   UNL     1      42.726  -7.900   9.846  1.00  0.00     0.058 A 
HETATM   19  C   UNL     1      43.006  -7.241  11.058  1.00  0.00     0.019 A 
HETATM   20  C   UNL     1      43.146  -7.955  12.247  1.00  0.00     0.001 A 
HETATM   21  C   UNL     1      42.983  -9.335  12.244  1.00  0.00     0.002 A 
HETATM   22  C   UNL     1      42.727 -10.003  11.045  1.00  0.00     0.030 A 
BRANCH  18  23
HETATM   23  C   UNL     1      42.374  -6.997   8.717  1.00  0.00     0.251 C 
HETATM   24  N   UNL     1      41.564  -5.934   9.008  1.00  0.00    -0.366 N 
HETATM   25  H   UNL     1      41.124  -5.817   9.909  1.00  0.00     0.159 HD
HETATM   26  H   UNL     1      41.296  -5.335   8.240  1.00  0.00     0.159 HD
HETATM   27  O   UNL     1      42.875  -7.121   7.606  1.00  0.00    -0.268 OA
ENDBRANCH  18  23
ENDBRANCH  14  17
ENDBRANCH   9  13
BRANCH   4  28
HETATM   28  C   UNL     1      42.793 -16.052   4.014  1.00  0.00     0.060 A 
HETATM   29  C   UNL     1      43.484 -16.869   4.915  1.00  0.00     0.031 A 
HETATM   30  C   UNL     1      44.035 -18.081   4.485  1.00  0.00     0.002 A 
HETATM   31  C   UNL     1      43.904 -18.480   3.157  1.00  0.00     0.000 A 
HETATM   32  C   UNL     1      43.239 -17.662   2.247  1.00  0.00     0.002 A 
HETATM   33  C   UNL     1      42.693 -16.447   2.669  1.00  0.00     0.031 A 
ENDBRANCH   4  28
TORSDOF 4
ENDMDL
MODEL 5
REMARK VINA RESULT:      -8.8      4.889      8.406
REMARK  4 active torsions:
REMARK  status: ('A' for Active; 'I' for Inactive)
REMARK    1  A    between atoms: N_4  and  C_5 
REMARK    2  A    between atoms: C_15  and  C_16 
REMARK       I    between atoms: C_16  and  N_17 
REMARK    3  A    between atoms: N_17  and  C_18 
REMARK    4  A    between atoms: C_19  and  C_20 
REMARK       I    between atoms: C_20  and  N_21 
ROOT
HETATM    1  C   UNL     1      43.390 -13.999   6.099  1.00  0.00     0.073 C 
HETATM    2  C   UNL     1      43.123 -15.003   5.039  1.00  0.00     0.069 A 
HETATM    3  N   UNL     1      43.669 -16.224   5.115  1.00  0.00    -0.170 NA
HETATM    4  N   UNL     1      43.200 -16.904   4.024  1.00  0.00    -0.216 N 
HETATM    5  C   UNL     1      42.465 -16.052   3.212  1.00  0.00     0.145 A 
HETATM    6  C   UNL     1      42.379 -14.841   3.857  1.00  0.00     0.087 A 
HETATM    7  N   UNL     1      41.954 -16.254   1.973  1.00  0.00    -0.349 N 
HETATM    8  C   UNL     1      41.336 -15.188   1.340  1.00  0.00     0.111 A 
HETATM    9  C   UNL     1      41.156 -13.964   1.884  1.00  0.00     0.098 A 
HETATM   10  C   UNL     1      41.687 -13.713   3.269  1.00  0.00     0.205 A 
HETATM   11  O   UNL     1      41.568 -12.623   3.823  1.00  0.00    -0.286 OA
HETATM   12  H   UNL     1      42.223 -17.034   1.374  1.00  0.00     0.167 HD
ENDROOT
BRANCH   9  13
HETATM   13  C   UNL     1      40.503 -12.909   1.049  1.00  0.00     0.261 C 
HETATM   14  N   UNL     1      39.122 -12.967   1.016  1.00  0.00    -0.322 N 
HETATM   15  H   UNL     1      38.692 -13.595   1.699  1.00  0.00     0.169 HD
HETATM   16  O   UNL     1      41.186 -12.040   0.516  1.00  0.00    -0.267 OA
BRANCH  14  17
HETATM   17  C   UNL     1      38.274 -11.956   0.501  1.00  0.00     0.050 A 
HETATM   18  C   UNL     1      37.821 -11.832  -0.826  1.00  0.00     0.058 A 
HETATM   19  C   UNL     1      37.114 -10.677  -1.212  1.00  0.00     0.019 A 
HETATM   20  C   UNL     1      36.806  -9.682  -0.285  1.00  0.00     0.001 A 
HETATM   21  C   UNL     1      37.180  -9.840   1.044  1.00  0.00     0.002 A 
HETATM   22  C   UNL     1      37.901 -10.971   1.434  1.00  0.00     0.030 A 
BRANCH  18  23
HETATM   23  C   UNL     1      37.869 -12.902  -1.859  1.00  0.00     0.251 C 
HETATM   24  N   UNL     1      37.201 -12.660  -3.028  1.00  0.00    -0.366 N 
HETATM   25  H   UNL     1      36.604 -11.856  -3.156  1.00  0.00     0.159 HD
HETATM   26  H   UNL     1      37.203 -13.395  -3.721  1.00  0.00     0.159 HD
HETATM   27  O   UNL     1      38.569 -13.899  -1.729  1.00  0.00    -0.268 OA
ENDBRANCH  18  23
ENDBRANCH  14  17
ENDBRANCH   9  13
BRANCH   4  28
HETATM   28  C   UNL     1      43.495 -18.289   3.870  1.00  0.00     0.060 A 
HETATM   29  C   UNL     1      43.908 -19.081   4.947  1.00  0.00     0.031 A 
HETATM   30  C   UNL     1      44.182 -20.439   4.755  1.00  0.00     0.002 A 
HETATM   31  C   UNL     1      44.053 -21.011   3.491  1.00  0.00     0.000 A 
HETATM   32  C   UNL     1      43.666 -20.224   2.408  1.00  0.00     0.002 A 
HETATM   33  C   UNL     1      43.397 -18.866   2.592  1.00  0.00     0.031 A 
ENDBRANCH   4  28
TORSDOF 4
ENDMDL
MODEL 6
REMARK VINA RESULT:      -8.6      2.197      8.826
REMARK  4 active torsions:
REMARK  status: ('A' for Active; 'I' for Inactive)
REMARK    1  A    between atoms: N_4  and  C_5 
REMARK    2  A    between atoms: C_15  and  C_16 
REMARK       I    between atoms: C_16  and  N_17 
REMARK    3  A    between atoms: N_17  and  C_18 
REMARK    4  A    between atoms: C_19  and  C_20 
REMARK       I    between atoms: C_20  and  N_21 
ROOT
HETATM    1  C   UNL     1      47.250  -9.969   7.749  1.00  0.00     0.073 C 
HETATM    2  C   UNL     1      45.842  -9.744   8.161  1.00  0.00     0.069 A 
HETATM    3  N   UNL     1      45.569  -9.159   9.335  1.00  0.00    -0.170 NA
HETATM    4  N   UNL     1      44.205  -9.066   9.391  1.00  0.00    -0.216 N 
HETATM    5  C   UNL     1      43.640  -9.713   8.301  1.00  0.00     0.145 A 
HETATM    6  C   UNL     1      44.669 -10.127   7.488  1.00  0.00     0.087 A 
HETATM    7  N   UNL     1      42.342 -10.001   8.035  1.00  0.00    -0.349 N 
HETATM    8  C   UNL     1      42.058 -10.751   6.905  1.00  0.00     0.111 A 
HETATM    9  C   UNL     1      42.976 -11.182   6.011  1.00  0.00     0.098 A 
HETATM   10  C   UNL     1      44.423 -10.857   6.262  1.00  0.00     0.205 A 
HETATM   11  O   UNL     1      45.313 -11.223   5.498  1.00  0.00    -0.286 OA
HETATM   12  H   UNL     1      41.599  -9.942   8.730  1.00  0.00     0.167 HD
ENDROOT
BRANCH   9  13
HETATM   13  C   UNL     1      42.506 -12.018   4.864  1.00  0.00     0.261 C 
HETATM   14  N   UNL     1      43.058 -13.285   4.805  1.00  0.00    -0.322 N 
HETATM   15  H   UNL     1      43.576 -13.578   5.636  1.00  0.00     0.169 HD
HETATM   16  O   UNL     1      41.642 -11.588   4.108  1.00  0.00    -0.267 OA
BRANCH  14  17
HETATM   17  C   UNL     1      42.605 -14.335   3.968  1.00  0.00     0.050 A 
HETATM   18  C   UNL     1      41.690 -15.348   4.310  1.00  0.00     0.058 A 
HETATM   19  C   UNL     1      41.467 -16.411   3.414  1.00  0.00     0.019 A 
HETATM   20  C   UNL     1      42.096 -16.444   2.170  1.00  0.00     0.001 A 
HETATM   21  C   UNL     1      42.936 -15.402   1.797  1.00  0.00     0.002 A 
HETATM   22  C   UNL     1      43.182 -14.353   2.685  1.00  0.00     0.030 A 
BRANCH  18  23
HETATM   23  C   UNL     1      40.779 -15.329   5.487  1.00  0.00     0.251 C 
HETATM   24  N   UNL     1      39.922 -16.388   5.620  1.00  0.00    -0.366 N 
HETATM   25  H   UNL     1      39.818 -17.094   4.906  1.00  0.00     0.159 HD
HETATM   26  H   UNL     1      39.280 -16.366   6.399  1.00  0.00     0.159 HD
HETATM   27  O   UNL     1      40.866 -14.476   6.362  1.00  0.00    -0.268 OA
ENDBRANCH  18  23
ENDBRANCH  14  17
ENDBRANCH   9  13
BRANCH   4  28
HETATM   28  C   UNL     1      43.584  -8.372  10.468  1.00  0.00     0.060 A 
HETATM   29  C   UNL     1      43.593  -8.874  11.774  1.00  0.00     0.031 A 
HETATM   30  C   UNL     1      42.977  -8.159  12.806  1.00  0.00     0.002 A 
HETATM   31  C   UNL     1      42.345  -6.946  12.540  1.00  0.00     0.000 A 
HETATM   32  C   UNL     1      42.310  -6.451  11.238  1.00  0.00     0.002 A 
HETATM   33  C   UNL     1      42.918  -7.164  10.203  1.00  0.00     0.031 A 
ENDBRANCH   4  28
TORSDOF 4
ENDMDL
MODEL 7
REMARK VINA RESULT:      -8.5      4.862      7.674
REMARK  4 active torsions:
REMARK  status: ('A' for Active; 'I' for Inactive)
REMARK    1  A    between atoms: N_4  and  C_5 
REMARK    2  A    between atoms: C_15  and  C_16 
REMARK       I    between atoms: C_16  and  N_17 
REMARK    3  A    between atoms: N_17  and  C_18 
REMARK    4  A    between atoms: C_19  and  C_20 
REMARK       I    between atoms: C_20  and  N_21 
ROOT
HETATM    1  C   UNL     1      43.443 -14.072   6.239  1.00  0.00     0.073 C 
HETATM    2  C   UNL     1      43.184 -15.054   5.157  1.00  0.00     0.069 A 
HETATM    3  N   UNL     1      43.708 -16.285   5.225  1.00  0.00    -0.170 NA
HETATM    4  N   UNL     1      43.253 -16.941   4.114  1.00  0.00    -0.216 N 
HETATM    5  C   UNL     1      42.550 -16.064   3.300  1.00  0.00     0.145 A 
HETATM    6  C   UNL     1      42.469 -14.861   3.962  1.00  0.00     0.087 A 
HETATM    7  N   UNL     1      42.064 -16.237   2.046  1.00  0.00    -0.349 N 
HETATM    8  C   UNL     1      41.477 -15.152   1.417  1.00  0.00     0.111 A 
HETATM    9  C   UNL     1      41.305 -13.933   1.977  1.00  0.00     0.098 A 
HETATM   10  C   UNL     1      41.809 -13.714   3.377  1.00  0.00     0.205 A 
HETATM   11  O   UNL     1      41.695 -12.631   3.945  1.00  0.00    -0.286 OA
HETATM   12  H   UNL     1      42.333 -17.013   1.441  1.00  0.00     0.167 HD
ENDROOT
BRANCH   9  13
HETATM   13  C   UNL     1      40.688 -12.855   1.144  1.00  0.00     0.261 C 
HETATM   14  N   UNL     1      39.316 -12.946   1.002  1.00  0.00    -0.322 N 
HETATM   15  H   UNL     1      38.853 -13.617   1.619  1.00  0.00     0.169 HD
HETATM   16  O   UNL     1      41.385 -11.945   0.708  1.00  0.00    -0.267 OA
BRANCH  14  17
HETATM   17  C   UNL     1      38.481 -11.931   0.471  1.00  0.00     0.050 A 
HETATM   18  C   UNL     1      37.850 -10.899   1.189  1.00  0.00     0.058 A 
HETATM   19  C   UNL     1      36.922 -10.066   0.534  1.00  0.00     0.019 A 
HETATM   20  C   UNL     1      36.664 -10.213  -0.828  1.00  0.00     0.001 A 
HETATM   21  C   UNL     1      37.348 -11.178  -1.557  1.00  0.00     0.002 A 
HETATM   22  C   UNL     1      38.254 -12.024  -0.915  1.00  0.00     0.030 A 
BRANCH  18  23
HETATM   23  C   UNL     1      38.192 -10.475   2.574  1.00  0.00     0.251 C 
HETATM   24  N   UNL     1      37.752  -9.241   2.967  1.00  0.00    -0.366 N 
HETATM   25  H   UNL     1      37.318  -8.590   2.328  1.00  0.00     0.159 HD
HETATM   26  H   UNL     1      38.007  -8.935   3.895  1.00  0.00     0.159 HD
HETATM   27  O   UNL     1      38.733 -11.233   3.370  1.00  0.00    -0.268 OA
ENDBRANCH  18  23
ENDBRANCH  14  17
ENDBRANCH   9  13
BRANCH   4  28
HETATM   28  C   UNL     1      43.529 -18.327   3.945  1.00  0.00     0.060 A 
HETATM   29  C   UNL     1      43.910 -19.142   5.016  1.00  0.00     0.031 A 
HETATM   30  C   UNL     1      44.167 -20.501   4.809  1.00  0.00     0.002 A 
HETATM   31  C   UNL     1      44.051 -21.052   3.535  1.00  0.00     0.000 A 
HETATM   32  C   UNL     1      43.696 -20.243   2.457  1.00  0.00     0.002 A 
HETATM   33  C   UNL     1      43.445 -18.883   2.657  1.00  0.00     0.031 A 
ENDBRANCH   4  28
TORSDOF 4
ENDMDL
MODEL 8
REMARK VINA RESULT:      -8.3      2.511      3.347
REMARK  4 active torsions:
REMARK  status: ('A' for Active; 'I' for Inactive)
REMARK    1  A    between atoms: N_4  and  C_5 
REMARK    2  A    between atoms: C_15  and  C_16 
REMARK       I    between atoms: C_16  and  N_17 
REMARK    3  A    between atoms: N_17  and  C_18 
REMARK    4  A    between atoms: C_19  and  C_20 
REMARK       I    between atoms: C_20  and  N_21 
ROOT
HETATM    1  C   UNL     1      40.928 -14.725   0.749  1.00  0.00     0.073 C 
HETATM    2  C   UNL     1      41.745 -15.302   1.844  1.00  0.00     0.069 A 
HETATM    3  N   UNL     1      41.887 -16.630   1.950  1.00  0.00    -0.170 NA
HETATM    4  N   UNL     1      42.717 -16.828   3.020  1.00  0.00    -0.216 N 
HETATM    5  C   UNL     1      42.979 -15.618   3.647  1.00  0.00     0.145 A 
HETATM    6  C   UNL     1      42.392 -14.628   2.894  1.00  0.00     0.087 A 
HETATM    7  N   UNL     1      43.613 -15.361   4.817  1.00  0.00    -0.349 N 
HETATM    8  C   UNL     1      43.654 -14.051   5.265  1.00  0.00     0.111 A 
HETATM    9  C   UNL     1      43.148 -12.989   4.597  1.00  0.00     0.098 A 
HETATM   10  C   UNL     1      42.461 -13.235   3.282  1.00  0.00     0.205 A 
HETATM   11  O   UNL     1      41.970 -12.320   2.626  1.00  0.00    -0.286 OA
HETATM   12  H   UNL     1      43.823 -16.077   5.512  1.00  0.00     0.167 HD
ENDROOT
BRANCH   9  13
HETATM   13  C   UNL     1      43.239 -11.643   5.241  1.00  0.00     0.261 C 
HETATM   14  N   UNL     1      43.512 -11.665   6.597  1.00  0.00    -0.322 N 
HETATM   15  H   UNL     1      43.801 -12.571   6.972  1.00  0.00     0.169 HD
HETATM   16  O   UNL     1      43.145 -10.629   4.557  1.00  0.00    -0.267 OA
BRANCH  14  17
HETATM   17  C   UNL     1      43.878 -10.539   7.375  1.00  0.00     0.050 A 
HETATM   18  C   UNL     1      43.020  -9.532   7.855  1.00  0.00     0.058 A 
HETATM   19  C   UNL     1      43.567  -8.394   8.477  1.00  0.00     0.019 A 
HETATM   20  C   UNL     1      44.943  -8.277   8.675  1.00  0.00     0.001 A 
HETATM   21  C   UNL     1      45.785  -9.307   8.276  1.00  0.00     0.002 A 
HETATM   22  C   UNL     1      45.256 -10.432   7.639  1.00  0.00     0.030 A 
BRANCH  18  23
HETATM   23  C   UNL     1      41.536  -9.622   7.924  1.00  0.00     0.251 C 
HETATM   24  N   UNL     1      40.970  -9.526   9.166  1.00  0.00    -0.366 N 
HETATM   25  H   UNL     1      41.520  -9.513  10.013  1.00  0.00     0.159 HD
HETATM   26  H   UNL     1      39.967  -9.617   9.223  1.00  0.00     0.159 HD
HETATM   27  O   UNL     1      40.840  -9.657   6.916  1.00  0.00    -0.268 OA
ENDBRANCH  18  23
ENDBRANCH  14  17
ENDBRANCH   9  13
BRANCH   4  28
HETATM   28  C   UNL     1      43.174 -18.139   3.332  1.00  0.00     0.060 A 
HETATM   29  C   UNL     1      43.634 -18.478   4.609  1.00  0.00     0.031 A 
HETATM   30  C   UNL     1      44.070 -19.780   4.877  1.00  0.00     0.002 A 
HETATM   31  C   UNL     1      44.055 -20.746   3.873  1.00  0.00     0.000 A 
HETATM   32  C   UNL     1      43.622 -20.411   2.592  1.00  0.00     0.002 A 
HETATM   33  C   UNL     1      43.192 -19.111   2.317  1.00  0.00     0.031 A 
ENDBRANCH   4  28
TORSDOF 4
ENDMDL
MODEL 9
REMARK VINA RESULT:      -8.2      4.327      9.604
REMARK  4 active torsions:
REMARK  status: ('A' for Active; 'I' for Inactive)
REMARK    1  A    between atoms: N_4  and  C_5 
REMARK    2  A    between atoms: C_15  and  C_16 
REMARK       I    between atoms: C_16  and  N_17 
REMARK    3  A    between atoms: N_17  and  C_18 
REMARK    4  A    between atoms: C_19  and  C_20 
REMARK       I    between atoms: C_20  and  N_21 
ROOT
HETATM    1  C   UNL     1      42.962 -15.552   5.682  1.00  0.00     0.073 C 
HETATM    2  C   UNL     1      43.131 -14.083   5.564  1.00  0.00     0.069 A 
HETATM    3  N   UNL     1      43.719 -13.391   6.550  1.00  0.00    -0.170 NA
HETATM    4  N   UNL     1      43.754 -12.093   6.118  1.00  0.00    -0.216 N 
HETATM    5  C   UNL     1      43.069 -11.973   4.917  1.00  0.00     0.145 A 
HETATM    6  C   UNL     1      42.689 -13.238   4.532  1.00  0.00     0.087 A 
HETATM    7  N   UNL     1      42.721 -10.865   4.218  1.00  0.00    -0.349 N 
HETATM    8  C   UNL     1      41.945 -11.026   3.083  1.00  0.00     0.111 A 
HETATM    9  C   UNL     1      41.543 -12.216   2.583  1.00  0.00     0.098 A 
HETATM   10  C   UNL     1      41.933 -13.468   3.319  1.00  0.00     0.205 A 
HETATM   11  O   UNL     1      41.596 -14.583   2.928  1.00  0.00    -0.286 OA
HETATM   12  H   UNL     1      42.758  -9.922   4.605  1.00  0.00     0.167 HD
ENDROOT
BRANCH   9  13
HETATM   13  C   UNL     1      40.672 -12.212   1.367  1.00  0.00     0.261 C 
HETATM   14  N   UNL     1      41.183 -12.907   0.285  1.00  0.00    -0.322 N 
HETATM   15  H   UNL     1      41.996 -13.493   0.484  1.00  0.00     0.169 HD
HETATM   16  O   UNL     1      39.568 -11.681   1.407  1.00  0.00    -0.267 OA
BRANCH  14  17
HETATM   17  C   UNL     1      40.457 -13.248  -0.882  1.00  0.00     0.050 A 
HETATM   18  C   UNL     1      40.218 -12.423  -1.997  1.00  0.00     0.058 A 
HETATM   19  C   UNL     1      39.339 -12.859  -3.007  1.00  0.00     0.019 A 
HETATM   20  C   UNL     1      38.748 -14.121  -2.947  1.00  0.00     0.001 A 
HETATM   21  C   UNL     1      39.047 -14.970  -1.889  1.00  0.00     0.002 A 
HETATM   22  C   UNL     1      39.900 -14.541  -0.870  1.00  0.00     0.030 A 
BRANCH  18  23
HETATM   23  C   UNL     1      40.947 -11.164  -2.312  1.00  0.00     0.251 C 
HETATM   24  N   UNL     1      41.183 -10.904  -3.635  1.00  0.00    -0.366 N 
HETATM   25  H   UNL     1      40.985 -11.574  -4.363  1.00  0.00     0.159 HD
HETATM   26  H   UNL     1      41.704 -10.067  -3.853  1.00  0.00     0.159 HD
HETATM   27  O   UNL     1      41.219 -10.338  -1.450  1.00  0.00    -0.268 OA
ENDBRANCH  18  23
ENDBRANCH  14  17
ENDBRANCH   9  13
BRANCH   4  28
HETATM   28  C   UNL     1      44.434 -11.107   6.887  1.00  0.00     0.060 A 
HETATM   29  C   UNL     1      43.745 -10.125   7.607  1.00  0.00     0.031 A 
HETATM   30  C   UNL     1      44.451  -9.178   8.356  1.00  0.00     0.002 A 
HETATM   31  C   UNL     1      45.844  -9.200   8.385  1.00  0.00     0.000 A 
HETATM   32  C   UNL     1      46.539 -10.159   7.652  1.00  0.00     0.002 A 
HETATM   33  C   UNL     1      45.840 -11.104   6.897  1.00  0.00     0.031 A 
ENDBRANCH   4  28
TORSDOF 4
ENDMDL
MODEL 10
REMARK VINA RESULT:      -7.9      3.043      3.688
REMARK  4 active torsions:
REMARK  status: ('A' for Active; 'I' for Inactive)
REMARK    1  A    between atoms: N_4  and  C_5 
REMARK    2  A    between atoms: C_15  and  C_16 
REMARK       I    between atoms: C_16  and  N_17 
REMARK    3  A    between atoms: N_17  and  C_18 
REMARK    4  A    between atoms: C_19  and  C_20 
REMARK       I    between atoms: C_20  and  N_21 
ROOT
HETATM    1  C   UNL     1      39.927 -13.485   0.849  1.00  0.00     0.073 C 
HETATM    2  C   UNL     1      40.574 -14.058   2.055  1.00  0.00     0.069 A 
HETATM    3  N   UNL     1      41.210 -15.234   1.983  1.00  0.00    -0.170 NA
HETATM    4  N   UNL     1      41.720 -15.455   3.233  1.00  0.00    -0.216 N 
HETATM    5  C   UNL     1      41.284 -14.466   4.105  1.00  0.00     0.145 A 
HETATM    6  C   UNL     1      40.575 -13.548   3.365  1.00  0.00     0.087 A 
HETATM    7  N   UNL     1      41.411 -14.372   5.451  1.00  0.00    -0.349 N 
HETATM    8  C   UNL     1      40.790 -13.314   6.093  1.00  0.00     0.111 A 
HETATM    9  C   UNL     1      40.100 -12.330   5.474  1.00  0.00     0.098 A 
HETATM   10  C   UNL     1      39.961 -12.390   3.978  1.00  0.00     0.205 A 
HETATM   11  O   UNL     1      39.341 -11.535   3.349  1.00  0.00    -0.286 OA
HETATM   12  H   UNL     1      41.695 -15.151   6.045  1.00  0.00     0.167 HD
ENDROOT
BRANCH   9  13
HETATM   13  C   UNL     1      39.454 -11.280   6.321  1.00  0.00     0.261 C 
HETATM   14  N   UNL     1      40.188 -10.117   6.462  1.00  0.00    -0.322 N 
HETATM   15  H   UNL     1      40.991 -10.025   5.837  1.00  0.00     0.169 HD
HETATM   16  O   UNL     1      38.327 -11.463   6.769  1.00  0.00    -0.267 OA
BRANCH  14  17
HETATM   17  C   UNL     1      39.698  -8.904   7.007  1.00  0.00     0.050 A 
HETATM   18  C   UNL     1      39.330  -8.669   8.345  1.00  0.00     0.058 A 
HETATM   19  C   UNL     1      38.709  -7.454   8.690  1.00  0.00     0.019 A 
HETATM   20  C   UNL     1      38.505  -6.457   7.737  1.00  0.00     0.001 A 
HETATM   21  C   UNL     1      38.942  -6.653   6.433  1.00  0.00     0.002 A 
HETATM   22  C   UNL     1      39.541  -7.863   6.073  1.00  0.00     0.030 A 
BRANCH  18  23
HETATM   23  C   UNL     1      39.689  -9.532   9.504  1.00  0.00     0.251 C 
HETATM   24  N   UNL     1      38.817 -10.540   9.814  1.00  0.00    -0.366 N 
HETATM   25  H   UNL     1      37.918 -10.637   9.366  1.00  0.00     0.159 HD
HETATM   26  H   UNL     1      39.039 -11.110  10.618  1.00  0.00     0.159 HD
HETATM   27  O   UNL     1      40.765  -9.431  10.081  1.00  0.00    -0.268 OA
ENDBRANCH  18  23
ENDBRANCH  14  17
ENDBRANCH   9  13
BRANCH   4  28
HETATM   28  C   UNL     1      42.568 -16.574   3.468  1.00  0.00     0.060 A 
HETATM   29  C   UNL     1      43.265 -16.734   4.670  1.00  0.00     0.031 A 
HETATM   30  C   UNL     1      44.084 -17.852   4.865  1.00  0.00     0.002 A 
HETATM   31  C   UNL     1      44.215 -18.809   3.861  1.00  0.00     0.000 A 
HETATM   32  C   UNL     1      43.544 -18.646   2.651  1.00  0.00     0.002 A 
HETATM   33  C   UNL     1      42.730 -17.528   2.449  1.00  0.00     0.031 A 
ENDBRANCH   4  28
TORSDOF 4
ENDMDL
