MODEL 1
REMARK VINA RESULT:      -8.4      0.000      0.000
REMARK  10 active torsions:
REMARK  status: ('A' for Active; 'I' for Inactive)
REMARK    1  A    between atoms: N_2  and  C_3 
REMARK    2  A    between atoms: C_3  and  C_4 
REMARK       I    between atoms: C_4  and  N_5 
REMARK    3  A    between atoms: N_5  and  C_6 
REMARK    4  A    between atoms: C_6  and  C_7 
REMARK    5  A    between atoms: C_7  and  C_8 
REMARK    6  A    between atoms: C_8  and  C_9 
REMARK       I    between atoms: C_9  and  N_10 
REMARK    7  A    between atoms: N_10  and  C_11 
REMARK    8  A    between atoms: C_11  and  C_12 
REMARK    9  A    between atoms: C_12  and  C_13 
REMARK   10  A    between atoms: C_13  and  N_14 
ROOT
HETATM    1  C   UNL     1      44.647 -11.526   7.376  1.00  0.00     0.235 C 
HETATM    2  N   UNL     1      44.772 -11.105   6.064  1.00  0.00    -0.360 N 
HETATM    3  O   UNL     1      43.927 -12.463   7.706  1.00  0.00    -0.272 OA
HETATM    4  H   UNL     1      45.343 -10.297   5.848  1.00  0.00     0.162 HD
ENDROOT
BRANCH   2   5
HETATM    5  C   UNL     1      44.054 -11.748   4.983  1.00  0.00     0.123 C 
BRANCH   5   6
HETATM    6  C   UNL     1      42.930 -10.868   4.444  1.00  0.00     0.029 C 
BRANCH   6   7
HETATM    7  C   UNL     1      41.679 -10.995   5.306  1.00  0.00     0.104 C 
BRANCH   7   8
HETATM    8  C   UNL     1      41.110 -12.393   5.225  1.00  0.00     0.217 C 
HETATM    9  N   UNL     1      41.153 -13.102   6.405  1.00  0.00    -0.361 N 
HETATM   10  H   UNL     1      41.676 -12.705   7.180  1.00  0.00     0.162 HD
HETATM   11  O   UNL     1      40.591 -12.837   4.205  1.00  0.00    -0.274 OA
BRANCH   9  12
HETATM   12  C   UNL     1      40.809 -14.509   6.467  1.00  0.00     0.124 C 
BRANCH  12  13
HETATM   13  C   UNL     1      41.933 -15.391   7.017  1.00  0.00     0.047 C 
BRANCH  13  14
HETATM   14  C   UNL     1      43.117 -15.498   6.056  1.00  0.00     0.236 C 
BRANCH  14  15
HETATM   15  N   UNL     1      42.935 -16.638   5.045  1.00  0.00    -0.071 N 
HETATM   16  H   UNL     1      42.215 -17.259   5.436  1.00  0.00     0.279 HD
HETATM   17  C   UNL     1      42.442 -16.131   3.710  1.00  0.00     0.235 C 
HETATM   18  C   UNL     1      42.164 -17.247   2.710  1.00  0.00     0.028 C 
HETATM   19  C   UNL     1      43.433 -17.840   2.108  1.00  0.00     0.002 C 
HETATM   20  C   UNL     1      44.055 -18.968   2.920  1.00  0.00     0.002 C 
HETATM   21  C   UNL     1      43.974 -18.838   4.437  1.00  0.00     0.028 C 
HETATM   22  C   UNL     1      44.229 -17.438   4.974  1.00  0.00     0.235 C 
ENDBRANCH  14  15
ENDBRANCH  13  14
ENDBRANCH  12  13
ENDBRANCH   9  12
ENDBRANCH   7   8
ENDBRANCH   6   7
ENDBRANCH   5   6
ENDBRANCH   2   5
BRANCH   1  23
HETATM   23  C   UNL     1      45.537 -10.752   8.350  1.00  0.00     0.235 C 
BRANCH  23  24
HETATM   24  N   UNL     1      44.815  -9.655   8.965  1.00  0.00    -0.299 N 
HETATM   25  C   UNL     1      44.707  -8.443   8.308  1.00  0.00     0.214 A 
HETATM   26  N   UNL     1      44.047  -7.413   8.729  1.00  0.00    -0.235 NA
HETATM   27  C   UNL     1      43.440  -7.593   9.929  1.00  0.00     0.115 A 
HETATM   28  C   UNL     1      43.503  -8.720  10.724  1.00  0.00     0.075 A 
HETATM   29  S   UNL     1      42.464  -6.379  10.623  1.00  0.00    -0.073 SA
HETATM   30  C   UNL     1      44.266  -9.853  10.229  1.00  0.00     0.262 A 
HETATM   31  C   UNL     1      42.766  -8.570  11.942  1.00  0.00    -0.026 A 
HETATM   32  O   UNL     1      44.396 -10.900  10.863  1.00  0.00    -0.267 OA
HETATM   33  C   UNL     1      42.126  -7.344  11.983  1.00  0.00    -0.008 A 
HETATM   34  C   UNL     1      42.617  -9.575  13.044  1.00  0.00     0.041 C 
HETATM   35  C   UNL     1      41.252  -6.858  13.098  1.00  0.00     0.047 C 
HETATM   36  C   UNL     1      40.848  -8.026  14.010  1.00  0.00     0.005 C 
HETATM   37  C   UNL     1      42.040  -8.942  14.320  1.00  0.00     0.005 C 
ENDBRANCH  23  24
ENDBRANCH   1  23
TORSDOF 10
ENDMDL
MODEL 2
REMARK VINA RESULT:      -8.4      2.932     10.528
REMARK  10 active torsions:
REMARK  status: ('A' for Active; 'I' for Inactive)
REMARK    1  A    between atoms: N_2  and  C_3 
REMARK    2  A    between atoms: C_3  and  C_4 
REMARK       I    between atoms: C_4  and  N_5 
REMARK    3  A    between atoms: N_5  and  C_6 
REMARK    4  A    between atoms: C_6  and  C_7 
REMARK    5  A    between atoms: C_7  and  C_8 
REMARK    6  A    between atoms: C_8  and  C_9 
REMARK       I    between atoms: C_9  and  N_10 
REMARK    7  A    between atoms: N_10  and  C_11 
REMARK    8  A    between atoms: C_11  and  C_12 
REMARK    9  A    between atoms: C_12  and  C_13 
REMARK   10  A    between atoms: C_13  and  N_14 
ROOT
HETATM    1  C   UNL     1      43.576 -11.570   5.704  1.00  0.00     0.235 C 
HETATM    2  N   UNL     1      44.478 -11.748   6.738  1.00  0.00    -0.360 N 
HETATM    3  O   UNL     1      43.861 -10.974   4.670  1.00  0.00    -0.272 OA
HETATM    4  H   UNL     1      44.181 -12.207   7.591  1.00  0.00     0.162 HD
ENDROOT
BRANCH   2   5
HETATM    5  C   UNL     1      45.832 -11.240   6.666  1.00  0.00     0.123 C 
BRANCH   5   6
HETATM    6  C   UNL     1      46.282 -10.631   7.991  1.00  0.00     0.029 C 
BRANCH   6   7
HETATM    7  C   UNL     1      46.329  -9.110   7.903  1.00  0.00     0.104 C 
BRANCH   7   8
HETATM    8  C   UNL     1      45.187  -8.491   8.676  1.00  0.00     0.217 C 
HETATM    9  N   UNL     1      44.697  -9.268   9.702  1.00  0.00    -0.361 N 
HETATM   10  H   UNL     1      45.026 -10.226   9.772  1.00  0.00     0.162 HD
HETATM   11  O   UNL     1      44.774  -7.358   8.449  1.00  0.00    -0.274 OA
BRANCH   9  12
HETATM   12  C   UNL     1      43.498  -8.906  10.432  1.00  0.00     0.124 C 
BRANCH  12  13
HETATM   13  C   UNL     1      42.978 -10.019  11.347  1.00  0.00     0.047 C 
BRANCH  13  14
HETATM   14  C   UNL     1      41.576  -9.728  11.884  1.00  0.00     0.236 C 
BRANCH  14  15
HETATM   15  N   UNL     1      41.539  -8.449  12.731  1.00  0.00    -0.071 N 
HETATM   16  H   UNL     1      41.906  -7.696  12.135  1.00  0.00     0.279 HD
HETATM   17  C   UNL     1      40.129  -8.083  13.132  1.00  0.00     0.235 C 
HETATM   18  C   UNL     1      40.045  -6.768  13.899  1.00  0.00     0.028 C 
HETATM   19  C   UNL     1      40.513  -6.888  15.344  1.00  0.00     0.002 C 
HETATM   20  C   UNL     1      42.010  -6.703  15.546  1.00  0.00     0.002 C 
HETATM   21  C   UNL     1      42.918  -7.254  14.452  1.00  0.00     0.028 C 
HETATM   22  C   UNL     1      42.502  -8.610  13.900  1.00  0.00     0.235 C 
ENDBRANCH  14  15
ENDBRANCH  13  14
ENDBRANCH  12  13
ENDBRANCH   9  12
ENDBRANCH   7   8
ENDBRANCH   6   7
ENDBRANCH   5   6
ENDBRANCH   2   5
BRANCH   1  23
HETATM   23  C   UNL     1      42.223 -12.237   5.957  1.00  0.00     0.235 C 
BRANCH  23  24
HETATM   24  N   UNL     1      41.980 -13.310   5.013  1.00  0.00    -0.299 N 
HETATM   25  C   UNL     1      41.035 -13.154   4.015  1.00  0.00     0.214 A 
HETATM   26  N   UNL     1      40.770 -14.014   3.087  1.00  0.00    -0.235 NA
HETATM   27  C   UNL     1      41.502 -15.154   3.157  1.00  0.00     0.115 A 
HETATM   28  C   UNL     1      42.436 -15.475   4.122  1.00  0.00     0.075 A 
HETATM   29  S   UNL     1      41.350 -16.383   1.984  1.00  0.00    -0.073 SA
HETATM   30  C   UNL     1      42.700 -14.493   5.160  1.00  0.00     0.262 A 
HETATM   31  C   UNL     1      43.010 -16.770   3.913  1.00  0.00    -0.026 A 
HETATM   32  O   UNL     1      43.503 -14.684   6.072  1.00  0.00    -0.267 OA
HETATM   33  C   UNL     1      42.519 -17.348   2.756  1.00  0.00    -0.008 A 
HETATM   34  C   UNL     1      44.044 -17.452   4.759  1.00  0.00     0.041 C 
HETATM   35  C   UNL     1      42.915 -18.688   2.220  1.00  0.00     0.047 C 
HETATM   36  C   UNL     1      44.202 -19.180   2.901  1.00  0.00     0.005 C 
HETATM   37  C   UNL     1      44.166 -18.946   4.417  1.00  0.00     0.005 C 
ENDBRANCH  23  24
ENDBRANCH   1  23
TORSDOF 10
ENDMDL
MODEL 3
REMARK VINA RESULT:      -8.2      1.266      1.965
REMARK  10 active torsions:
REMARK  status: ('A' for Active; 'I' for Inactive)
REMARK    1  A    between atoms: N_2  and  C_3 
REMARK    2  A    between atoms: C_3  and  C_4 
REMARK       I    between atoms: C_4  and  N_5 
REMARK    3  A    between atoms: N_5  and  C_6 
REMARK    4  A    between atoms: C_6  and  C_7 
REMARK    5  A    between atoms: C_7  and  C_8 
REMARK    6  A    between atoms: C_8  and  C_9 
REMARK       I    between atoms: C_9  and  N_10 
REMARK    7  A    between atoms: N_10  and  C_11 
REMARK    8  A    between atoms: C_11  and  C_12 
REMARK    9  A    between atoms: C_12  and  C_13 
REMARK   10  A    between atoms: C_13  and  N_14 
ROOT
HETATM    1  C   UNL     1      45.078 -11.377   7.210  1.00  0.00     0.235 C 
HETATM    2  N   UNL     1      43.793 -11.865   7.364  1.00  0.00    -0.360 N 
HETATM    3  O   UNL     1      45.646 -11.333   6.123  1.00  0.00    -0.272 OA
HETATM    4  H   UNL     1      43.385 -11.923   8.289  1.00  0.00     0.162 HD
ENDROOT
BRANCH   2   5
HETATM    5  C   UNL     1      43.025 -12.362   6.241  1.00  0.00     0.123 C 
BRANCH   5   6
HETATM    6  C   UNL     1      41.620 -11.766   6.205  1.00  0.00     0.029 C 
BRANCH   6   7
HETATM    7  C   UNL     1      40.588 -12.828   5.844  1.00  0.00     0.104 C 
BRANCH   7   8
HETATM    8  C   UNL     1      40.527 -13.031   4.348  1.00  0.00     0.217 C 
HETATM    9  N   UNL     1      39.978 -14.230   3.950  1.00  0.00    -0.361 N 
HETATM   10  H   UNL     1      39.794 -14.929   4.664  1.00  0.00     0.162 HD
HETATM   11  O   UNL     1      40.878 -12.167   3.549  1.00  0.00    -0.274 OA
BRANCH   9  12
HETATM   12  C   UNL     1      39.997 -14.660   2.566  1.00  0.00     0.124 C 
BRANCH  12  13
HETATM   13  C   UNL     1      40.835 -15.920   2.327  1.00  0.00     0.047 C 
BRANCH  13  14
HETATM   14  C   UNL     1      42.304 -15.601   2.047  1.00  0.00     0.236 C 
BRANCH  14  15
HETATM   15  N   UNL     1      43.250 -16.457   2.898  1.00  0.00    -0.071 N 
HETATM   16  H   UNL     1      44.201 -16.261   2.559  1.00  0.00     0.279 HD
HETATM   17  C   UNL     1      43.188 -16.079   4.360  1.00  0.00     0.235 C 
HETATM   18  C   UNL     1      44.181 -16.849   5.222  1.00  0.00     0.028 C 
HETATM   19  C   UNL     1      43.752 -18.286   5.491  1.00  0.00     0.002 C 
HETATM   20  C   UNL     1      44.178 -19.286   4.425  1.00  0.00     0.002 C 
HETATM   21  C   UNL     1      44.161 -18.792   2.983  1.00  0.00     0.028 C 
HETATM   22  C   UNL     1      42.965 -17.926   2.617  1.00  0.00     0.235 C 
ENDBRANCH  14  15
ENDBRANCH  13  14
ENDBRANCH  12  13
ENDBRANCH   9  12
ENDBRANCH   7   8
ENDBRANCH   6   7
ENDBRANCH   5   6
ENDBRANCH   2   5
BRANCH   1  23
HETATM   23  C   UNL     1      45.687 -10.847   8.510  1.00  0.00     0.235 C 
BRANCH  23  24
HETATM   24  N   UNL     1      44.906  -9.750   9.049  1.00  0.00    -0.299 N 
HETATM   25  C   UNL     1      44.766  -8.580   8.327  1.00  0.00     0.214 A 
HETATM   26  N   UNL     1      44.054  -7.558   8.676  1.00  0.00    -0.235 NA
HETATM   27  C   UNL     1      43.425  -7.701   9.869  1.00  0.00     0.115 A 
HETATM   28  C   UNL     1      43.513  -8.781  10.724  1.00  0.00     0.075 A 
HETATM   29  S   UNL     1      42.382  -6.493  10.475  1.00  0.00    -0.073 SA
HETATM   30  C   UNL     1      44.333  -9.906  10.308  1.00  0.00     0.262 A 
HETATM   31  C   UNL     1      42.738  -8.598  11.915  1.00  0.00    -0.026 A 
HETATM   32  O   UNL     1      44.489 -10.912  11.000  1.00  0.00    -0.267 OA
HETATM   33  C   UNL     1      42.049  -7.399  11.876  1.00  0.00    -0.008 A 
HETATM   34  C   UNL     1      42.602  -9.550  13.065  1.00  0.00     0.041 C 
HETATM   35  C   UNL     1      41.128  -6.893  12.942  1.00  0.00     0.047 C 
HETATM   36  C   UNL     1      40.748  -8.028  13.906  1.00  0.00     0.005 C 
HETATM   37  C   UNL     1      41.967  -8.876  14.292  1.00  0.00     0.005 C 
ENDBRANCH  23  24
ENDBRANCH   1  23
TORSDOF 10
ENDMDL
MODEL 4
REMARK VINA RESULT:      -8.2      2.917      9.177
REMARK  10 active torsions:
REMARK  status: ('A' for Active; 'I' for Inactive)
REMARK    1  A    between atoms: N_2  and  C_3 
REMARK    2  A    between atoms: C_3  and  C_4 
REMARK       I    between atoms: C_4  and  N_5 
REMARK    3  A    between atoms: N_5  and  C_6 
REMARK    4  A    between atoms: C_6  and  C_7 
REMARK    5  A    between atoms: C_7  and  C_8 
REMARK    6  A    between atoms: C_8  and  C_9 
REMARK       I    between atoms: C_9  and  N_10 
REMARK    7  A    between atoms: N_10  and  C_11 
REMARK    8  A    between atoms: C_11  and  C_12 
REMARK    9  A    between atoms: C_12  and  C_13 
REMARK   10  A    between atoms: C_13  and  N_14 
ROOT
HETATM    1  C   UNL     1      40.063 -12.058   6.152  1.00  0.00     0.235 C 
HETATM    2  N   UNL     1      40.111 -10.922   6.940  1.00  0.00    -0.360 N 
HETATM    3  O   UNL     1      39.128 -12.851   6.189  1.00  0.00    -0.272 OA
HETATM    4  H   UNL     1      40.926 -10.321   6.908  1.00  0.00     0.162 HD
ENDROOT
BRANCH   2   5
HETATM    5  C   UNL     1      39.051 -10.590   7.869  1.00  0.00     0.123 C 
BRANCH   5   6
HETATM    6  C   UNL     1      39.464  -9.481   8.833  1.00  0.00     0.029 C 
BRANCH   6   7
HETATM    7  C   UNL     1      39.187  -9.883  10.276  1.00  0.00     0.104 C 
BRANCH   7   8
HETATM    8  C   UNL     1      40.336  -9.488  11.175  1.00  0.00     0.217 C 
HETATM    9  N   UNL     1      41.527 -10.124  10.901  1.00  0.00    -0.361 N 
HETATM   10  H   UNL     1      41.515 -10.891  10.236  1.00  0.00     0.162 HD
HETATM   11  O   UNL     1      40.233  -8.621  12.037  1.00  0.00    -0.274 OA
BRANCH   9  12
HETATM   12  C   UNL     1      42.683  -9.993  11.767  1.00  0.00     0.124 C 
BRANCH  12  13
HETATM   13  C   UNL     1      43.707  -8.969  11.271  1.00  0.00     0.047 C 
BRANCH  13  14
HETATM   14  C   UNL     1      43.282  -8.304   9.962  1.00  0.00     0.236 C 
BRANCH  14  15
HETATM   15  N   UNL     1      44.117  -8.793   8.771  1.00  0.00    -0.071 N 
HETATM   16  H   UNL     1      44.049  -8.063   8.050  1.00  0.00     0.279 HD
HETATM   17  C   UNL     1      45.574  -8.955   9.136  1.00  0.00     0.235 C 
HETATM   18  C   UNL     1      46.448  -9.354   7.953  1.00  0.00     0.028 C 
HETATM   19  C   UNL     1      46.298 -10.820   7.565  1.00  0.00     0.002 C 
HETATM   20  C   UNL     1      45.162 -11.106   6.591  1.00  0.00     0.002 C 
HETATM   21  C   UNL     1      43.895 -10.276   6.761  1.00  0.00     0.028 C 
HETATM   22  C   UNL     1      43.468 -10.048   8.204  1.00  0.00     0.235 C 
ENDBRANCH  14  15
ENDBRANCH  13  14
ENDBRANCH  12  13
ENDBRANCH   9  12
ENDBRANCH   7   8
ENDBRANCH   6   7
ENDBRANCH   5   6
ENDBRANCH   2   5
BRANCH   1  23
HETATM   23  C   UNL     1      41.252 -12.187   5.199  1.00  0.00     0.235 C 
BRANCH  23  24
HETATM   24  N   UNL     1      41.996 -13.406   5.446  1.00  0.00    -0.299 N 
HETATM   25  C   UNL     1      42.554 -13.637   6.689  1.00  0.00     0.214 A 
HETATM   26  N   UNL     1      43.190 -14.705   7.044  1.00  0.00    -0.235 NA
HETATM   27  C   UNL     1      43.299 -15.639   6.066  1.00  0.00     0.115 A 
HETATM   28  C   UNL     1      42.845 -15.530   4.768  1.00  0.00     0.075 A 
HETATM   29  S   UNL     1      44.042 -17.148   6.356  1.00  0.00    -0.073 SA
HETATM   30  C   UNL     1      42.147 -14.310   4.397  1.00  0.00     0.262 A 
HETATM   31  C   UNL     1      43.144 -16.691   3.986  1.00  0.00    -0.026 A 
HETATM   32  O   UNL     1      41.713 -14.106   3.264  1.00  0.00    -0.267 OA
HETATM   33  C   UNL     1      43.767 -17.657   4.756  1.00  0.00    -0.008 A 
HETATM   34  C   UNL     1      42.815 -16.924   2.541  1.00  0.00     0.041 C 
HETATM   35  C   UNL     1      44.204 -19.005   4.271  1.00  0.00     0.047 C 
HETATM   36  C   UNL     1      43.544 -19.330   2.922  1.00  0.00     0.005 C 
HETATM   37  C   UNL     1      43.580 -18.128   1.969  1.00  0.00     0.005 C 
ENDBRANCH  23  24
ENDBRANCH   1  23
TORSDOF 10
ENDMDL
MODEL 5
REMARK VINA RESULT:      -8.0      2.896      9.977
REMARK  10 active torsions:
REMARK  status: ('A' for Active; 'I' for Inactive)
REMARK    1  A    between atoms: N_2  and  C_3 
REMARK    2  A    between atoms: C_3  and  C_4 
REMARK       I    between atoms: C_4  and  N_5 
REMARK    3  A    between atoms: N_5  and  C_6 
REMARK    4  A    between atoms: C_6  and  C_7 
REMARK    5  A    between atoms: C_7  and  C_8 
REMARK    6  A    between atoms: C_8  and  C_9 
REMARK       I    between atoms: C_9  and  N_10 
REMARK    7  A    between atoms: N_10  and  C_11 
REMARK    8  A    between atoms: C_11  and  C_12 
REMARK    9  A    between atoms: C_12  and  C_13 
REMARK   10  A    between atoms: C_13  and  N_14 
ROOT
HETATM    1  C   UNL     1      40.441 -12.991   2.877  1.00  0.00     0.235 C 
HETATM    2  N   UNL     1      40.356 -11.630   3.113  1.00  0.00    -0.360 N 
HETATM    3  O   UNL     1      39.501 -13.757   3.065  1.00  0.00    -0.272 OA
HETATM    4  H   UNL     1      41.174 -11.046   2.987  1.00  0.00     0.162 HD
ENDROOT
BRANCH   2   5
HETATM    5  C   UNL     1      39.140 -11.014   3.600  1.00  0.00     0.123 C 
BRANCH   5   6
HETATM    6  C   UNL     1      39.383 -10.198   4.867  1.00  0.00     0.029 C 
BRANCH   6   7
HETATM    7  C   UNL     1      39.896 -11.084   5.995  1.00  0.00     0.104 C 
BRANCH   7   8
HETATM    8  C   UNL     1      41.209 -10.563   6.533  1.00  0.00     0.217 C 
HETATM    9  N   UNL     1      42.325 -11.003   5.857  1.00  0.00    -0.361 N 
HETATM   10  H   UNL     1      42.203 -11.734   5.163  1.00  0.00     0.162 HD
HETATM   11  O   UNL     1      41.270  -9.759   7.459  1.00  0.00    -0.274 OA
BRANCH   9  12
HETATM   12  C   UNL     1      43.667 -10.741   6.340  1.00  0.00     0.124 C 
BRANCH  12  13
HETATM   13  C   UNL     1      44.050 -11.571   7.569  1.00  0.00     0.047 C 
BRANCH  13  14
HETATM   14  C   UNL     1      44.782 -10.745   8.627  1.00  0.00     0.236 C 
BRANCH  14  15
HETATM   15  N   UNL     1      43.809 -10.035   9.577  1.00  0.00    -0.071 N 
HETATM   16  H   UNL     1      42.864 -10.226   9.220  1.00  0.00     0.279 HD
HETATM   17  C   UNL     1      43.897 -10.582  10.983  1.00  0.00     0.235 C 
HETATM   18  C   UNL     1      42.880  -9.961  11.933  1.00  0.00     0.028 C 
HETATM   19  C   UNL     1      43.254  -8.551  12.371  1.00  0.00     0.002 C 
HETATM   20  C   UNL     1      42.782  -7.448  11.434  1.00  0.00     0.002 C 
HETATM   21  C   UNL     1      42.807  -7.765   9.943  1.00  0.00     0.028 C 
HETATM   22  C   UNL     1      44.034  -8.533   9.473  1.00  0.00     0.235 C 
ENDBRANCH  14  15
ENDBRANCH  13  14
ENDBRANCH  12  13
ENDBRANCH   9  12
ENDBRANCH   7   8
ENDBRANCH   6   7
ENDBRANCH   5   6
ENDBRANCH   2   5
BRANCH   1  23
HETATM   23  C   UNL     1      41.793 -13.425   2.308  1.00  0.00     0.235 C 
BRANCH  23  24
HETATM   24  N   UNL     1      42.416 -14.434   3.142  1.00  0.00    -0.299 N 
HETATM   25  C   UNL     1      42.847 -14.111   4.415  1.00  0.00     0.214 A 
HETATM   26  N   UNL     1      43.365 -14.933   5.268  1.00  0.00    -0.235 NA
HETATM   27  C   UNL     1      43.484 -16.205   4.813  1.00  0.00     0.115 A 
HETATM   28  C   UNL     1      43.153 -16.665   3.554  1.00  0.00     0.075 A 
HETATM   29  S   UNL     1      44.081 -17.455   5.810  1.00  0.00    -0.073 SA
HETATM   30  C   UNL     1      42.586 -15.712   2.615  1.00  0.00     0.262 A 
HETATM   31  C   UNL     1      43.427 -18.062   3.394  1.00  0.00    -0.026 A 
HETATM   32  O   UNL     1      42.267 -16.014   1.466  1.00  0.00    -0.267 OA
HETATM   33  C   UNL     1      43.905 -18.609   4.572  1.00  0.00    -0.008 A 
HETATM   34  C   UNL     1      43.205 -18.896   2.169  1.00  0.00     0.041 C 
HETATM   35  C   UNL     1      44.275 -20.045   4.773  1.00  0.00     0.047 C 
HETATM   36  C   UNL     1      43.709 -20.910   3.636  1.00  0.00     0.005 C 
HETATM   37  C   UNL     1      43.921 -20.253   2.265  1.00  0.00     0.005 C 
ENDBRANCH  23  24
ENDBRANCH   1  23
TORSDOF 10
ENDMDL
MODEL 6
REMARK VINA RESULT:      -8.0      2.988     10.044
REMARK  10 active torsions:
REMARK  status: ('A' for Active; 'I' for Inactive)
REMARK    1  A    between atoms: N_2  and  C_3 
REMARK    2  A    between atoms: C_3  and  C_4 
REMARK       I    between atoms: C_4  and  N_5 
REMARK    3  A    between atoms: N_5  and  C_6 
REMARK    4  A    between atoms: C_6  and  C_7 
REMARK    5  A    between atoms: C_7  and  C_8 
REMARK    6  A    between atoms: C_8  and  C_9 
REMARK       I    between atoms: C_9  and  N_10 
REMARK    7  A    between atoms: N_10  and  C_11 
REMARK    8  A    between atoms: C_11  and  C_12 
REMARK    9  A    between atoms: C_12  and  C_13 
REMARK   10  A    between atoms: C_13  and  N_14 
ROOT
HETATM    1  C   UNL     1      43.659 -11.788   5.777  1.00  0.00     0.235 C 
HETATM    2  N   UNL     1      44.560 -11.931   6.817  1.00  0.00    -0.360 N 
HETATM    3  O   UNL     1      43.841 -11.014   4.842  1.00  0.00    -0.272 OA
HETATM    4  H   UNL     1      44.343 -12.549   7.589  1.00  0.00     0.162 HD
ENDROOT
BRANCH   2   5
HETATM    5  C   UNL     1      45.791 -11.169   6.871  1.00  0.00     0.123 C 
BRANCH   5   6
HETATM    6  C   UNL     1      46.020 -10.556   8.250  1.00  0.00     0.029 C 
BRANCH   6   7
HETATM    7  C   UNL     1      45.211  -9.276   8.417  1.00  0.00     0.104 C 
BRANCH   7   8
HETATM    8  C   UNL     1      43.875  -9.564   9.061  1.00  0.00     0.217 C 
HETATM    9  N   UNL     1      42.781  -9.263   8.280  1.00  0.00    -0.361 N 
HETATM   10  H   UNL     1      42.939  -8.752   7.417  1.00  0.00     0.162 HD
HETATM   11  O   UNL     1      43.773 -10.087  10.167  1.00  0.00    -0.274 OA
BRANCH   9  12
HETATM   12  C   UNL     1      41.429  -9.316   8.801  1.00  0.00     0.124 C 
BRANCH  12  13
HETATM   13  C   UNL     1      40.673  -7.989   8.681  1.00  0.00     0.047 C 
BRANCH  13  14
HETATM   14  C   UNL     1      40.510  -7.286  10.029  1.00  0.00     0.236 C 
BRANCH  14  15
HETATM   15  N   UNL     1      41.314  -7.975  11.138  1.00  0.00    -0.071 N 
HETATM   16  H   UNL     1      41.670  -8.852  10.736  1.00  0.00     0.279 HD
HETATM   17  C   UNL     1      42.500  -7.144  11.571  1.00  0.00     0.235 C 
HETATM   18  C   UNL     1      43.373  -7.839  12.609  1.00  0.00     0.028 C 
HETATM   19  C   UNL     1      42.760  -7.839  14.004  1.00  0.00     0.002 C 
HETATM   20  C   UNL     1      41.816  -9.001  14.284  1.00  0.00     0.002 C 
HETATM   21  C   UNL     1      40.949  -9.468  13.120  1.00  0.00     0.028 C 
HETATM   22  C   UNL     1      40.365  -8.351  12.268  1.00  0.00     0.235 C 
ENDBRANCH  14  15
ENDBRANCH  13  14
ENDBRANCH  12  13
ENDBRANCH   9  12
ENDBRANCH   7   8
ENDBRANCH   6   7
ENDBRANCH   5   6
ENDBRANCH   2   5
BRANCH   1  23
HETATM   23  C   UNL     1      42.457 -12.728   5.881  1.00  0.00     0.235 C 
BRANCH  23  24
HETATM   24  N   UNL     1      42.610 -13.879   5.013  1.00  0.00    -0.299 N 
HETATM   25  C   UNL     1      42.499 -13.733   3.643  1.00  0.00     0.214 A 
HETATM   26  N   UNL     1      42.669 -14.669   2.768  1.00  0.00    -0.235 NA
HETATM   27  C   UNL     1      42.967 -15.881   3.300  1.00  0.00     0.115 A 
HETATM   28  C   UNL     1      43.056 -16.193   4.642  1.00  0.00     0.075 A 
HETATM   29  S   UNL     1      43.296 -17.231   2.310  1.00  0.00    -0.073 SA
HETATM   30  C   UNL     1      42.845 -15.120   5.599  1.00  0.00     0.262 A 
HETATM   31  C   UNL     1      43.366 -17.574   4.861  1.00  0.00    -0.026 A 
HETATM   32  O   UNL     1      42.891 -15.293   6.817  1.00  0.00    -0.267 OA
HETATM   33  C   UNL     1      43.553 -18.234   3.660  1.00  0.00    -0.008 A 
HETATM   34  C   UNL     1      43.531 -18.270   6.179  1.00  0.00     0.041 C 
HETATM   35  C   UNL     1      43.909 -19.681   3.511  1.00  0.00     0.047 C 
HETATM   36  C   UNL     1      44.407 -20.251   4.849  1.00  0.00     0.005 C 
HETATM   37  C   UNL     1      43.526 -19.799   6.021  1.00  0.00     0.005 C 
ENDBRANCH  23  24
ENDBRANCH   1  23
TORSDOF 10
ENDMDL
MODEL 7
REMARK VINA RESULT:      -7.9      3.362     11.307
REMARK  10 active torsions:
REMARK  status: ('A' for Active; 'I' for Inactive)
REMARK    1  A    between atoms: N_2  and  C_3 
REMARK    2  A    between atoms: C_3  and  C_4 
REMARK       I    between atoms: C_4  and  N_5 
REMARK    3  A    between atoms: N_5  and  C_6 
REMARK    4  A    between atoms: C_6  and  C_7 
REMARK    5  A    between atoms: C_7  and  C_8 
REMARK    6  A    between atoms: C_8  and  C_9 
REMARK       I    between atoms: C_9  and  N_10 
REMARK    7  A    between atoms: N_10  and  C_11 
REMARK    8  A    between atoms: C_11  and  C_12 
REMARK    9  A    between atoms: C_12  and  C_13 
REMARK   10  A    between atoms: C_13  and  N_14 
ROOT
HETATM    1  C   UNL     1      43.560 -11.737   5.860  1.00  0.00     0.235 C 
HETATM    2  N   UNL     1      44.046 -11.896   7.146  1.00  0.00    -0.360 N 
HETATM    3  O   UNL     1      44.160 -11.103   4.997  1.00  0.00    -0.272 OA
HETATM    4  H   UNL     1      43.493 -12.389   7.835  1.00  0.00     0.162 HD
ENDROOT
BRANCH   2   5
HETATM    5  C   UNL     1      45.308 -11.319   7.562  1.00  0.00     0.123 C 
BRANCH   5   6
HETATM    6  C   UNL     1      45.123 -10.284   8.668  1.00  0.00     0.029 C 
BRANCH   6   7
HETATM    7  C   UNL     1      43.685 -10.278   9.172  1.00  0.00     0.104 C 
BRANCH   7   8
HETATM    8  C   UNL     1      43.629 -10.622  10.642  1.00  0.00     0.217 C 
HETATM    9  N   UNL     1      42.503 -10.173  11.297  1.00  0.00    -0.361 N 
HETATM   10  H   UNL     1      41.884  -9.541  10.800  1.00  0.00     0.162 HD
HETATM   11  O   UNL     1      44.486 -11.305  11.194  1.00  0.00    -0.274 OA
BRANCH   9  12
HETATM   12  C   UNL     1      42.367 -10.265  12.738  1.00  0.00     0.124 C 
BRANCH  12  13
HETATM   13  C   UNL     1      41.335  -9.294  13.319  1.00  0.00     0.047 C 
BRANCH  13  14
HETATM   14  C   UNL     1      41.914  -8.429  14.440  1.00  0.00     0.236 C 
BRANCH  14  15
HETATM   15  N   UNL     1      40.815  -7.809  15.313  1.00  0.00    -0.071 N 
HETATM   16  H   UNL     1      40.009  -8.445  15.258  1.00  0.00     0.279 HD
HETATM   17  C   UNL     1      41.237  -7.713  16.761  1.00  0.00     0.235 C 
HETATM   18  C   UNL     1      40.136  -7.185  17.673  1.00  0.00     0.028 C 
HETATM   19  C   UNL     1      39.926  -5.680  17.548  1.00  0.00     0.002 C 
HETATM   20  C   UNL     1      38.964  -5.262  16.445  1.00  0.00     0.002 C 
HETATM   21  C   UNL     1      38.997  -6.089  15.164  1.00  0.00     0.028 C 
HETATM   22  C   UNL     1      40.388  -6.485  14.694  1.00  0.00     0.235 C 
ENDBRANCH  14  15
ENDBRANCH  13  14
ENDBRANCH  12  13
ENDBRANCH   9  12
ENDBRANCH   7   8
ENDBRANCH   6   7
ENDBRANCH   5   6
ENDBRANCH   2   5
BRANCH   1  23
HETATM   23  C   UNL     1      42.244 -12.476   5.613  1.00  0.00     0.235 C 
BRANCH  23  24
HETATM   24  N   UNL     1      42.446 -13.653   4.790  1.00  0.00    -0.299 N 
HETATM   25  C   UNL     1      42.345 -13.561   3.414  1.00  0.00     0.214 A 
HETATM   26  N   UNL     1      42.557 -14.523   2.577  1.00  0.00    -0.235 NA
HETATM   27  C   UNL     1      42.890 -15.703   3.157  1.00  0.00     0.115 A 
HETATM   28  C   UNL     1      42.975 -15.961   4.510  1.00  0.00     0.075 A 
HETATM   29  S   UNL     1      43.276 -17.077   2.221  1.00  0.00    -0.073 SA
HETATM   30  C   UNL     1      42.717 -14.862   5.425  1.00  0.00     0.262 A 
HETATM   31  C   UNL     1      43.329 -17.322   4.784  1.00  0.00    -0.026 A 
HETATM   32  O   UNL     1      42.755 -14.988   6.648  1.00  0.00    -0.267 OA
HETATM   33  C   UNL     1      43.553 -18.020   3.610  1.00  0.00    -0.008 A 
HETATM   34  C   UNL     1      43.503 -17.962   6.129  1.00  0.00     0.041 C 
HETATM   35  C   UNL     1      43.959 -19.458   3.520  1.00  0.00     0.047 C 
HETATM   36  C   UNL     1      44.462 -19.960   4.882  1.00  0.00     0.005 C 
HETATM   37  C   UNL     1      43.553 -19.495   6.028  1.00  0.00     0.005 C 
ENDBRANCH  23  24
ENDBRANCH   1  23
TORSDOF 10
ENDMDL
MODEL 8
REMARK VINA RESULT:      -7.9      4.223      8.613
REMARK  10 active torsions:
REMARK  status: ('A' for Active; 'I' for Inactive)
REMARK    1  A    between atoms: N_2  and  C_3 
REMARK    2  A    between atoms: C_3  and  C_4 
REMARK       I    between atoms: C_4  and  N_5 
REMARK    3  A    between atoms: N_5  and  C_6 
REMARK    4  A    between atoms: C_6  and  C_7 
REMARK    5  A    between atoms: C_7  and  C_8 
REMARK    6  A    between atoms: C_8  and  C_9 
REMARK       I    between atoms: C_9  and  N_10 
REMARK    7  A    between atoms: N_10  and  C_11 
REMARK    8  A    between atoms: C_11  and  C_12 
REMARK    9  A    between atoms: C_12  and  C_13 
REMARK   10  A    between atoms: C_13  and  N_14 
ROOT
HETATM    1  C   UNL     1      43.966 -12.548   6.845  1.00  0.00     0.235 C 
HETATM    2  N   UNL     1      42.965 -11.689   7.266  1.00  0.00    -0.360 N 
HETATM    3  O   UNL     1      45.007 -12.152   6.330  1.00  0.00    -0.272 OA
HETATM    4  H   UNL     1      42.105 -12.067   7.643  1.00  0.00     0.162 HD
ENDROOT
BRANCH   2   5
HETATM    5  C   UNL     1      43.082 -10.253   7.125  1.00  0.00     0.123 C 
BRANCH   5   6
HETATM    6  C   UNL     1      41.855  -9.645   6.451  1.00  0.00     0.029 C 
BRANCH   6   7
HETATM    7  C   UNL     1      40.577 -10.065   7.168  1.00  0.00     0.104 C 
BRANCH   7   8
HETATM    8  C   UNL     1      39.594 -10.678   6.199  1.00  0.00     0.217 C 
HETATM    9  N   UNL     1      39.868 -10.440   4.870  1.00  0.00    -0.361 N 
HETATM   10  H   UNL     1      40.601  -9.772   4.648  1.00  0.00     0.162 HD
HETATM   11  O   UNL     1      38.661 -11.388   6.564  1.00  0.00    -0.274 OA
BRANCH   9  12
HETATM   12  C   UNL     1      38.940 -10.806   3.817  1.00  0.00     0.124 C 
BRANCH  12  13
HETATM   13  C   UNL     1      39.411 -11.992   2.971  1.00  0.00     0.047 C 
BRANCH  13  14
HETATM   14  C   UNL     1      40.651 -11.661   2.140  1.00  0.00     0.236 C 
BRANCH  14  15
HETATM   15  N   UNL     1      40.753 -12.537   0.885  1.00  0.00    -0.071 N 
HETATM   16  H   UNL     1      41.753 -12.738   0.752  1.00  0.00     0.279 HD
HETATM   17  C   UNL     1      40.030 -13.852   1.059  1.00  0.00     0.235 C 
HETATM   18  C   UNL     1      40.186 -14.785  -0.137  1.00  0.00     0.028 C 
HETATM   19  C   UNL     1      39.330 -14.378  -1.329  1.00  0.00     0.002 C 
HETATM   20  C   UNL     1      39.980 -13.367  -2.263  1.00  0.00     0.002 C 
HETATM   21  C   UNL     1      40.852 -12.300  -1.610  1.00  0.00     0.028 C 
HETATM   22  C   UNL     1      40.294 -11.722  -0.317  1.00  0.00     0.235 C 
ENDBRANCH  14  15
ENDBRANCH  13  14
ENDBRANCH  12  13
ENDBRANCH   9  12
ENDBRANCH   7   8
ENDBRANCH   6   7
ENDBRANCH   5   6
ENDBRANCH   2   5
BRANCH   1  23
HETATM   23  C   UNL     1      43.668 -14.019   7.142  1.00  0.00     0.235 C 
BRANCH  23  24
HETATM   24  N   UNL     1      43.328 -14.742   5.933  1.00  0.00    -0.299 N 
HETATM   25  C   UNL     1      42.701 -14.089   4.888  1.00  0.00     0.214 A 
HETATM   26  N   UNL     1      42.399 -14.612   3.744  1.00  0.00    -0.235 NA
HETATM   27  C   UNL     1      42.738 -15.920   3.623  1.00  0.00     0.115 A 
HETATM   28  C   UNL     1      43.314 -16.715   4.592  1.00  0.00     0.075 A 
HETATM   29  S   UNL     1      42.486 -16.772   2.167  1.00  0.00    -0.073 SA
HETATM   30  C   UNL     1      43.628 -16.101   5.871  1.00  0.00     0.262 A 
HETATM   31  C   UNL     1      43.520 -18.059   4.143  1.00  0.00    -0.026 A 
HETATM   32  O   UNL     1      44.132 -16.722   6.806  1.00  0.00    -0.267 OA
HETATM   33  C   UNL     1      43.137 -18.202   2.821  1.00  0.00    -0.008 A 
HETATM   34  C   UNL     1      44.111 -19.197   4.920  1.00  0.00     0.041 C 
HETATM   35  C   UNL     1      43.231 -19.464   2.021  1.00  0.00     0.047 C 
HETATM   36  C   UNL     1      44.148 -20.477   2.724  1.00  0.00     0.005 C 
HETATM   37  C   UNL     1      43.864 -20.548   4.231  1.00  0.00     0.005 C 
ENDBRANCH  23  24
ENDBRANCH   1  23
TORSDOF 10
ENDMDL
MODEL 9
REMARK VINA RESULT:      -7.8      2.888     10.274
REMARK  10 active torsions:
REMARK  status: ('A' for Active; 'I' for Inactive)
REMARK    1  A    between atoms: N_2  and  C_3 
REMARK    2  A    between atoms: C_3  and  C_4 
REMARK       I    between atoms: C_4  and  N_5 
REMARK    3  A    between atoms: N_5  and  C_6 
REMARK    4  A    between atoms: C_6  and  C_7 
REMARK    5  A    between atoms: C_7  and  C_8 
REMARK    6  A    between atoms: C_8  and  C_9 
REMARK       I    between atoms: C_9  and  N_10 
REMARK    7  A    between atoms: N_10  and  C_11 
REMARK    8  A    between atoms: C_11  and  C_12 
REMARK    9  A    between atoms: C_12  and  C_13 
REMARK   10  A    between atoms: C_13  and  N_14 
ROOT
HETATM    1  C   UNL     1      40.449 -12.297   3.801  1.00  0.00     0.235 C 
HETATM    2  N   UNL     1      40.425 -10.916   3.872  1.00  0.00    -0.360 N 
HETATM    3  O   UNL     1      39.576 -13.003   4.296  1.00  0.00    -0.272 OA
HETATM    4  H   UNL     1      41.193 -10.379   3.488  1.00  0.00     0.162 HD
ENDROOT
BRANCH   2   5
HETATM    5  C   UNL     1      39.357 -10.204   4.543  1.00  0.00     0.123 C 
BRANCH   5   6
HETATM    6  C   UNL     1      39.886  -9.299   5.653  1.00  0.00     0.029 C 
BRANCH   6   7
HETATM    7  C   UNL     1      40.374 -10.122   6.839  1.00  0.00     0.104 C 
BRANCH   7   8
HETATM    8  C   UNL     1      41.881 -10.078   6.939  1.00  0.00     0.217 C 
HETATM    9  N   UNL     1      42.370  -9.908   8.215  1.00  0.00    -0.361 N 
HETATM   10  H   UNL     1      41.708  -9.686   8.953  1.00  0.00     0.162 HD
HETATM   11  O   UNL     1      42.613 -10.247   5.968  1.00  0.00    -0.274 OA
BRANCH   9  12
HETATM   12  C   UNL     1      43.778  -9.674   8.473  1.00  0.00     0.124 C 
BRANCH  12  13
HETATM   13  C   UNL     1      44.137  -9.674   9.962  1.00  0.00     0.047 C 
BRANCH  13  14
HETATM   14  C   UNL     1      43.060 -10.335  10.823  1.00  0.00     0.236 C 
BRANCH  14  15
HETATM   15  N   UNL     1      42.431  -9.349  11.815  1.00  0.00    -0.071 N 
HETATM   16  H   UNL     1      41.829  -8.725  11.261  1.00  0.00     0.279 HD
HETATM   17  C   UNL     1      41.564 -10.053  12.833  1.00  0.00     0.235 C 
HETATM   18  C   UNL     1      40.852  -9.094  13.780  1.00  0.00     0.028 C 
HETATM   19  C   UNL     1      41.772  -8.511  14.845  1.00  0.00     0.002 C 
HETATM   20  C   UNL     1      42.517  -7.252  14.422  1.00  0.00     0.002 C 
HETATM   21  C   UNL     1      42.974  -7.189  12.968  1.00  0.00     0.028 C 
HETATM   22  C   UNL     1      43.536  -8.490  12.417  1.00  0.00     0.235 C 
ENDBRANCH  14  15
ENDBRANCH  13  14
ENDBRANCH  12  13
ENDBRANCH   9  12
ENDBRANCH   7   8
ENDBRANCH   6   7
ENDBRANCH   5   6
ENDBRANCH   2   5
BRANCH   1  23
HETATM   23  C   UNL     1      41.631 -12.844   2.997  1.00  0.00     0.235 C 
BRANCH  23  24
HETATM   24  N   UNL     1      42.303 -13.913   3.708  1.00  0.00    -0.299 N 
HETATM   25  C   UNL     1      42.805 -13.691   4.977  1.00  0.00     0.214 A 
HETATM   26  N   UNL     1      43.373 -14.577   5.729  1.00  0.00    -0.235 NA
HETATM   27  C   UNL     1      43.470 -15.807   5.165  1.00  0.00     0.115 A 
HETATM   28  C   UNL     1      43.068 -16.164   3.894  1.00  0.00     0.075 A 
HETATM   29  S   UNL     1      44.125 -17.129   6.021  1.00  0.00    -0.073 SA
HETATM   30  C   UNL     1      42.447 -15.142   3.069  1.00  0.00     0.262 A 
HETATM   31  C   UNL     1      43.337 -17.541   3.604  1.00  0.00    -0.026 A 
HETATM   32  O   UNL     1      42.064 -15.352   1.919  1.00  0.00    -0.267 OA
HETATM   33  C   UNL     1      43.883 -18.179   4.704  1.00  0.00    -0.008 A 
HETATM   34  C   UNL     1      43.048 -18.274   2.329  1.00  0.00     0.041 C 
HETATM   35  C   UNL     1      44.268 -19.624   4.766  1.00  0.00     0.047 C 
HETATM   36  C   UNL     1      43.641 -20.397   3.595  1.00  0.00     0.005 C 
HETATM   37  C   UNL     1      43.772 -19.629   2.273  1.00  0.00     0.005 C 
ENDBRANCH  23  24
ENDBRANCH   1  23
TORSDOF 10
ENDMDL
MODEL 10
REMARK VINA RESULT:      -7.8      3.104      9.737
REMARK  10 active torsions:
REMARK  status: ('A' for Active; 'I' for Inactive)
REMARK    1  A    between atoms: N_2  and  C_3 
REMARK    2  A    between atoms: C_3  and  C_4 
REMARK       I    between atoms: C_4  and  N_5 
REMARK    3  A    between atoms: N_5  and  C_6 
REMARK    4  A    between atoms: C_6  and  C_7 
REMARK    5  A    between atoms: C_7  and  C_8 
REMARK    6  A    between atoms: C_8  and  C_9 
REMARK       I    between atoms: C_9  and  N_10 
REMARK    7  A    between atoms: N_10  and  C_11 
REMARK    8  A    between atoms: C_11  and  C_12 
REMARK    9  A    between atoms: C_12  and  C_13 
REMARK   10  A    between atoms: C_13  and  N_14 
ROOT
HETATM    1  C   UNL     1      43.873 -11.517   5.827  1.00  0.00     0.235 C 
HETATM    2  N   UNL     1      44.697 -11.447   6.936  1.00  0.00    -0.360 N 
HETATM    3  O   UNL     1      44.228 -11.145   4.712  1.00  0.00    -0.272 OA
HETATM    4  H   UNL     1      44.342 -11.724   7.844  1.00  0.00     0.162 HD
ENDROOT
BRANCH   2   5
HETATM    5  C   UNL     1      46.044 -10.923   6.856  1.00  0.00     0.123 C 
BRANCH   5   6
HETATM    6  C   UNL     1      46.408 -10.097   8.086  1.00  0.00     0.029 C 
BRANCH   6   7
HETATM    7  C   UNL     1      45.217  -9.274   8.561  1.00  0.00     0.104 C 
BRANCH   7   8
HETATM    8  C   UNL     1      44.844  -9.637   9.979  1.00  0.00     0.217 C 
HETATM    9  N   UNL     1      43.943  -8.783  10.576  1.00  0.00    -0.361 N 
HETATM   10  H   UNL     1      43.712  -7.921  10.091  1.00  0.00     0.162 HD
HETATM   11  O   UNL     1      45.261 -10.650  10.534  1.00  0.00    -0.274 OA
BRANCH   9  12
HETATM   12  C   UNL     1      43.607  -8.883  11.983  1.00  0.00     0.124 C 
BRANCH  12  13
HETATM   13  C   UNL     1      42.271  -9.582  12.246  1.00  0.00     0.047 C 
BRANCH  13  14
HETATM   14  C   UNL     1      41.153  -8.597  12.589  1.00  0.00     0.236 C 
BRANCH  14  15
HETATM   15  N   UNL     1      40.296  -8.251  11.365  1.00  0.00    -0.071 N 
HETATM   16  H   UNL     1      39.329  -8.167  11.703  1.00  0.00     0.279 HD
HETATM   17  C   UNL     1      40.696  -6.926  10.757  1.00  0.00     0.235 C 
HETATM   18  C   UNL     1      39.806  -6.508   9.593  1.00  0.00     0.028 C 
HETATM   19  C   UNL     1      40.097  -7.277   8.310  1.00  0.00     0.002 C 
HETATM   20  C   UNL     1      39.347  -8.595   8.175  1.00  0.00     0.002 C 
HETATM   21  C   UNL     1      39.137  -9.393   9.457  1.00  0.00     0.028 C 
HETATM   22  C   UNL     1      40.334  -9.424  10.394  1.00  0.00     0.235 C 
ENDBRANCH  14  15
ENDBRANCH  13  14
ENDBRANCH  12  13
ENDBRANCH   9  12
ENDBRANCH   7   8
ENDBRANCH   6   7
ENDBRANCH   5   6
ENDBRANCH   2   5
BRANCH   1  23
HETATM   23  C   UNL     1      42.515 -12.157   6.118  1.00  0.00     0.235 C 
BRANCH  23  24
HETATM   24  N   UNL     1      42.209 -13.204   5.162  1.00  0.00    -0.299 N 
HETATM   25  C   UNL     1      41.261 -12.989   4.179  1.00  0.00     0.214 A 
HETATM   26  N   UNL     1      40.944 -13.822   3.242  1.00  0.00    -0.235 NA
HETATM   27  C   UNL     1      41.622 -14.996   3.288  1.00  0.00     0.115 A 
HETATM   28  C   UNL     1      42.551 -15.375   4.236  1.00  0.00     0.075 A 
HETATM   29  S   UNL     1      41.398 -16.200   2.100  1.00  0.00    -0.073 SA
HETATM   30  C   UNL     1      42.875 -14.421   5.283  1.00  0.00     0.262 A 
HETATM   31  C   UNL     1      43.062 -16.693   4.003  1.00  0.00    -0.026 A 
HETATM   32  O   UNL     1      43.679 -14.663   6.183  1.00  0.00    -0.267 OA
HETATM   33  C   UNL     1      42.530 -17.230   2.844  1.00  0.00    -0.008 A 
HETATM   34  C   UNL     1      44.072 -17.435   4.825  1.00  0.00     0.041 C 
HETATM   35  C   UNL     1      42.855 -18.580   2.284  1.00  0.00     0.047 C 
HETATM   36  C   UNL     1      44.125 -19.141   2.942  1.00  0.00     0.005 C 
HETATM   37  C   UNL     1      44.119 -18.927   4.461  1.00  0.00     0.005 C 
ENDBRANCH  23  24
ENDBRANCH   1  23
TORSDOF 10
ENDMDL
