MODEL 1
REMARK VINA RESULT:      -8.0      0.000      0.000
REMARK  5 active torsions:
REMARK  status: ('A' for Active; 'I' for Inactive)
REMARK    1  A    between atoms: C_2  and  N_4 
REMARK    2  A    between atoms: N_4  and  C_5 
REMARK       I    between atoms: N_4  and  C_12 
REMARK    3  A    between atoms: C_5  and  C_6 
REMARK       I    between atoms: C_12  and  N_14 
REMARK    4  A    between atoms: N_14  and  C_15 
REMARK    5  A    between atoms: C_18  and  C_21 
ROOT
HETATM    1  N   UNL     1      41.501 -11.687   4.882  1.00  0.00    -0.326 N 
HETATM    2  C   UNL     1      41.412 -13.073   4.695  1.00  0.00     0.323 C 
HETATM    3  O   UNL     1      40.331 -13.642   4.575  1.00  0.00    -0.247 OA
HETATM    4  N   UNL     1      42.628 -13.724   4.678  1.00  0.00    -0.309 N 
HETATM    5  H   UNL     1      43.380 -13.259   5.163  1.00  0.00     0.170 HD
ENDROOT
BRANCH   4   6
HETATM    6  C   UNL     1      42.875 -15.064   4.317  1.00  0.00     0.036 A 
HETATM    7  C   UNL     1      42.962 -15.509   2.999  1.00  0.00     0.030 A 
HETATM    8  C   UNL     1      43.229 -16.855   2.718  1.00  0.00     0.014 A 
HETATM    9  C   UNL     1      43.420 -17.781   3.750  1.00  0.00    -0.023 A 
HETATM   10  C   UNL     1      43.348 -17.328   5.072  1.00  0.00     0.014 A 
HETATM   11  C   UNL     1      43.081 -15.982   5.352  1.00  0.00     0.030 A 
BRANCH   9  12
HETATM   12  C   UNL     1      43.697 -19.180   3.467  1.00  0.00     0.010 A 
HETATM   13  C   UNL     1      43.695 -19.899   2.248  1.00  0.00     0.152 A 
HETATM   14  N   UNL     1      44.024 -21.185   2.402  1.00  0.00    -0.187 NA
HETATM   15  N   UNL     1      44.242 -21.295   3.722  1.00  0.00    -0.289 N 
HETATM   16  H   UNL     1      44.516 -22.200   4.091  1.00  0.00     0.188 HD
HETATM   17  C   UNL     1      44.062 -20.126   4.403  1.00  0.00     0.123 A 
ENDBRANCH   9  12
ENDBRANCH   4   6
BRANCH   1  18
HETATM   18  C   UNL     1      40.270 -10.880   5.015  1.00  0.00     0.081 C 
HETATM   19  C   UNL     1      39.666 -10.965   6.419  1.00  0.00     0.032 C 
HETATM   20  C   UNL     1      40.454  -9.426   4.571  1.00  0.00     0.032 C 
ENDBRANCH   1  18
BRANCH   1  21
HETATM   21  C   UNL     1      42.756 -10.942   4.725  1.00  0.00     0.166 C 
BRANCH  21  22
HETATM   22  C   UNL     1      43.618 -10.861   5.968  1.00  0.00    -0.040 A 
HETATM   23  C   UNL     1      44.966 -11.248   5.873  1.00  0.00     0.009 A 
HETATM   24  C   UNL     1      45.802 -11.214   6.991  1.00  0.00     0.001 A 
HETATM   25  C   UNL     1      45.304 -10.794   8.222  1.00  0.00     0.000 A 
HETATM   26  C   UNL     1      43.973 -10.404   8.333  1.00  0.00     0.001 A 
HETATM   27  C   UNL     1      43.137 -10.436   7.216  1.00  0.00     0.009 A 
ENDBRANCH  21  22
ENDBRANCH   1  21
TORSDOF 5
ENDMDL
MODEL 2
REMARK VINA RESULT:      -8.0      4.434      8.182
REMARK  5 active torsions:
REMARK  status: ('A' for Active; 'I' for Inactive)
REMARK    1  A    between atoms: C_2  and  N_4 
REMARK    2  A    between atoms: N_4  and  C_5 
REMARK       I    between atoms: N_4  and  C_12 
REMARK    3  A    between atoms: C_5  and  C_6 
REMARK       I    between atoms: C_12  and  N_14 
REMARK    4  A    between atoms: N_14  and  C_15 
REMARK    5  A    between atoms: C_18  and  C_21 
ROOT
HETATM    1  N   UNL     1      42.429 -15.560   4.197  1.00  0.00    -0.326 N 
HETATM    2  C   UNL     1      41.500 -14.855   3.420  1.00  0.00     0.323 C 
HETATM    3  O   UNL     1      40.628 -14.156   3.928  1.00  0.00    -0.247 OA
HETATM    4  N   UNL     1      41.645 -15.033   2.060  1.00  0.00    -0.309 N 
HETATM    5  H   UNL     1      42.096 -15.889   1.776  1.00  0.00     0.170 HD
ENDROOT
BRANCH   4   6
HETATM    6  C   UNL     1      41.002 -14.316   1.031  1.00  0.00     0.036 A 
HETATM    7  C   UNL     1      40.069 -14.877   0.160  1.00  0.00     0.030 A 
HETATM    8  C   UNL     1      39.458 -14.095  -0.828  1.00  0.00     0.014 A 
HETATM    9  C   UNL     1      39.762 -12.735  -0.962  1.00  0.00    -0.023 A 
HETATM   10  C   UNL     1      40.687 -12.172  -0.075  1.00  0.00     0.014 A 
HETATM   11  C   UNL     1      41.299 -12.954   0.913  1.00  0.00     0.030 A 
BRANCH   9  12
HETATM   12  C   UNL     1      39.133 -11.917  -1.984  1.00  0.00     0.010 A 
HETATM   13  C   UNL     1      39.624 -10.813  -2.722  1.00  0.00     0.152 A 
HETATM   14  N   UNL     1      38.733 -10.334  -3.595  1.00  0.00    -0.187 NA
HETATM   15  N   UNL     1      37.666 -11.130  -3.422  1.00  0.00    -0.289 N 
HETATM   16  H   UNL     1      36.843 -10.963  -3.990  1.00  0.00     0.188 HD
HETATM   17  C   UNL     1      37.855 -12.093  -2.473  1.00  0.00     0.123 A 
ENDBRANCH   9  12
ENDBRANCH   4   6
BRANCH   1  18
HETATM   18  C   UNL     1      42.328 -15.534   5.671  1.00  0.00     0.081 C 
HETATM   19  C   UNL     1      41.512 -16.707   6.220  1.00  0.00     0.032 C 
HETATM   20  C   UNL     1      43.688 -15.425   6.365  1.00  0.00     0.032 C 
ENDBRANCH   1  18
BRANCH   1  21
HETATM   21  C   UNL     1      43.652 -16.148   3.637  1.00  0.00     0.166 C 
BRANCH  21  22
HETATM   22  C   UNL     1      43.608 -17.647   3.425  1.00  0.00    -0.040 A 
HETATM   23  C   UNL     1      44.180 -18.478   4.404  1.00  0.00     0.009 A 
HETATM   24  C   UNL     1      44.188 -19.866   4.251  1.00  0.00     0.001 A 
HETATM   25  C   UNL     1      43.625 -20.446   3.117  1.00  0.00     0.000 A 
HETATM   26  C   UNL     1      43.051 -19.639   2.140  1.00  0.00     0.001 A 
HETATM   27  C   UNL     1      43.042 -18.251   2.292  1.00  0.00     0.009 A 
ENDBRANCH  21  22
ENDBRANCH   1  21
TORSDOF 5
ENDMDL
MODEL 3
REMARK VINA RESULT:      -7.5     10.291     13.801
REMARK  5 active torsions:
REMARK  status: ('A' for Active; 'I' for Inactive)
REMARK    1  A    between atoms: C_2  and  N_4 
REMARK    2  A    between atoms: N_4  and  C_5 
REMARK       I    between atoms: N_4  and  C_12 
REMARK    3  A    between atoms: C_5  and  C_6 
REMARK       I    between atoms: C_12  and  N_14 
REMARK    4  A    between atoms: N_14  and  C_15 
REMARK    5  A    between atoms: C_18  and  C_21 
ROOT
HETATM    1  N   UNL     1      41.482  -5.134  17.778  1.00  0.00    -0.326 N 
HETATM    2  C   UNL     1      41.556  -5.528  16.435  1.00  0.00     0.323 C 
HETATM    3  O   UNL     1      41.332  -4.745  15.516  1.00  0.00    -0.247 OA
HETATM    4  N   UNL     1      41.880  -6.856  16.248  1.00  0.00    -0.309 N 
HETATM    5  H   UNL     1      41.655  -7.473  17.015  1.00  0.00     0.170 HD
ENDROOT
BRANCH   4   6
HETATM    6  C   UNL     1      42.219  -7.492  15.037  1.00  0.00     0.036 A 
HETATM    7  C   UNL     1      43.243  -7.061  14.196  1.00  0.00     0.030 A 
HETATM    8  C   UNL     1      43.533  -7.756  13.015  1.00  0.00     0.014 A 
HETATM    9  C   UNL     1      42.810  -8.899  12.656  1.00  0.00    -0.023 A 
HETATM   10  C   UNL     1      41.793  -9.338  13.511  1.00  0.00     0.014 A 
HETATM   11  C   UNL     1      41.502  -8.642  14.691  1.00  0.00     0.030 A 
BRANCH   9  12
HETATM   12  C   UNL     1      43.104  -9.627  11.432  1.00  0.00     0.010 A 
HETATM   13  C   UNL     1      44.070 -10.624  11.155  1.00  0.00     0.152 A 
HETATM   14  N   UNL     1      44.014 -11.066   9.895  1.00  0.00    -0.187 NA
HETATM   15  N   UNL     1      43.010 -10.355   9.359  1.00  0.00    -0.289 N 
HETATM   16  H   UNL     1      42.768 -10.519   8.388  1.00  0.00     0.188 HD
HETATM   17  C   UNL     1      42.433  -9.483  10.236  1.00  0.00     0.123 A 
ENDBRANCH   9  12
ENDBRANCH   4   6
BRANCH   1  18
HETATM   18  C   UNL     1      41.052  -3.762  18.120  1.00  0.00     0.081 C 
HETATM   19  C   UNL     1      39.546  -3.670  18.374  1.00  0.00     0.032 C 
HETATM   20  C   UNL     1      41.853  -3.152  19.274  1.00  0.00     0.032 C 
ENDBRANCH   1  18
BRANCH   1  21
HETATM   21  C   UNL     1      42.031  -5.939  18.875  1.00  0.00     0.166 C 
BRANCH  21  22
HETATM   22  C   UNL     1      41.006  -6.701  19.691  1.00  0.00    -0.040 A 
HETATM   23  C   UNL     1      40.751  -6.279  21.007  1.00  0.00     0.009 A 
HETATM   24  C   UNL     1      39.833  -6.956  21.813  1.00  0.00     0.001 A 
HETATM   25  C   UNL     1      39.156  -8.067  21.316  1.00  0.00     0.000 A 
HETATM   26  C   UNL     1      39.393  -8.496  20.013  1.00  0.00     0.001 A 
HETATM   27  C   UNL     1      40.310  -7.819  19.207  1.00  0.00     0.009 A 
ENDBRANCH  21  22
ENDBRANCH   1  21
TORSDOF 5
ENDMDL
MODEL 4
REMARK VINA RESULT:      -7.4      3.600      5.727
REMARK  5 active torsions:
REMARK  status: ('A' for Active; 'I' for Inactive)
REMARK    1  A    between atoms: C_2  and  N_4 
REMARK    2  A    between atoms: N_4  and  C_5 
REMARK       I    between atoms: N_4  and  C_12 
REMARK    3  A    between atoms: C_5  and  C_6 
REMARK       I    between atoms: C_12  and  N_14 
REMARK    4  A    between atoms: N_14  and  C_15 
REMARK    5  A    between atoms: C_18  and  C_21 
ROOT
HETATM    1  N   UNL     1      41.346 -11.802   1.511  1.00  0.00    -0.326 N 
HETATM    2  C   UNL     1      42.136 -12.813   2.076  1.00  0.00     0.323 C 
HETATM    3  O   UNL     1      43.109 -12.558   2.780  1.00  0.00    -0.247 OA
HETATM    4  N   UNL     1      41.735 -14.094   1.758  1.00  0.00    -0.309 N 
HETATM    5  H   UNL     1      41.211 -14.188   0.900  1.00  0.00     0.170 HD
ENDROOT
BRANCH   4   6
HETATM    6  C   UNL     1      42.196 -15.300   2.322  1.00  0.00     0.036 A 
HETATM    7  C   UNL     1      41.920 -15.700   3.629  1.00  0.00     0.030 A 
HETATM    8  C   UNL     1      42.399 -16.923   4.115  1.00  0.00     0.014 A 
HETATM    9  C   UNL     1      43.158 -17.773   3.302  1.00  0.00    -0.023 A 
HETATM   10  C   UNL     1      43.420 -17.375   1.986  1.00  0.00     0.014 A 
HETATM   11  C   UNL     1      42.941 -16.152   1.501  1.00  0.00     0.030 A 
BRANCH   9  12
HETATM   12  C   UNL     1      43.659 -19.044   3.798  1.00  0.00     0.010 A 
HETATM   13  C   UNL     1      44.166 -19.410   5.068  1.00  0.00     0.152 A 
HETATM   14  N   UNL     1      44.515 -20.698   5.137  1.00  0.00    -0.187 NA
HETATM   15  N   UNL     1      44.231 -21.165   3.911  1.00  0.00    -0.289 N 
HETATM   16  H   UNL     1      44.410 -22.144   3.715  1.00  0.00     0.188 HD
HETATM   17  C   UNL     1      43.716 -20.217   3.074  1.00  0.00     0.123 A 
ENDBRANCH   9  12
ENDBRANCH   4   6
BRANCH   1  18
HETATM   18  C   UNL     1      41.722 -10.385   1.694  1.00  0.00     0.081 C 
HETATM   19  C   UNL     1      41.619  -9.582   0.395  1.00  0.00     0.032 C 
HETATM   20  C   UNL     1      40.961  -9.704   2.835  1.00  0.00     0.032 C 
ENDBRANCH   1  18
BRANCH   1  21
HETATM   21  C   UNL     1      40.023 -12.057   0.930  1.00  0.00     0.166 C 
BRANCH  21  22
HETATM   22  C   UNL     1      40.032 -12.764  -0.410  1.00  0.00    -0.040 A 
HETATM   23  C   UNL     1      40.798 -12.213  -1.451  1.00  0.00     0.009 A 
HETATM   24  C   UNL     1      40.827 -12.809  -2.714  1.00  0.00     0.001 A 
HETATM   25  C   UNL     1      40.090 -13.965  -2.956  1.00  0.00     0.000 A 
HETATM   26  C   UNL     1      39.328 -14.526  -1.936  1.00  0.00     0.001 A 
HETATM   27  C   UNL     1      39.300 -13.932  -0.673  1.00  0.00     0.009 A 
ENDBRANCH  21  22
ENDBRANCH   1  21
TORSDOF 5
ENDMDL
MODEL 5
REMARK VINA RESULT:      -7.3      4.183      6.319
REMARK  5 active torsions:
REMARK  status: ('A' for Active; 'I' for Inactive)
REMARK    1  A    between atoms: C_2  and  N_4 
REMARK    2  A    between atoms: N_4  and  C_5 
REMARK       I    between atoms: N_4  and  C_12 
REMARK    3  A    between atoms: C_5  and  C_6 
REMARK       I    between atoms: C_12  and  N_14 
REMARK    4  A    between atoms: N_14  and  C_15 
REMARK    5  A    between atoms: C_18  and  C_21 
ROOT
HETATM    1  N   UNL     1      43.065 -16.049   5.115  1.00  0.00    -0.326 N 
HETATM    2  C   UNL     1      42.764 -16.027   3.746  1.00  0.00     0.323 C 
HETATM    3  O   UNL     1      43.261 -16.830   2.961  1.00  0.00    -0.247 OA
HETATM    4  N   UNL     1      41.891 -15.028   3.371  1.00  0.00    -0.309 N 
HETATM    5  H   UNL     1      41.863 -14.221   3.977  1.00  0.00     0.170 HD
ENDROOT
BRANCH   4   6
HETATM    6  C   UNL     1      41.254 -14.873   2.124  1.00  0.00     0.036 A 
HETATM    7  C   UNL     1      40.333 -15.781   1.605  1.00  0.00     0.030 A 
HETATM    8  C   UNL     1      39.727 -15.550   0.364  1.00  0.00     0.014 A 
HETATM    9  C   UNL     1      40.024 -14.402  -0.380  1.00  0.00    -0.023 A 
HETATM   10  C   UNL     1      40.937 -13.484   0.151  1.00  0.00     0.014 A 
HETATM   11  C   UNL     1      41.544 -13.716   1.392  1.00  0.00     0.030 A 
BRANCH   9  12
HETATM   12  C   UNL     1      39.400 -14.154  -1.668  1.00  0.00     0.010 A 
HETATM   13  C   UNL     1      38.852 -15.046  -2.622  1.00  0.00     0.152 A 
HETATM   14  N   UNL     1      38.348 -14.420  -3.690  1.00  0.00    -0.187 NA
HETATM   15  N   UNL     1      38.568 -13.123  -3.424  1.00  0.00    -0.289 N 
HETATM   16  H   UNL     1      38.262 -12.433  -4.102  1.00  0.00     0.188 HD
HETATM   17  C   UNL     1      39.191 -12.911  -2.228  1.00  0.00     0.123 A 
ENDBRANCH   9  12
ENDBRANCH   4   6
BRANCH   1  18
HETATM   18  C   UNL     1      44.061 -17.009   5.636  1.00  0.00     0.081 C 
HETATM   19  C   UNL     1      45.018 -16.367   6.644  1.00  0.00     0.032 C 
HETATM   20  C   UNL     1      43.429 -18.285   6.198  1.00  0.00     0.032 C 
ENDBRANCH   1  18
BRANCH   1  21
HETATM   21  C   UNL     1      42.275 -15.321   6.115  1.00  0.00     0.166 C 
BRANCH  21  22
HETATM   22  C   UNL     1      42.557 -13.835   6.202  1.00  0.00    -0.040 A 
HETATM   23  C   UNL     1      43.822 -13.419   6.651  1.00  0.00     0.009 A 
HETATM   24  C   UNL     1      44.130 -12.062   6.772  1.00  0.00     0.001 A 
HETATM   25  C   UNL     1      43.178 -11.099   6.447  1.00  0.00     0.000 A 
HETATM   26  C   UNL     1      41.921 -11.493   5.997  1.00  0.00     0.001 A 
HETATM   27  C   UNL     1      41.613 -12.849   5.875  1.00  0.00     0.009 A 
ENDBRANCH  21  22
ENDBRANCH   1  21
TORSDOF 5
ENDMDL
MODEL 6
REMARK VINA RESULT:      -7.2     15.906     17.927
REMARK  5 active torsions:
REMARK  status: ('A' for Active; 'I' for Inactive)
REMARK    1  A    between atoms: C_2  and  N_4 
REMARK    2  A    between atoms: N_4  and  C_5 
REMARK       I    between atoms: N_4  and  C_12 
REMARK    3  A    between atoms: C_5  and  C_6 
REMARK       I    between atoms: C_12  and  N_14 
REMARK    4  A    between atoms: N_14  and  C_15 
REMARK    5  A    between atoms: C_18  and  C_21 
ROOT
HETATM    1  N   UNL     1      45.352 -29.550   0.532  1.00  0.00    -0.326 N 
HETATM    2  C   UNL     1      44.655 -30.303   1.487  1.00  0.00     0.323 C 
HETATM    3  O   UNL     1      45.235 -30.905   2.386  1.00  0.00    -0.247 OA
HETATM    4  N   UNL     1      43.287 -30.318   1.312  1.00  0.00    -0.309 N 
HETATM    5  H   UNL     1      42.964 -30.145   0.372  1.00  0.00     0.170 HD
ENDROOT
BRANCH   4   6
HETATM    6  C   UNL     1      42.317 -30.813   2.206  1.00  0.00     0.036 A 
HETATM    7  C   UNL     1      42.028 -30.229   3.438  1.00  0.00     0.030 A 
HETATM    8  C   UNL     1      41.035 -30.769   4.266  1.00  0.00     0.014 A 
HETATM    9  C   UNL     1      40.307 -31.899   3.875  1.00  0.00    -0.023 A 
HETATM   10  C   UNL     1      40.588 -32.472   2.630  1.00  0.00     0.014 A 
HETATM   11  C   UNL     1      41.582 -31.933   1.803  1.00  0.00     0.030 A 
BRANCH   9  12
HETATM   12  C   UNL     1      39.275 -32.465   4.727  1.00  0.00     0.010 A 
HETATM   13  C   UNL     1      39.109 -32.429   6.133  1.00  0.00     0.152 A 
HETATM   14  N   UNL     1      38.007 -33.063   6.542  1.00  0.00    -0.187 NA
HETATM   15  N   UNL     1      37.459 -33.507   5.400  1.00  0.00    -0.289 N 
HETATM   16  H   UNL     1      36.590 -34.027   5.453  1.00  0.00     0.188 HD
HETATM   17  C   UNL     1      38.177 -33.174   4.288  1.00  0.00     0.123 A 
ENDBRANCH   9  12
ENDBRANCH   4   6
BRANCH   1  18
HETATM   18  C   UNL     1      46.830 -29.527   0.547  1.00  0.00     0.081 C 
HETATM   19  C   UNL     1      47.438 -30.584  -0.378  1.00  0.00     0.032 C 
HETATM   20  C   UNL     1      47.412 -28.138   0.269  1.00  0.00     0.032 C 
ENDBRANCH   1  18
BRANCH   1  21
HETATM   21  C   UNL     1      44.693 -28.585  -0.356  1.00  0.00     0.166 C 
BRANCH  21  22
HETATM   22  C   UNL     1      44.666 -28.971  -1.820  1.00  0.00    -0.040 A 
HETATM   23  C   UNL     1      45.162 -28.054  -2.763  1.00  0.00     0.009 A 
HETATM   24  C   UNL     1      45.142 -28.346  -4.128  1.00  0.00     0.001 A 
HETATM   25  C   UNL     1      44.625 -29.560  -4.574  1.00  0.00     0.000 A 
HETATM   26  C   UNL     1      44.133 -30.481  -3.654  1.00  0.00     0.001 A 
HETATM   27  C   UNL     1      44.154 -30.190  -2.289  1.00  0.00     0.009 A 
ENDBRANCH  21  22
ENDBRANCH   1  21
TORSDOF 5
ENDMDL
MODEL 7
REMARK VINA RESULT:      -6.9      1.674      2.684
REMARK  5 active torsions:
REMARK  status: ('A' for Active; 'I' for Inactive)
REMARK    1  A    between atoms: C_2  and  N_4 
REMARK    2  A    between atoms: N_4  and  C_5 
REMARK       I    between atoms: N_4  and  C_12 
REMARK    3  A    between atoms: C_5  and  C_6 
REMARK       I    between atoms: C_12  and  N_14 
REMARK    4  A    between atoms: N_14  and  C_15 
REMARK    5  A    between atoms: C_18  and  C_21 
ROOT
HETATM    1  N   UNL     1      41.278 -10.353   6.771  1.00  0.00    -0.326 N 
HETATM    2  C   UNL     1      41.236 -11.707   6.413  1.00  0.00     0.323 C 
HETATM    3  O   UNL     1      40.178 -12.279   6.166  1.00  0.00    -0.247 OA
HETATM    4  N   UNL     1      42.468 -12.327   6.385  1.00  0.00    -0.309 N 
HETATM    5  H   UNL     1      43.181 -11.909   6.963  1.00  0.00     0.170 HD
ENDROOT
BRANCH   4   6
HETATM    6  C   UNL     1      42.770 -13.607   5.878  1.00  0.00     0.036 A 
HETATM    7  C   UNL     1      43.113 -14.696   6.678  1.00  0.00     0.030 A 
HETATM    8  C   UNL     1      43.383 -15.944   6.102  1.00  0.00     0.014 A 
HETATM    9  C   UNL     1      43.308 -16.130   4.717  1.00  0.00    -0.023 A 
HETATM   10  C   UNL     1      42.947 -15.038   3.919  1.00  0.00     0.014 A 
HETATM   11  C   UNL     1      42.678 -13.790   4.495  1.00  0.00     0.030 A 
BRANCH   9  12
HETATM   12  C   UNL     1      43.585 -17.422   4.112  1.00  0.00     0.010 A 
HETATM   13  C   UNL     1      44.054 -18.631   4.678  1.00  0.00     0.152 A 
HETATM   14  N   UNL     1      44.167 -19.616   3.782  1.00  0.00    -0.187 NA
HETATM   15  N   UNL     1      43.769 -19.042   2.636  1.00  0.00    -0.289 N 
HETATM   16  H   UNL     1      43.762 -19.605   1.793  1.00  0.00     0.188 HD
HETATM   17  C   UNL     1      43.409 -17.733   2.779  1.00  0.00     0.123 A 
ENDBRANCH   9  12
ENDBRANCH   4   6
BRANCH   1  18
HETATM   18  C   UNL     1      40.020  -9.594   6.933  1.00  0.00     0.081 C 
HETATM   19  C   UNL     1      39.427  -9.741   8.336  1.00  0.00     0.032 C 
HETATM   20  C   UNL     1      40.151  -8.122   6.532  1.00  0.00     0.032 C 
ENDBRANCH   1  18
BRANCH   1  21
HETATM   21  C   UNL     1      42.518  -9.569   6.775  1.00  0.00     0.166 C 
BRANCH  21  22
HETATM   22  C   UNL     1      43.333  -9.656   8.050  1.00  0.00    -0.040 A 
HETATM   23  C   UNL     1      42.769  -9.164   9.239  1.00  0.00     0.009 A 
HETATM   24  C   UNL     1      43.482  -9.198  10.439  1.00  0.00     0.001 A 
HETATM   25  C   UNL     1      44.770  -9.724  10.470  1.00  0.00     0.000 A 
HETATM   26  C   UNL     1      45.343 -10.220   9.302  1.00  0.00     0.001 A 
HETATM   27  C   UNL     1      44.631 -10.187   8.102  1.00  0.00     0.009 A 
ENDBRANCH  21  22
ENDBRANCH   1  21
TORSDOF 5
ENDMDL
MODEL 8
REMARK VINA RESULT:      -6.8      5.483     10.600
REMARK  5 active torsions:
REMARK  status: ('A' for Active; 'I' for Inactive)
REMARK    1  A    between atoms: C_2  and  N_4 
REMARK    2  A    between atoms: N_4  and  C_5 
REMARK       I    between atoms: N_4  and  C_12 
REMARK    3  A    between atoms: C_5  and  C_6 
REMARK       I    between atoms: C_12  and  N_14 
REMARK    4  A    between atoms: N_14  and  C_15 
REMARK    5  A    between atoms: C_18  and  C_21 
ROOT
HETATM    1  N   UNL     1      43.578 -10.884   7.710  1.00  0.00    -0.326 N 
HETATM    2  C   UNL     1      43.522 -10.723   9.102  1.00  0.00     0.323 C 
HETATM    3  O   UNL     1      44.290 -11.315   9.854  1.00  0.00    -0.247 OA
HETATM    4  N   UNL     1      42.530  -9.869   9.535  1.00  0.00    -0.309 N 
HETATM    5  H   UNL     1      41.742  -9.761   8.914  1.00  0.00     0.170 HD
ENDROOT
BRANCH   4   6
HETATM    6  C   UNL     1      42.351  -9.357  10.836  1.00  0.00     0.036 A 
HETATM    7  C   UNL     1      41.208  -9.575  11.605  1.00  0.00     0.030 A 
HETATM    8  C   UNL     1      41.110  -9.048  12.899  1.00  0.00     0.014 A 
HETATM    9  C   UNL     1      42.154  -8.299  13.453  1.00  0.00    -0.023 A 
HETATM   10  C   UNL     1      43.306  -8.097  12.685  1.00  0.00     0.014 A 
HETATM   11  C   UNL     1      43.404  -8.623  11.390  1.00  0.00     0.030 A 
BRANCH   9  12
HETATM   12  C   UNL     1      42.061  -7.749  14.795  1.00  0.00     0.010 A 
HETATM   13  C   UNL     1      41.248  -8.117  15.894  1.00  0.00     0.152 A 
HETATM   14  N   UNL     1      41.471  -7.369  16.978  1.00  0.00    -0.187 NA
HETATM   15  N   UNL     1      42.430  -6.519  16.580  1.00  0.00    -0.289 N 
HETATM   16  H   UNL     1      42.778  -5.838  17.246  1.00  0.00     0.188 HD
HETATM   17  C   UNL     1      42.819  -6.706  15.285  1.00  0.00     0.123 A 
ENDBRANCH   9  12
ENDBRANCH   4   6
BRANCH   1  18
HETATM   18  C   UNL     1      44.532 -11.845   7.118  1.00  0.00     0.081 C 
HETATM   19  C   UNL     1      43.875 -13.185   6.778  1.00  0.00     0.032 C 
HETATM   20  C   UNL     1      45.293 -11.274   5.918  1.00  0.00     0.032 C 
ENDBRANCH   1  18
BRANCH   1  21
HETATM   21  C   UNL     1      42.897  -9.981   6.776  1.00  0.00     0.166 C 
BRANCH  21  22
HETATM   22  C   UNL     1      41.664 -10.554   6.107  1.00  0.00    -0.040 A 
HETATM   23  C   UNL     1      41.735 -10.879   4.742  1.00  0.00     0.009 A 
HETATM   24  C   UNL     1      40.623 -11.391   4.068  1.00  0.00     0.001 A 
HETATM   25  C   UNL     1      39.424 -11.584   4.748  1.00  0.00     0.000 A 
HETATM   26  C   UNL     1      39.337 -11.271   6.101  1.00  0.00     0.001 A 
HETATM   27  C   UNL     1      40.448 -10.761   6.776  1.00  0.00     0.009 A 
ENDBRANCH  21  22
ENDBRANCH   1  21
TORSDOF 5
ENDMDL
MODEL 9
REMARK VINA RESULT:      -6.8      4.132      5.904
REMARK  5 active torsions:
REMARK  status: ('A' for Active; 'I' for Inactive)
REMARK    1  A    between atoms: C_2  and  N_4 
REMARK    2  A    between atoms: N_4  and  C_5 
REMARK       I    between atoms: N_4  and  C_12 
REMARK    3  A    between atoms: C_5  and  C_6 
REMARK       I    between atoms: C_12  and  N_14 
REMARK    4  A    between atoms: N_14  and  C_15 
REMARK    5  A    between atoms: C_18  and  C_21 
ROOT
HETATM    1  N   UNL     1      42.332 -13.838   5.621  1.00  0.00    -0.326 N 
HETATM    2  C   UNL     1      41.827 -14.266   4.386  1.00  0.00     0.323 C 
HETATM    3  O   UNL     1      41.640 -15.454   4.139  1.00  0.00    -0.247 OA
HETATM    4  N   UNL     1      41.583 -13.248   3.488  1.00  0.00    -0.309 N 
HETATM    5  H   UNL     1      42.118 -12.405   3.626  1.00  0.00     0.170 HD
ENDROOT
BRANCH   4   6
HETATM    6  C   UNL     1      40.899 -13.339   2.259  1.00  0.00     0.036 A 
HETATM    7  C   UNL     1      39.858 -12.490   1.887  1.00  0.00     0.030 A 
HETATM    8  C   UNL     1      39.237 -12.630   0.639  1.00  0.00     0.014 A 
HETATM    9  C   UNL     1      39.650 -13.616  -0.264  1.00  0.00    -0.023 A 
HETATM   10  C   UNL     1      40.707 -14.456   0.106  1.00  0.00     0.014 A 
HETATM   11  C   UNL     1      41.326 -14.316   1.355  1.00  0.00     0.030 A 
BRANCH   9  12
HETATM   12  C   UNL     1      39.012 -13.768  -1.561  1.00  0.00     0.010 A 
HETATM   13  C   UNL     1      39.344 -14.584  -2.669  1.00  0.00     0.152 A 
HETATM   14  N   UNL     1      38.490 -14.451  -3.688  1.00  0.00    -0.187 NA
HETATM   15  N   UNL     1      37.604 -13.550  -3.236  1.00  0.00    -0.289 N 
HETATM   16  H   UNL     1      36.837 -13.281  -3.844  1.00  0.00     0.188 HD
HETATM   17  C   UNL     1      37.870 -13.112  -1.971  1.00  0.00     0.123 A 
ENDBRANCH   9  12
ENDBRANCH   4   6
BRANCH   1  18
HETATM   18  C   UNL     1      42.727 -14.833   6.641  1.00  0.00     0.081 C 
HETATM   19  C   UNL     1      41.579 -15.775   7.012  1.00  0.00     0.032 C 
HETATM   20  C   UNL     1      43.990 -15.612   6.262  1.00  0.00     0.032 C 
ENDBRANCH   1  18
BRANCH   1  21
HETATM   21  C   UNL     1      42.282 -12.439   6.060  1.00  0.00     0.166 C 
BRANCH  21  22
HETATM   22  C   UNL     1      43.601 -11.864   6.536  1.00  0.00    -0.040 A 
HETATM   23  C   UNL     1      43.675 -11.355   7.844  1.00  0.00     0.009 A 
HETATM   24  C   UNL     1      44.858 -10.793   8.329  1.00  0.00     0.001 A 
HETATM   25  C   UNL     1      45.986 -10.732   7.515  1.00  0.00     0.000 A 
HETATM   26  C   UNL     1      45.932 -11.235   6.218  1.00  0.00     0.001 A 
HETATM   27  C   UNL     1      44.750 -11.798   5.733  1.00  0.00     0.009 A 
ENDBRANCH  21  22
ENDBRANCH   1  21
TORSDOF 5
ENDMDL
MODEL 10
REMARK VINA RESULT:      -6.6     15.960     18.540
REMARK  5 active torsions:
REMARK  status: ('A' for Active; 'I' for Inactive)
REMARK    1  A    between atoms: C_2  and  N_4 
REMARK    2  A    between atoms: N_4  and  C_5 
REMARK       I    between atoms: N_4  and  C_12 
REMARK    3  A    between atoms: C_5  and  C_6 
REMARK       I    between atoms: C_12  and  N_14 
REMARK    4  A    between atoms: N_14  and  C_15 
REMARK    5  A    between atoms: C_18  and  C_21 
ROOT
HETATM    1  N   UNL     1      44.950 -29.555   0.444  1.00  0.00    -0.326 N 
HETATM    2  C   UNL     1      46.174 -30.238   0.454  1.00  0.00     0.323 C 
HETATM    3  O   UNL     1      46.305 -31.323   1.012  1.00  0.00    -0.247 OA
HETATM    4  N   UNL     1      47.198 -29.579  -0.193  1.00  0.00    -0.309 N 
HETATM    5  H   UNL     1      47.103 -28.577  -0.257  1.00  0.00     0.170 HD
ENDROOT
BRANCH   4   6
HETATM    6  C   UNL     1      48.471 -30.089  -0.519  1.00  0.00     0.036 A 
HETATM    7  C   UNL     1      49.534 -30.156   0.380  1.00  0.00     0.030 A 
HETATM    8  C   UNL     1      50.766 -30.694  -0.014  1.00  0.00     0.014 A 
HETATM    9  C   UNL     1      50.958 -31.180  -1.312  1.00  0.00    -0.023 A 
HETATM   10  C   UNL     1      49.884 -31.126  -2.207  1.00  0.00     0.014 A 
HETATM   11  C   UNL     1      48.652 -30.588  -1.814  1.00  0.00     0.030 A 
BRANCH   9  12
HETATM   12  C   UNL     1      52.233 -31.740  -1.728  1.00  0.00     0.010 A 
HETATM   13  C   UNL     1      53.213 -32.459  -1.002  1.00  0.00     0.152 A 
HETATM   14  N   UNL     1      54.255 -32.823  -1.756  1.00  0.00    -0.187 NA
HETATM   15  N   UNL     1      53.946 -32.340  -2.969  1.00  0.00    -0.289 N 
HETATM   16  H   UNL     1      54.598 -32.498  -3.730  1.00  0.00     0.188 HD
HETATM   17  C   UNL     1      52.748 -31.687  -3.007  1.00  0.00     0.123 A 
ENDBRANCH   9  12
ENDBRANCH   4   6
BRANCH   1  18
HETATM   18  C   UNL     1      43.794 -30.103   1.183  1.00  0.00     0.081 C 
HETATM   19  C   UNL     1      42.615 -29.128   1.229  1.00  0.00     0.032 C 
HETATM   20  C   UNL     1      43.360 -31.483   0.681  1.00  0.00     0.032 C 
ENDBRANCH   1  18
BRANCH   1  21
HETATM   21  C   UNL     1      44.675 -28.427  -0.453  1.00  0.00     0.166 C 
BRANCH  21  22
HETATM   22  C   UNL     1      44.641 -28.769  -1.928  1.00  0.00    -0.040 A 
HETATM   23  C   UNL     1      44.040 -29.978  -2.321  1.00  0.00     0.009 A 
HETATM   24  C   UNL     1      43.999 -30.356  -3.665  1.00  0.00     0.001 A 
HETATM   25  C   UNL     1      44.559 -29.532  -4.638  1.00  0.00     0.000 A 
HETATM   26  C   UNL     1      45.156 -28.330  -4.268  1.00  0.00     0.001 A 
HETATM   27  C   UNL     1      45.196 -27.951  -2.925  1.00  0.00     0.009 A 
ENDBRANCH  21  22
ENDBRANCH   1  21
TORSDOF 5
ENDMDL
