MODEL 1
REMARK VINA RESULT:      -9.2      0.000      0.000
REMARK  3 active torsions:
REMARK  status: ('A' for Active; 'I' for Inactive)
REMARK    1  A    between atoms: C_7  and  C_8 
REMARK    2  A    between atoms: N_9  and  C_11 
REMARK    3  A    between atoms: C_11  and  C_12 
ROOT
HETATM    1  C   UNL     1      42.757 -14.503   3.133  1.00  0.00     0.238 C 
HETATM    2  N   UNL     1      41.354 -14.056   2.749  1.00  0.00    -0.056 N 
HETATM    3  H   UNL     1      41.434 -13.048   2.578  1.00  0.00     0.281 HD
HETATM    4  C   UNL     1      40.326 -14.202   3.842  1.00  0.00     0.236 C 
HETATM    5  C   UNL     1      40.782 -13.475   5.095  1.00  0.00     0.028 C 
HETATM    6  C   UNL     1      42.149 -13.948   5.563  1.00  0.00     0.004 C 
HETATM    7  C   UNL     1      43.178 -13.829   4.446  1.00  0.00     0.040 C 
ENDROOT
BRANCH   2   8
HETATM    8  C   UNL     1      40.846 -14.644   1.446  1.00  0.00     0.294 C 
BRANCH   8   9
HETATM    9  C   UNL     1      40.723 -13.640   0.371  1.00  0.00     0.061 A 
HETATM   10  N   UNL     1      40.079 -13.852  -0.833  1.00  0.00    -0.305 N 
HETATM   11  C   UNL     1      40.220 -12.695  -1.561  1.00  0.00     0.151 A 
HETATM   12  C   UNL     1      39.407 -14.929  -1.385  1.00  0.00     0.118 A 
HETATM   13  C   UNL     1      39.676 -12.643  -2.891  1.00  0.00     0.167 A 
HETATM   14  N   UNL     1      40.873 -11.763  -0.907  1.00  0.00    -0.239 NA
HETATM   15  N   UNL     1      39.063 -13.672  -3.413  1.00  0.00    -0.268 NA
HETATM   16  C   UNL     1      38.929 -14.809  -2.637  1.00  0.00     0.134 A 
HETATM   17  C   UNL     1      41.151 -12.324   0.308  1.00  0.00     0.146 A 
ENDBRANCH   8   9
ENDBRANCH   2   8
BRANCH   1  18
HETATM   18  C   UNL     1      42.958 -15.986   3.139  1.00  0.00     0.041 A 
HETATM   19  N   UNL     1      43.386 -16.636   4.282  1.00  0.00    -0.357 N 
HETATM   20  C   UNL     1      43.589 -17.973   4.035  1.00  0.00     0.042 A 
HETATM   21  H   UNL     1      43.566 -16.209   5.183  1.00  0.00     0.166 HD
HETATM   22  C   UNL     1      43.194 -18.213   2.723  1.00  0.00    -0.008 A 
HETATM   23  C   UNL     1      44.075 -18.981   4.875  1.00  0.00     0.030 A 
HETATM   24  C   UNL     1      43.275 -19.523   2.217  1.00  0.00     0.014 A 
HETATM   25  C   UNL     1      42.774 -16.969   2.181  1.00  0.00     0.040 A 
HETATM   26  C   UNL     1      43.761 -20.545   3.041  1.00  0.00     0.001 A 
HETATM   27  C   UNL     1      44.157 -20.273   4.349  1.00  0.00     0.002 A 
ENDBRANCH   1  18
TORSDOF 3
ENDMDL
MODEL 2
REMARK VINA RESULT:      -9.1      1.559      6.943
REMARK  3 active torsions:
REMARK  status: ('A' for Active; 'I' for Inactive)
REMARK    1  A    between atoms: C_7  and  C_8 
REMARK    2  A    between atoms: N_9  and  C_11 
REMARK    3  A    between atoms: C_11  and  C_12 
ROOT
HETATM    1  C   UNL     1      40.639 -14.323   3.248  1.00  0.00     0.238 C 
HETATM    2  N   UNL     1      42.048 -14.690   3.691  1.00  0.00    -0.056 N 
HETATM    3  H   UNL     1      41.936 -15.088   4.630  1.00  0.00     0.281 HD
HETATM    4  C   UNL     1      42.981 -13.517   3.857  1.00  0.00     0.236 C 
HETATM    5  C   UNL     1      42.381 -12.497   4.810  1.00  0.00     0.028 C 
HETATM    6  C   UNL     1      41.001 -12.041   4.362  1.00  0.00     0.004 C 
HETATM    7  C   UNL     1      40.071 -13.232   4.165  1.00  0.00     0.040 C 
ENDROOT
BRANCH   2   8
HETATM    8  C   UNL     1      42.698 -15.784   2.866  1.00  0.00     0.294 C 
BRANCH   8   9
HETATM    9  C   UNL     1      43.265 -16.868   3.693  1.00  0.00     0.061 A 
HETATM   10  N   UNL     1      43.385 -18.184   3.290  1.00  0.00    -0.305 N 
HETATM   11  C   UNL     1      43.921 -18.871   4.352  1.00  0.00     0.151 A 
HETATM   12  C   UNL     1      43.065 -18.865   2.127  1.00  0.00     0.118 A 
HETATM   13  C   UNL     1      44.121 -20.290   4.230  1.00  0.00     0.167 A 
HETATM   14  N   UNL     1      44.177 -18.095   5.378  1.00  0.00    -0.239 NA
HETATM   15  N   UNL     1      43.795 -20.928   3.137  1.00  0.00    -0.268 NA
HETATM   16  C   UNL     1      43.274 -20.193   2.087  1.00  0.00     0.134 A 
HETATM   17  C   UNL     1      43.815 -16.844   4.964  1.00  0.00     0.146 A 
ENDBRANCH   8   9
ENDBRANCH   2   8
BRANCH   1  18
HETATM   18  C   UNL     1      40.509 -14.000   1.792  1.00  0.00     0.041 A 
HETATM   19  N   UNL     1      39.747 -14.797   0.958  1.00  0.00    -0.357 N 
HETATM   20  C   UNL     1      39.842 -14.369  -0.345  1.00  0.00     0.042 A 
HETATM   21  H   UNL     1      39.208 -15.609   1.232  1.00  0.00     0.166 HD
HETATM   22  C   UNL     1      40.613 -13.210  -0.341  1.00  0.00    -0.008 A 
HETATM   23  C   UNL     1      39.296 -14.910  -1.513  1.00  0.00     0.030 A 
HETATM   24  C   UNL     1      40.847 -12.545  -1.559  1.00  0.00     0.014 A 
HETATM   25  C   UNL     1      41.000 -12.973   1.005  1.00  0.00     0.040 A 
HETATM   26  C   UNL     1      40.310 -13.073  -2.739  1.00  0.00     0.001 A 
HETATM   27  C   UNL     1      39.549 -14.240  -2.713  1.00  0.00     0.002 A 
ENDBRANCH   1  18
TORSDOF 3
ENDMDL
MODEL 3
REMARK VINA RESULT:      -8.9      1.540      2.341
REMARK  3 active torsions:
REMARK  status: ('A' for Active; 'I' for Inactive)
REMARK    1  A    between atoms: C_7  and  C_8 
REMARK    2  A    between atoms: N_9  and  C_11 
REMARK    3  A    between atoms: C_11  and  C_12 
ROOT
HETATM    1  C   UNL     1      43.203 -15.231   5.403  1.00  0.00     0.238 C 
HETATM    2  N   UNL     1      42.528 -14.112   4.623  1.00  0.00    -0.056 N 
HETATM    3  H   UNL     1      42.751 -13.255   5.140  1.00  0.00     0.281 HD
HETATM    4  C   UNL     1      41.022 -14.187   4.592  1.00  0.00     0.236 C 
HETATM    5  C   UNL     1      40.468 -14.249   6.005  1.00  0.00     0.028 C 
HETATM    6  C   UNL     1      41.058 -15.403   6.799  1.00  0.00     0.004 C 
HETATM    7  C   UNL     1      42.580 -15.342   6.801  1.00  0.00     0.040 C 
ENDROOT
BRANCH   2   8
HETATM    8  C   UNL     1      43.087 -13.897   3.230  1.00  0.00     0.294 C 
BRANCH   8   9
HETATM    9  C   UNL     1      42.543 -12.692   2.571  1.00  0.00     0.061 A 
HETATM   10  N   UNL     1      41.657 -12.708   1.512  1.00  0.00    -0.305 N 
HETATM   11  C   UNL     1      41.430 -11.396   1.172  1.00  0.00     0.151 A 
HETATM   12  C   UNL     1      41.042 -13.717   0.790  1.00  0.00     0.118 A 
HETATM   13  C   UNL     1      40.566 -11.108   0.060  1.00  0.00     0.167 A 
HETATM   14  N   UNL     1      42.074 -10.556   1.946  1.00  0.00    -0.239 NA
HETATM   15  N   UNL     1      40.007 -12.067  -0.630  1.00  0.00    -0.268 NA
HETATM   16  C   UNL     1      40.251 -13.372  -0.242  1.00  0.00     0.134 A 
HETATM   17  C   UNL     1      42.733 -11.348   2.844  1.00  0.00     0.146 A 
ENDBRANCH   8   9
ENDBRANCH   2   8
BRANCH   1  18
HETATM   18  C   UNL     1      43.273 -16.540   4.681  1.00  0.00     0.041 A 
HETATM   19  N   UNL     1      43.654 -17.692   5.344  1.00  0.00    -0.357 N 
HETATM   20  C   UNL     1      43.735 -18.751   4.472  1.00  0.00     0.042 A 
HETATM   21  H   UNL     1      43.880 -17.771   6.328  1.00  0.00     0.166 HD
HETATM   22  C   UNL     1      43.308 -18.294   3.229  1.00  0.00    -0.008 A 
HETATM   23  C   UNL     1      44.140 -20.072   4.693  1.00  0.00     0.030 A 
HETATM   24  C   UNL     1      43.268 -19.195   2.149  1.00  0.00     0.014 A 
HETATM   25  C   UNL     1      42.994 -16.916   3.379  1.00  0.00     0.040 A 
HETATM   26  C   UNL     1      43.671 -20.520   2.351  1.00  0.00     0.001 A 
HETATM   27  C   UNL     1      44.102 -20.948   3.605  1.00  0.00     0.002 A 
ENDBRANCH   1  18
TORSDOF 3
ENDMDL
MODEL 4
REMARK VINA RESULT:      -8.5      2.810      6.100
REMARK  3 active torsions:
REMARK  status: ('A' for Active; 'I' for Inactive)
REMARK    1  A    between atoms: C_7  and  C_8 
REMARK    2  A    between atoms: N_9  and  C_11 
REMARK    3  A    between atoms: C_11  and  C_12 
ROOT
HETATM    1  C   UNL     1      40.778 -14.354   3.288  1.00  0.00     0.238 C 
HETATM    2  N   UNL     1      41.623 -13.103   3.101  1.00  0.00    -0.056 N 
HETATM    3  H   UNL     1      41.005 -12.324   3.357  1.00  0.00     0.281 HD
HETATM    4  C   UNL     1      42.043 -12.835   1.678  1.00  0.00     0.236 C 
HETATM    5  C   UNL     1      40.826 -12.787   0.768  1.00  0.00     0.028 C 
HETATM    6  C   UNL     1      39.994 -14.055   0.864  1.00  0.00     0.004 C 
HETATM    7  C   UNL     1      39.597 -14.339   2.308  1.00  0.00     0.040 C 
ENDROOT
BRANCH   2   8
HETATM    8  C   UNL     1      42.807 -13.001   4.043  1.00  0.00     0.294 C 
BRANCH   8   9
HETATM    9  C   UNL     1      42.592 -12.032   5.136  1.00  0.00     0.061 A 
HETATM   10  N   UNL     1      43.582 -11.565   5.978  1.00  0.00    -0.305 N 
HETATM   11  C   UNL     1      42.968 -10.718   6.870  1.00  0.00     0.151 A 
HETATM   12  C   UNL     1      44.942 -11.800   6.084  1.00  0.00     0.118 A 
HETATM   13  C   UNL     1      43.761 -10.109   7.904  1.00  0.00     0.167 A 
HETATM   14  N   UNL     1      41.683 -10.590   6.643  1.00  0.00    -0.239 NA
HETATM   15  N   UNL     1      45.040 -10.355   8.010  1.00  0.00    -0.268 NA
HETATM   16  C   UNL     1      45.618 -11.200   7.080  1.00  0.00     0.134 A 
HETATM   17  C   UNL     1      41.447 -11.366   5.543  1.00  0.00     0.146 A 
ENDBRANCH   8   9
ENDBRANCH   2   8
BRANCH   1  18
HETATM   18  C   UNL     1      41.550 -15.636   3.264  1.00  0.00     0.041 A 
HETATM   19  N   UNL     1      42.174 -16.106   4.405  1.00  0.00    -0.357 N 
HETATM   20  C   UNL     1      42.896 -17.243   4.132  1.00  0.00     0.042 A 
HETATM   21  H   UNL     1      42.149 -15.677   5.322  1.00  0.00     0.166 HD
HETATM   22  C   UNL     1      42.660 -17.570   2.800  1.00  0.00    -0.008 A 
HETATM   23  C   UNL     1      43.723 -18.007   4.963  1.00  0.00     0.030 A 
HETATM   24  C   UNL     1      43.266 -18.722   2.265  1.00  0.00     0.014 A 
HETATM   25  C   UNL     1      41.794 -16.574   2.275  1.00  0.00     0.040 A 
HETATM   26  C   UNL     1      44.098 -19.497   3.080  1.00  0.00     0.001 A 
HETATM   27  C   UNL     1      44.323 -19.141   4.408  1.00  0.00     0.002 A 
ENDBRANCH   1  18
TORSDOF 3
ENDMDL
MODEL 5
REMARK VINA RESULT:      -8.4      1.475      2.369
REMARK  3 active torsions:
REMARK  status: ('A' for Active; 'I' for Inactive)
REMARK    1  A    between atoms: C_7  and  C_8 
REMARK    2  A    between atoms: N_9  and  C_11 
REMARK    3  A    between atoms: C_11  and  C_12 
ROOT
HETATM    1  C   UNL     1      42.496 -13.780   3.331  1.00  0.00     0.238 C 
HETATM    2  N   UNL     1      41.036 -13.504   3.661  1.00  0.00    -0.056 N 
HETATM    3  H   UNL     1      40.845 -12.577   3.264  1.00  0.00     0.281 HD
HETATM    4  C   UNL     1      40.735 -13.385   5.133  1.00  0.00     0.236 C 
HETATM    5  C   UNL     1      41.624 -12.329   5.770  1.00  0.00     0.028 C 
HETATM    6  C   UNL     1      43.100 -12.610   5.533  1.00  0.00     0.004 C 
HETATM    7  C   UNL     1      43.394 -12.760   4.045  1.00  0.00     0.040 C 
ENDROOT
BRANCH   2   8
HETATM    8  C   UNL     1      40.055 -14.440   2.982  1.00  0.00     0.294 C 
BRANCH   8   9
HETATM    9  C   UNL     1      39.932 -14.192   1.531  1.00  0.00     0.061 A 
HETATM   10  N   UNL     1      39.479 -13.014   0.970  1.00  0.00    -0.305 N 
HETATM   11  C   UNL     1      39.481 -13.203  -0.390  1.00  0.00     0.151 A 
HETATM   12  C   UNL     1      39.041 -11.809   1.493  1.00  0.00     0.118 A 
HETATM   13  C   UNL     1      39.012 -12.140  -1.238  1.00  0.00     0.167 A 
HETATM   14  N   UNL     1      39.925 -14.388  -0.735  1.00  0.00    -0.239 NA
HETATM   15  N   UNL     1      38.579 -11.014  -0.735  1.00  0.00    -0.268 NA
HETATM   16  C   UNL     1      38.611 -10.862   0.639  1.00  0.00     0.134 A 
HETATM   17  C   UNL     1      40.249 -14.993   0.447  1.00  0.00     0.146 A 
ENDBRANCH   8   9
ENDBRANCH   2   8
BRANCH   1  18
HETATM   18  C   UNL     1      42.925 -15.198   3.544  1.00  0.00     0.041 A 
HETATM   19  N   UNL     1      42.984 -16.083   2.484  1.00  0.00    -0.357 N 
HETATM   20  C   UNL     1      43.313 -17.345   2.922  1.00  0.00     0.042 A 
HETATM   21  H   UNL     1      42.787 -15.872   1.514  1.00  0.00     0.166 HD
HETATM   22  C   UNL     1      43.562 -17.254   4.288  1.00  0.00    -0.008 A 
HETATM   23  C   UNL     1      43.419 -18.546   2.212  1.00  0.00     0.030 A 
HETATM   24  C   UNL     1      43.948 -18.412   4.987  1.00  0.00     0.014 A 
HETATM   25  C   UNL     1      43.344 -15.900   4.661  1.00  0.00     0.040 A 
HETATM   26  C   UNL     1      44.059 -19.623   4.295  1.00  0.00     0.001 A 
HETATM   27  C   UNL     1      43.794 -19.686   2.928  1.00  0.00     0.002 A 
ENDBRANCH   1  18
TORSDOF 3
ENDMDL
MODEL 6
REMARK VINA RESULT:      -8.3      3.285      6.442
REMARK  3 active torsions:
REMARK  status: ('A' for Active; 'I' for Inactive)
REMARK    1  A    between atoms: C_7  and  C_8 
REMARK    2  A    between atoms: N_9  and  C_11 
REMARK    3  A    between atoms: C_11  and  C_12 
ROOT
HETATM    1  C   UNL     1      41.313 -13.224   4.520  1.00  0.00     0.238 C 
HETATM    2  N   UNL     1      42.051 -12.017   3.959  1.00  0.00    -0.056 N 
HETATM    3  H   UNL     1      41.642 -11.208   4.440  1.00  0.00     0.281 HD
HETATM    4  C   UNL     1      41.827 -11.770   2.489  1.00  0.00     0.236 C 
HETATM    5  C   UNL     1      40.341 -11.660   2.193  1.00  0.00     0.028 C 
HETATM    6  C   UNL     1      39.574 -12.885   2.666  1.00  0.00     0.004 C 
HETATM    7  C   UNL     1      39.827 -13.149   4.145  1.00  0.00     0.040 C 
ENDROOT
BRANCH   2   8
HETATM    8  C   UNL     1      43.529 -11.977   4.296  1.00  0.00     0.294 C 
BRANCH   8   9
HETATM    9  C   UNL     1      43.787 -11.715   5.726  1.00  0.00     0.061 A 
HETATM   10  N   UNL     1      43.184 -10.713   6.463  1.00  0.00    -0.305 N 
HETATM   11  C   UNL     1      43.719 -10.783   7.727  1.00  0.00     0.151 A 
HETATM   12  C   UNL     1      42.250  -9.735   6.168  1.00  0.00     0.118 A 
HETATM   13  C   UNL     1      43.300  -9.820   8.710  1.00  0.00     0.167 A 
HETATM   14  N   UNL     1      44.584 -11.760   7.857  1.00  0.00    -0.239 NA
HETATM   15  N   UNL     1      42.434  -8.886   8.417  1.00  0.00    -0.268 NA
HETATM   16  C   UNL     1      41.910  -8.866   7.137  1.00  0.00     0.134 A 
HETATM   17  C   UNL     1      44.601 -12.371   6.634  1.00  0.00     0.146 A 
ENDBRANCH   8   9
ENDBRANCH   2   8
BRANCH   1  18
HETATM   18  C   UNL     1      41.940 -14.544   4.193  1.00  0.00     0.041 A 
HETATM   19  N   UNL     1      42.624 -15.259   5.159  1.00  0.00    -0.357 N 
HETATM   20  C   UNL     1      43.190 -16.389   4.618  1.00  0.00     0.042 A 
HETATM   21  H   UNL     1      42.738 -14.997   6.130  1.00  0.00     0.166 HD
HETATM   22  C   UNL     1      42.785 -16.454   3.288  1.00  0.00    -0.008 A 
HETATM   23  C   UNL     1      44.012 -17.355   5.207  1.00  0.00     0.030 A 
HETATM   24  C   UNL     1      43.208 -17.542   2.502  1.00  0.00     0.014 A 
HETATM   25  C   UNL     1      41.980 -15.311   3.041  1.00  0.00     0.040 A 
HETATM   26  C   UNL     1      44.033 -18.518   3.073  1.00  0.00     0.001 A 
HETATM   27  C   UNL     1      44.429 -18.421   4.405  1.00  0.00     0.002 A 
ENDBRANCH   1  18
TORSDOF 3
ENDMDL
MODEL 7
REMARK VINA RESULT:      -8.2      2.380      5.296
REMARK  3 active torsions:
REMARK  status: ('A' for Active; 'I' for Inactive)
REMARK    1  A    between atoms: C_7  and  C_8 
REMARK    2  A    between atoms: N_9  and  C_11 
REMARK    3  A    between atoms: C_11  and  C_12 
ROOT
HETATM    1  C   UNL     1      41.111 -15.013   3.225  1.00  0.00     0.238 C 
HETATM    2  N   UNL     1      41.810 -13.857   2.525  1.00  0.00    -0.056 N 
HETATM    3  H   UNL     1      41.197 -13.047   2.673  1.00  0.00     0.281 HD
HETATM    4  C   UNL     1      41.930 -14.006   1.030  1.00  0.00     0.236 C 
HETATM    5  C   UNL     1      40.562 -14.243   0.412  1.00  0.00     0.028 C 
HETATM    6  C   UNL     1      39.858 -15.442   1.028  1.00  0.00     0.004 C 
HETATM    7  C   UNL     1      39.767 -15.302   2.542  1.00  0.00     0.040 C 
ENDROOT
BRANCH   2   8
HETATM    8  C   UNL     1      43.141 -13.468   3.139  1.00  0.00     0.294 C 
BRANCH   8   9
HETATM    9  C   UNL     1      42.999 -12.802   4.449  1.00  0.00     0.061 A 
HETATM   10  N   UNL     1      42.496 -11.529   4.633  1.00  0.00    -0.305 N 
HETATM   11  C   UNL     1      42.566 -11.273   5.981  1.00  0.00     0.151 A 
HETATM   12  C   UNL     1      42.009 -10.556   3.777  1.00  0.00     0.118 A 
HETATM   13  C   UNL     1      42.142  -9.986   6.464  1.00  0.00     0.167 A 
HETATM   14  N   UNL     1      43.042 -12.286   6.664  1.00  0.00    -0.239 NA
HETATM   15  N   UNL     1      41.706  -9.066   5.647  1.00  0.00    -0.268 NA
HETATM   16  C   UNL     1      41.637  -9.374   4.300  1.00  0.00     0.134 A 
HETATM   17  C   UNL     1      43.272 -13.256   5.729  1.00  0.00     0.146 A 
ENDBRANCH   8   9
ENDBRANCH   2   8
BRANCH   1  18
HETATM   18  C   UNL     1      41.957 -16.235   3.405  1.00  0.00     0.041 A 
HETATM   19  N   UNL     1      42.085 -17.161   2.386  1.00  0.00    -0.357 N 
HETATM   20  C   UNL     1      42.829 -18.240   2.799  1.00  0.00     0.042 A 
HETATM   21  H   UNL     1      41.672 -17.098   1.463  1.00  0.00     0.166 HD
HETATM   22  C   UNL     1      43.272 -17.964   4.089  1.00  0.00    -0.008 A 
HETATM   23  C   UNL     1      43.151 -19.423   2.127  1.00  0.00     0.030 A 
HETATM   24  C   UNL     1      44.087 -18.905   4.745  1.00  0.00     0.014 A 
HETATM   25  C   UNL     1      42.745 -16.694   4.447  1.00  0.00     0.040 A 
HETATM   26  C   UNL     1      44.419 -20.096   4.088  1.00  0.00     0.001 A 
HETATM   27  C   UNL     1      43.954 -20.349   2.799  1.00  0.00     0.002 A 
ENDBRANCH   1  18
TORSDOF 3
ENDMDL
MODEL 8
REMARK VINA RESULT:      -8.2      7.863     11.348
REMARK  3 active torsions:
REMARK  status: ('A' for Active; 'I' for Inactive)
REMARK    1  A    between atoms: C_7  and  C_8 
REMARK    2  A    between atoms: N_9  and  C_11 
REMARK    3  A    between atoms: C_11  and  C_12 
ROOT
HETATM    1  C   UNL     1      43.191  -9.859  10.282  1.00  0.00     0.238 C 
HETATM    2  N   UNL     1      42.860  -8.982   9.083  1.00  0.00    -0.056 N 
HETATM    3  H   UNL     1      42.833  -9.625   8.284  1.00  0.00     0.281 HD
HETATM    4  C   UNL     1      43.912  -7.957   8.743  1.00  0.00     0.236 C 
HETATM    5  C   UNL     1      45.260  -8.630   8.544  1.00  0.00     0.028 C 
HETATM    6  C   UNL     1      45.669  -9.455   9.754  1.00  0.00     0.004 C 
HETATM    7  C   UNL     1      44.589 -10.469  10.113  1.00  0.00     0.040 C 
ENDROOT
BRANCH   2   8
HETATM    8  C   UNL     1      41.483  -8.348   9.134  1.00  0.00     0.294 C 
BRANCH   8   9
HETATM    9  C   UNL     1      40.411  -9.263   8.695  1.00  0.00     0.061 A 
HETATM   10  N   UNL     1      40.258  -9.732   7.404  1.00  0.00    -0.305 N 
HETATM   11  C   UNL     1      39.131 -10.519   7.406  1.00  0.00     0.151 A 
HETATM   12  C   UNL     1      40.958  -9.542   6.225  1.00  0.00     0.118 A 
HETATM   13  C   UNL     1      38.700 -11.114   6.170  1.00  0.00     0.167 A 
HETATM   14  N   UNL     1      38.579 -10.609   8.592  1.00  0.00    -0.239 NA
HETATM   15  N   UNL     1      39.354 -10.911   5.056  1.00  0.00    -0.268 NA
HETATM   16  C   UNL     1      40.492 -10.126   5.106  1.00  0.00     0.134 A 
HETATM   17  C   UNL     1      39.390  -9.870   9.408  1.00  0.00     0.146 A 
ENDBRANCH   8   9
ENDBRANCH   2   8
BRANCH   1  18
HETATM   18  C   UNL     1      42.991  -9.198  11.610  1.00  0.00     0.041 A 
HETATM   19  N   UNL     1      42.010  -9.641  12.478  1.00  0.00    -0.357 N 
HETATM   20  C   UNL     1      41.945  -8.836  13.591  1.00  0.00     0.042 A 
HETATM   21  H   UNL     1      41.386 -10.425  12.329  1.00  0.00     0.166 HD
HETATM   22  C   UNL     1      42.972  -7.904  13.484  1.00  0.00    -0.008 A 
HETATM   23  C   UNL     1      41.069  -8.874  14.681  1.00  0.00     0.030 A 
HETATM   24  C   UNL     1      43.149  -6.965  14.517  1.00  0.00     0.014 A 
HETATM   25  C   UNL     1      43.638  -8.158  12.255  1.00  0.00     0.040 A 
HETATM   26  C   UNL     1      42.281  -6.986  15.615  1.00  0.00     0.001 A 
HETATM   27  C   UNL     1      41.255  -7.927  15.691  1.00  0.00     0.002 A 
ENDBRANCH   1  18
TORSDOF 3
ENDMDL
MODEL 9
REMARK VINA RESULT:      -8.1      2.225      7.129
REMARK  3 active torsions:
REMARK  status: ('A' for Active; 'I' for Inactive)
REMARK    1  A    between atoms: C_7  and  C_8 
REMARK    2  A    between atoms: N_9  and  C_11 
REMARK    3  A    between atoms: C_11  and  C_12 
ROOT
HETATM    1  C   UNL     1      42.354 -14.236   2.215  1.00  0.00     0.238 C 
HETATM    2  N   UNL     1      41.696 -14.758   3.484  1.00  0.00    -0.056 N 
HETATM    3  H   UNL     1      42.426 -14.703   4.203  1.00  0.00     0.281 HD
HETATM    4  C   UNL     1      41.290 -16.209   3.430  1.00  0.00     0.236 C 
HETATM    5  C   UNL     1      42.482 -17.077   3.062  1.00  0.00     0.028 C 
HETATM    6  C   UNL     1      43.123 -16.639   1.755  1.00  0.00     0.004 C 
HETATM    7  C   UNL     1      43.503 -15.164   1.801  1.00  0.00     0.040 C 
ENDROOT
BRANCH   2   8
HETATM    8  C   UNL     1      40.559 -13.897   3.999  1.00  0.00     0.294 C 
BRANCH   8   9
HETATM    9  C   UNL     1      41.018 -12.602   4.541  1.00  0.00     0.061 A 
HETATM   10  N   UNL     1      42.031 -12.453   5.468  1.00  0.00    -0.305 N 
HETATM   11  C   UNL     1      42.121 -11.108   5.735  1.00  0.00     0.151 A 
HETATM   12  C   UNL     1      42.867 -13.338   6.127  1.00  0.00     0.118 A 
HETATM   13  C   UNL     1      43.078 -10.658   6.709  1.00  0.00     0.167 A 
HETATM   14  N   UNL     1      41.272 -10.396   5.034  1.00  0.00    -0.239 NA
HETATM   15  N   UNL     1      43.848 -11.502   7.343  1.00  0.00    -0.268 NA
HETATM   16  C   UNL     1      43.734 -12.845   7.030  1.00  0.00     0.134 A 
HETATM   17  C   UNL     1      40.613 -11.308   4.258  1.00  0.00     0.146 A 
ENDBRANCH   8   9
ENDBRANCH   2   8
BRANCH   1  18
HETATM   18  C   UNL     1      41.402 -13.939   1.098  1.00  0.00     0.041 A 
HETATM   19  N   UNL     1      41.178 -12.637   0.689  1.00  0.00    -0.357 N 
HETATM   20  C   UNL     1      40.205 -12.593  -0.282  1.00  0.00     0.042 A 
HETATM   21  H   UNL     1      41.626 -11.807   1.057  1.00  0.00     0.166 HD
HETATM   22  C   UNL     1      39.857 -13.907  -0.574  1.00  0.00    -0.008 A 
HETATM   23  C   UNL     1      39.625 -11.495  -0.925  1.00  0.00     0.030 A 
HETATM   24  C   UNL     1      38.889 -14.150  -1.566  1.00  0.00     0.014 A 
HETATM   25  C   UNL     1      40.632 -14.742   0.274  1.00  0.00     0.040 A 
HETATM   26  C   UNL     1      38.295 -13.064  -2.220  1.00  0.00     0.001 A 
HETATM   27  C   UNL     1      38.658 -11.757  -1.900  1.00  0.00     0.002 A 
ENDBRANCH   1  18
TORSDOF 3
ENDMDL
MODEL 10
REMARK VINA RESULT:      -8.1      2.272      6.094
REMARK  3 active torsions:
REMARK  status: ('A' for Active; 'I' for Inactive)
REMARK    1  A    between atoms: C_7  and  C_8 
REMARK    2  A    between atoms: N_9  and  C_11 
REMARK    3  A    between atoms: C_11  and  C_12 
ROOT
HETATM    1  C   UNL     1      42.014 -14.119   2.070  1.00  0.00     0.238 C 
HETATM    2  N   UNL     1      41.304 -14.807   3.227  1.00  0.00    -0.056 N 
HETATM    3  H   UNL     1      41.879 -14.602   4.052  1.00  0.00     0.281 HD
HETATM    4  C   UNL     1      41.256 -16.311   3.131  1.00  0.00     0.236 C 
HETATM    5  C   UNL     1      42.657 -16.874   2.967  1.00  0.00     0.028 C 
HETATM    6  C   UNL     1      43.377 -16.271   1.771  1.00  0.00     0.004 C 
HETATM    7  C   UNL     1      43.396 -14.750   1.857  1.00  0.00     0.040 C 
ENDROOT
BRANCH   2   8
HETATM    8  C   UNL     1      39.933 -14.241   3.544  1.00  0.00     0.294 C 
BRANCH   8   9
HETATM    9  C   UNL     1      39.963 -12.798   3.854  1.00  0.00     0.061 A 
HETATM   10  N   UNL     1      39.247 -11.832   3.174  1.00  0.00    -0.305 N 
HETATM   11  C   UNL     1      39.579 -10.626   3.743  1.00  0.00     0.151 A 
HETATM   12  C   UNL     1      38.363 -11.865   2.109  1.00  0.00     0.118 A 
HETATM   13  C   UNL     1      39.006  -9.424   3.201  1.00  0.00     0.167 A 
HETATM   14  N   UNL     1      40.420 -10.753   4.742  1.00  0.00    -0.239 NA
HETATM   15  N   UNL     1      38.191  -9.462   2.181  1.00  0.00    -0.268 NA
HETATM   16  C   UNL     1      37.872 -10.700   1.652  1.00  0.00     0.134 A 
HETATM   17  C   UNL     1      40.630 -12.100   4.847  1.00  0.00     0.146 A 
ENDBRANCH   8   9
ENDBRANCH   2   8
BRANCH   1  18
HETATM   18  C   UNL     1      41.207 -14.023   0.813  1.00  0.00     0.041 A 
HETATM   19  N   UNL     1      41.229 -12.873   0.047  1.00  0.00    -0.357 N 
HETATM   20  C   UNL     1      40.350 -12.972  -1.005  1.00  0.00     0.042 A 
HETATM   21  H   UNL     1      41.781 -12.043   0.226  1.00  0.00     0.166 HD
HETATM   22  C   UNL     1      39.811 -14.254  -0.972  1.00  0.00    -0.008 A 
HETATM   23  C   UNL     1      40.005 -12.033  -1.983  1.00  0.00     0.030 A 
HETATM   24  C   UNL     1      38.890 -14.632  -1.966  1.00  0.00     0.014 A 
HETATM   25  C   UNL     1      40.376 -14.913   0.153  1.00  0.00     0.040 A 
HETATM   26  C   UNL     1      38.532 -13.705  -2.952  1.00  0.00     0.001 A 
HETATM   27  C   UNL     1      39.081 -12.425  -2.956  1.00  0.00     0.002 A 
ENDBRANCH   1  18
TORSDOF 3
ENDMDL
