MODEL 1
REMARK VINA RESULT:      -8.2      0.000      0.000
REMARK  8 active torsions:
REMARK  status: ('A' for Active; 'I' for Inactive)
REMARK    1  A    between atoms: C_7  and  C_8 
REMARK       I    between atoms: C_8  and  N_9 
REMARK    2  A    between atoms: N_9  and  C_10 
REMARK    3  A    between atoms: C_11  and  C_12 
REMARK       I    between atoms: C_12  and  N_13 
REMARK    4  A    between atoms: N_13  and  C_14 
REMARK    5  A    between atoms: C_14  and  C_15 
REMARK    6  A    between atoms: C_15  and  C_16 
REMARK    7  A    between atoms: C_18  and  O_19 
REMARK    8  A    between atoms: C_21  and  O_22 
ROOT
HETATM    1  C   UNL     1      43.529 -17.577   3.911  1.00  0.00     0.050 A 
HETATM    2  C   UNL     1      42.921 -17.644   2.636  1.00  0.00     0.058 A 
HETATM    3  C   UNL     1      42.890 -18.857   1.921  1.00  0.00     0.019 A 
HETATM    4  C   UNL     1      43.433 -20.013   2.475  1.00  0.00     0.001 A 
HETATM    5  C   UNL     1      44.014 -19.962   3.737  1.00  0.00     0.002 A 
HETATM    6  C   UNL     1      44.064 -18.756   4.445  1.00  0.00     0.030 A 
ENDROOT
BRANCH   2   7
HETATM    7  C   UNL     1      42.306 -16.437   2.018  1.00  0.00     0.253 C 
HETATM    8  N   UNL     1      40.945 -16.290   2.193  1.00  0.00    -0.356 N 
HETATM    9  H   UNL     1      40.449 -16.913   2.818  1.00  0.00     0.162 HD
HETATM   10  O   UNL     1      42.998 -15.620   1.424  1.00  0.00    -0.268 OA
BRANCH   8  11
HETATM   11  C   UNL     1      40.240 -15.150   1.642  1.00  0.00     0.127 C 
BRANCH  11  12
HETATM   12  C   UNL     1      39.932 -15.300   0.148  1.00  0.00     0.058 C 
BRANCH  12  13
HETATM   13  C   UNL     1      40.165 -14.085  -0.727  1.00  0.00    -0.054 A 
HETATM   14  C   UNL     1      40.705 -12.887  -0.235  1.00  0.00     0.046 A 
HETATM   15  C   UNL     1      40.892 -11.779  -1.073  1.00  0.00     0.102 A 
HETATM   16  C   UNL     1      40.511 -11.855  -2.426  1.00  0.00     0.101 A 
HETATM   17  C   UNL     1      39.954 -13.039  -2.916  1.00  0.00     0.040 A 
HETATM   18  C   UNL     1      39.781 -14.140  -2.073  1.00  0.00     0.010 A 
BRANCH  15  19
HETATM   19  O   UNL     1      41.432 -10.582  -0.668  1.00  0.00    -0.353 OA
HETATM   20  C   UNL     1      41.521 -10.334   0.728  1.00  0.00     0.210 C 
ENDBRANCH  15  19
BRANCH  16  21
HETATM   21  O   UNL     1      40.725 -10.728  -3.182  1.00  0.00    -0.353 OA
HETATM   22  C   UNL     1      39.589  -9.981  -3.588  1.00  0.00     0.210 C 
ENDBRANCH  16  21
ENDBRANCH  12  13
ENDBRANCH  11  12
ENDBRANCH   8  11
ENDBRANCH   2   7
BRANCH   1  23
HETATM   23  N   UNL     1      43.581 -16.338   4.601  1.00  0.00    -0.321 N 
HETATM   24  C   UNL     1      42.557 -15.658   5.235  1.00  0.00     0.265 C 
HETATM   25  O   UNL     1      41.389 -16.036   5.256  1.00  0.00    -0.267 OA
HETATM   26  H   UNL     1      44.502 -15.893   4.639  1.00  0.00     0.169 HD
BRANCH  24  27
HETATM   27  C   UNL     1      42.981 -14.348   5.905  1.00  0.00     0.097 C 
HETATM   28  C   UNL     1      43.262 -14.286   7.233  1.00  0.00     0.064 C 
HETATM   29  C   UNL     1      43.167 -15.460   8.175  1.00  0.00     0.078 C 
HETATM   30  O   UNL     1      43.662 -13.151   7.923  1.00  0.00    -0.353 OA
HETATM   31  C   UNL     1      44.158 -12.058   7.152  1.00  0.00     0.185 C 
HETATM   32  C   UNL     1      43.158 -11.629   6.103  1.00  0.00     0.106 C 
HETATM   33  S   UNL     1      43.048 -12.938   4.866  1.00  0.00    -0.120 SA
ENDBRANCH  24  27
ENDBRANCH   1  23
TORSDOF 8
ENDMDL
MODEL 2
REMARK VINA RESULT:      -8.2      4.618      8.276
REMARK  8 active torsions:
REMARK  status: ('A' for Active; 'I' for Inactive)
REMARK    1  A    between atoms: C_7  and  C_8 
REMARK       I    between atoms: C_8  and  N_9 
REMARK    2  A    between atoms: N_9  and  C_10 
REMARK    3  A    between atoms: C_11  and  C_12 
REMARK       I    between atoms: C_12  and  N_13 
REMARK    4  A    between atoms: N_13  and  C_14 
REMARK    5  A    between atoms: C_14  and  C_15 
REMARK    6  A    between atoms: C_15  and  C_16 
REMARK    7  A    between atoms: C_18  and  O_19 
REMARK    8  A    between atoms: C_21  and  O_22 
ROOT
HETATM    1  C   UNL     1      44.221 -10.837   8.180  1.00  0.00     0.050 A 
HETATM    2  C   UNL     1      43.813 -11.282   6.902  1.00  0.00     0.058 A 
HETATM    3  C   UNL     1      44.754 -11.446   5.867  1.00  0.00     0.019 A 
HETATM    4  C   UNL     1      46.104 -11.199   6.100  1.00  0.00     0.001 A 
HETATM    5  C   UNL     1      46.518 -10.782   7.360  1.00  0.00     0.002 A 
HETATM    6  C   UNL     1      45.586 -10.600   8.388  1.00  0.00     0.030 A 
ENDROOT
BRANCH   2   7
HETATM    7  C   UNL     1      42.383 -11.582   6.617  1.00  0.00     0.253 C 
HETATM    8  N   UNL     1      42.084 -12.894   6.316  1.00  0.00    -0.356 N 
HETATM    9  H   UNL     1      42.795 -13.607   6.419  1.00  0.00     0.162 HD
HETATM   10  O   UNL     1      41.535 -10.700   6.689  1.00  0.00    -0.268 OA
BRANCH   8  11
HETATM   11  C   UNL     1      40.723 -13.305   6.029  1.00  0.00     0.127 C 
BRANCH  11  12
HETATM   12  C   UNL     1      40.465 -14.783   6.337  1.00  0.00     0.058 C 
BRANCH  12  13
HETATM   13  C   UNL     1      41.526 -15.772   5.898  1.00  0.00    -0.054 A 
HETATM   14  C   UNL     1      41.808 -16.034   4.549  1.00  0.00     0.046 A 
HETATM   15  C   UNL     1      42.787 -16.968   4.182  1.00  0.00     0.102 A 
HETATM   16  C   UNL     1      43.485 -17.676   5.179  1.00  0.00     0.101 A 
HETATM   17  C   UNL     1      43.193 -17.434   6.523  1.00  0.00     0.040 A 
HETATM   18  C   UNL     1      42.221 -16.494   6.877  1.00  0.00     0.010 A 
BRANCH  15  19
HETATM   19  O   UNL     1      43.131 -17.262   2.885  1.00  0.00    -0.353 OA
HETATM   20  C   UNL     1      43.186 -16.189   1.954  1.00  0.00     0.210 C 
ENDBRANCH  15  19
BRANCH  16  21
HETATM   21  O   UNL     1      44.427 -18.573   4.740  1.00  0.00    -0.353 OA
HETATM   22  C   UNL     1      44.211 -19.948   5.023  1.00  0.00     0.210 C 
ENDBRANCH  16  21
ENDBRANCH  12  13
ENDBRANCH  11  12
ENDBRANCH   8  11
ENDBRANCH   2   7
BRANCH   1  23
HETATM   23  N   UNL     1      43.253 -10.645   9.200  1.00  0.00    -0.321 N 
HETATM   24  C   UNL     1      42.903  -9.476   9.851  1.00  0.00     0.265 C 
HETATM   25  O   UNL     1      43.439  -8.390   9.652  1.00  0.00    -0.267 OA
HETATM   26  H   UNL     1      42.741 -11.485   9.486  1.00  0.00     0.169 HD
BRANCH  24  27
HETATM   27  C   UNL     1      41.788  -9.635  10.890  1.00  0.00     0.097 C 
HETATM   28  C   UNL     1      40.482  -9.444  10.568  1.00  0.00     0.064 C 
HETATM   29  C   UNL     1      39.998  -9.044   9.198  1.00  0.00     0.078 C 
HETATM   30  O   UNL     1      39.408  -9.575  11.436  1.00  0.00    -0.353 OA
HETATM   31  C   UNL     1      39.630 -10.295  12.647  1.00  0.00     0.185 C 
HETATM   32  C   UNL     1      40.783  -9.709  13.430  1.00  0.00     0.106 C 
HETATM   33  S   UNL     1      42.303 -10.041  12.516  1.00  0.00    -0.120 SA
ENDBRANCH  24  27
ENDBRANCH   1  23
TORSDOF 8
ENDMDL
MODEL 3
REMARK VINA RESULT:      -7.7      2.745      7.614
REMARK  8 active torsions:
REMARK  status: ('A' for Active; 'I' for Inactive)
REMARK    1  A    between atoms: C_7  and  C_8 
REMARK       I    between atoms: C_8  and  N_9 
REMARK    2  A    between atoms: N_9  and  C_10 
REMARK    3  A    between atoms: C_11  and  C_12 
REMARK       I    between atoms: C_12  and  N_13 
REMARK    4  A    between atoms: N_13  and  C_14 
REMARK    5  A    between atoms: C_14  and  C_15 
REMARK    6  A    between atoms: C_15  and  C_16 
REMARK    7  A    between atoms: C_18  and  O_19 
REMARK    8  A    between atoms: C_21  and  O_22 
ROOT
HETATM    1  C   UNL     1      42.558 -16.272   3.132  1.00  0.00     0.050 A 
HETATM    2  C   UNL     1      42.988 -16.350   4.477  1.00  0.00     0.058 A 
HETATM    3  C   UNL     1      43.737 -17.454   4.925  1.00  0.00     0.019 A 
HETATM    4  C   UNL     1      44.090 -18.470   4.041  1.00  0.00     0.001 A 
HETATM    5  C   UNL     1      43.691 -18.392   2.712  1.00  0.00     0.002 A 
HETATM    6  C   UNL     1      42.930 -17.306   2.263  1.00  0.00     0.030 A 
ENDROOT
BRANCH   2   7
HETATM    7  C   UNL     1      42.655 -15.273   5.449  1.00  0.00     0.253 C 
HETATM    8  N   UNL     1      43.702 -14.473   5.854  1.00  0.00    -0.356 N 
HETATM    9  H   UNL     1      44.603 -14.557   5.399  1.00  0.00     0.162 HD
HETATM   10  O   UNL     1      41.500 -15.108   5.824  1.00  0.00    -0.268 OA
BRANCH   8  11
HETATM   11  C   UNL     1      43.495 -13.388   6.793  1.00  0.00     0.127 C 
BRANCH  11  12
HETATM   12  C   UNL     1      44.660 -12.393   6.826  1.00  0.00     0.058 C 
BRANCH  12  13
HETATM   13  C   UNL     1      44.358 -10.997   7.332  1.00  0.00    -0.054 A 
HETATM   14  C   UNL     1      43.134 -10.353   7.097  1.00  0.00     0.046 A 
HETATM   15  C   UNL     1      42.897  -9.054   7.568  1.00  0.00     0.102 A 
HETATM   16  C   UNL     1      43.909  -8.370   8.268  1.00  0.00     0.101 A 
HETATM   17  C   UNL     1      45.137  -8.999   8.486  1.00  0.00     0.040 A 
HETATM   18  C   UNL     1      45.358 -10.298   8.019  1.00  0.00     0.010 A 
BRANCH  15  19
HETATM   19  O   UNL     1      41.719  -8.369   7.395  1.00  0.00    -0.353 OA
HETATM   20  C   UNL     1      40.559  -8.871   8.043  1.00  0.00     0.210 C 
ENDBRANCH  15  19
BRANCH  16  21
HETATM   21  O   UNL     1      43.601  -7.102   8.696  1.00  0.00    -0.353 OA
HETATM   22  C   UNL     1      43.205  -6.942  10.050  1.00  0.00     0.210 C 
ENDBRANCH  16  21
ENDBRANCH  12  13
ENDBRANCH  11  12
ENDBRANCH   8  11
ENDBRANCH   2   7
BRANCH   1  23
HETATM   23  N   UNL     1      41.774 -15.168   2.707  1.00  0.00    -0.321 N 
HETATM   24  C   UNL     1      40.412 -15.113   2.475  1.00  0.00     0.265 C 
HETATM   25  O   UNL     1      39.657 -16.077   2.573  1.00  0.00    -0.267 OA
HETATM   26  H   UNL     1      42.287 -14.294   2.560  1.00  0.00     0.169 HD
BRANCH  24  27
HETATM   27  C   UNL     1      39.894 -13.737   2.046  1.00  0.00     0.097 C 
HETATM   28  C   UNL     1      39.795 -13.389   0.737  1.00  0.00     0.064 C 
HETATM   29  C   UNL     1      40.195 -14.283  -0.410  1.00  0.00     0.078 C 
HETATM   30  O   UNL     1      39.331 -12.174   0.255  1.00  0.00    -0.353 OA
HETATM   31  C   UNL     1      38.574 -11.362   1.152  1.00  0.00     0.185 C 
HETATM   32  C   UNL     1      39.343 -11.088   2.424  1.00  0.00     0.106 C 
HETATM   33  S   UNL     1      39.472 -12.635   3.343  1.00  0.00    -0.120 SA
ENDBRANCH  24  27
ENDBRANCH   1  23
TORSDOF 8
ENDMDL
MODEL 4
REMARK VINA RESULT:      -7.7      2.690      7.193
REMARK  8 active torsions:
REMARK  status: ('A' for Active; 'I' for Inactive)
REMARK    1  A    between atoms: C_7  and  C_8 
REMARK       I    between atoms: C_8  and  N_9 
REMARK    2  A    between atoms: N_9  and  C_10 
REMARK    3  A    between atoms: C_11  and  C_12 
REMARK       I    between atoms: C_12  and  N_13 
REMARK    4  A    between atoms: N_13  and  C_14 
REMARK    5  A    between atoms: C_14  and  C_15 
REMARK    6  A    between atoms: C_15  and  C_16 
REMARK    7  A    between atoms: C_18  and  O_19 
REMARK    8  A    between atoms: C_21  and  O_22 
ROOT
HETATM    1  C   UNL     1      42.585 -16.970   3.256  1.00  0.00     0.050 A 
HETATM    2  C   UNL     1      42.994 -17.127   4.600  1.00  0.00     0.058 A 
HETATM    3  C   UNL     1      43.759 -18.243   4.990  1.00  0.00     0.019 A 
HETATM    4  C   UNL     1      44.147 -19.192   4.047  1.00  0.00     0.001 A 
HETATM    5  C   UNL     1      43.768 -19.035   2.720  1.00  0.00     0.002 A 
HETATM    6  C   UNL     1      42.992 -17.938   2.329  1.00  0.00     0.030 A 
ENDROOT
BRANCH   2   7
HETATM    7  C   UNL     1      42.623 -16.123   5.635  1.00  0.00     0.253 C 
HETATM    8  N   UNL     1      43.542 -15.122   5.870  1.00  0.00    -0.356 N 
HETATM    9  H   UNL     1      44.351 -15.032   5.266  1.00  0.00     0.162 HD
HETATM   10  O   UNL     1      41.540 -16.185   6.204  1.00  0.00    -0.268 OA
BRANCH   8  11
HETATM   11  C   UNL     1      43.285 -14.085   6.850  1.00  0.00     0.127 C 
BRANCH  11  12
HETATM   12  C   UNL     1      44.299 -12.937   6.788  1.00  0.00     0.058 C 
BRANCH  12  13
HETATM   13  C   UNL     1      43.804 -11.561   7.187  1.00  0.00    -0.054 A 
HETATM   14  C   UNL     1      44.349 -10.840   8.259  1.00  0.00     0.046 A 
HETATM   15  C   UNL     1      43.854  -9.575   8.608  1.00  0.00     0.102 A 
HETATM   16  C   UNL     1      42.776  -9.025   7.889  1.00  0.00     0.101 A 
HETATM   17  C   UNL     1      42.216  -9.749   6.833  1.00  0.00     0.040 A 
HETATM   18  C   UNL     1      42.724 -11.005   6.489  1.00  0.00     0.010 A 
BRANCH  15  19
HETATM   19  O   UNL     1      44.350  -8.803   9.630  1.00  0.00    -0.353 OA
HETATM   20  C   UNL     1      44.154  -9.261  10.961  1.00  0.00     0.210 C 
ENDBRANCH  15  19
BRANCH  16  21
HETATM   21  O   UNL     1      42.348  -7.784   8.290  1.00  0.00    -0.353 OA
HETATM   22  C   UNL     1      41.057  -7.689   8.874  1.00  0.00     0.210 C 
ENDBRANCH  16  21
ENDBRANCH  12  13
ENDBRANCH  11  12
ENDBRANCH   8  11
ENDBRANCH   2   7
BRANCH   1  23
HETATM   23  N   UNL     1      41.785 -15.856   2.890  1.00  0.00    -0.321 N 
HETATM   24  C   UNL     1      42.174 -14.548   2.668  1.00  0.00     0.265 C 
HETATM   25  O   UNL     1      43.324 -14.139   2.803  1.00  0.00    -0.267 OA
HETATM   26  H   UNL     1      40.787 -16.051   2.768  1.00  0.00     0.169 HD
BRANCH  24  27
HETATM   27  C   UNL     1      41.038 -13.606   2.260  1.00  0.00     0.097 C 
HETATM   28  C   UNL     1      40.219 -13.035   3.181  1.00  0.00     0.064 C 
HETATM   29  C   UNL     1      40.318 -13.276   4.667  1.00  0.00     0.078 C 
HETATM   30  O   UNL     1      39.173 -12.166   2.907  1.00  0.00    -0.353 OA
HETATM   31  C   UNL     1      39.163 -11.541   1.625  1.00  0.00     0.185 C 
HETATM   32  C   UNL     1      39.210 -12.566   0.515  1.00  0.00     0.106 C 
HETATM   33  S   UNL     1      40.840 -13.340   0.538  1.00  0.00    -0.120 SA
ENDBRANCH  24  27
ENDBRANCH   1  23
TORSDOF 8
ENDMDL
MODEL 5
REMARK VINA RESULT:      -7.6      2.383      7.482
REMARK  8 active torsions:
REMARK  status: ('A' for Active; 'I' for Inactive)
REMARK    1  A    between atoms: C_7  and  C_8 
REMARK       I    between atoms: C_8  and  N_9 
REMARK    2  A    between atoms: N_9  and  C_10 
REMARK    3  A    between atoms: C_11  and  C_12 
REMARK       I    between atoms: C_12  and  N_13 
REMARK    4  A    between atoms: N_13  and  C_14 
REMARK    5  A    between atoms: C_14  and  C_15 
REMARK    6  A    between atoms: C_15  and  C_16 
REMARK    7  A    between atoms: C_18  and  O_19 
REMARK    8  A    between atoms: C_21  and  O_22 
ROOT
HETATM    1  C   UNL     1      40.488 -14.389   1.093  1.00  0.00     0.050 A 
HETATM    2  C   UNL     1      40.327 -12.984   1.100  1.00  0.00     0.058 A 
HETATM    3  C   UNL     1      39.727 -12.327   0.009  1.00  0.00     0.019 A 
HETATM    4  C   UNL     1      39.258 -13.057  -1.079  1.00  0.00     0.001 A 
HETATM    5  C   UNL     1      39.392 -14.441  -1.086  1.00  0.00     0.002 A 
HETATM    6  C   UNL     1      40.003 -15.099  -0.013  1.00  0.00     0.030 A 
ENDROOT
BRANCH   2   7
HETATM    7  C   UNL     1      40.792 -12.168   2.255  1.00  0.00     0.253 C 
HETATM    8  N   UNL     1      42.054 -11.621   2.146  1.00  0.00    -0.356 N 
HETATM    9  H   UNL     1      42.554 -11.683   1.267  1.00  0.00     0.162 HD
HETATM   10  O   UNL     1      40.061 -11.978   3.219  1.00  0.00    -0.268 OA
BRANCH   8  11
HETATM   11  C   UNL     1      42.609 -10.802   3.205  1.00  0.00     0.127 C 
BRANCH  11  12
HETATM   12  C   UNL     1      43.717 -11.509   3.992  1.00  0.00     0.058 C 
BRANCH  12  13
HETATM   13  C   UNL     1      43.807 -11.208   5.475  1.00  0.00    -0.054 A 
HETATM   14  C   UNL     1      42.804 -10.518   6.171  1.00  0.00     0.046 A 
HETATM   15  C   UNL     1      42.931 -10.245   7.541  1.00  0.00     0.102 A 
HETATM   16  C   UNL     1      44.092 -10.645   8.228  1.00  0.00     0.101 A 
HETATM   17  C   UNL     1      45.103 -11.314   7.534  1.00  0.00     0.040 A 
HETATM   18  C   UNL     1      44.962 -11.589   6.171  1.00  0.00     0.010 A 
BRANCH  15  19
HETATM   19  O   UNL     1      41.983  -9.593   8.293  1.00  0.00    -0.353 OA
HETATM   20  C   UNL     1      40.664  -9.514   7.772  1.00  0.00     0.210 C 
ENDBRANCH  15  19
BRANCH  16  21
HETATM   21  O   UNL     1      44.142 -10.341   9.567  1.00  0.00    -0.353 OA
HETATM   22  C   UNL     1      45.370  -9.853  10.087  1.00  0.00     0.210 C 
ENDBRANCH  16  21
ENDBRANCH  12  13
ENDBRANCH  11  12
ENDBRANCH   8  11
ENDBRANCH   2   7
BRANCH   1  23
HETATM   23  N   UNL     1      41.127 -15.029   2.186  1.00  0.00    -0.321 N 
HETATM   24  C   UNL     1      42.471 -15.049   2.512  1.00  0.00     0.265 C 
HETATM   25  O   UNL     1      43.350 -14.517   1.841  1.00  0.00    -0.267 OA
HETATM   26  H   UNL     1      40.506 -15.539   2.822  1.00  0.00     0.169 HD
BRANCH  24  27
HETATM   27  C   UNL     1      42.805 -15.826   3.789  1.00  0.00     0.097 C 
HETATM   28  C   UNL     1      43.180 -17.131   3.751  1.00  0.00     0.064 C 
HETATM   29  C   UNL     1      43.284 -17.946   2.487  1.00  0.00     0.078 C 
HETATM   30  O   UNL     1      43.509 -17.910   4.851  1.00  0.00    -0.353 OA
HETATM   31  C   UNL     1      43.825 -17.229   6.063  1.00  0.00     0.185 C 
HETATM   32  C   UNL     1      42.706 -16.301   6.478  1.00  0.00     0.106 C 
HETATM   33  S   UNL     1      42.640 -14.941   5.294  1.00  0.00    -0.120 SA
ENDBRANCH  24  27
ENDBRANCH   1  23
TORSDOF 8
ENDMDL
MODEL 6
REMARK VINA RESULT:      -7.4      3.245      8.783
REMARK  8 active torsions:
REMARK  status: ('A' for Active; 'I' for Inactive)
REMARK    1  A    between atoms: C_7  and  C_8 
REMARK       I    between atoms: C_8  and  N_9 
REMARK    2  A    between atoms: N_9  and  C_10 
REMARK    3  A    between atoms: C_11  and  C_12 
REMARK       I    between atoms: C_12  and  N_13 
REMARK    4  A    between atoms: N_13  and  C_14 
REMARK    5  A    between atoms: C_14  and  C_15 
REMARK    6  A    between atoms: C_15  and  C_16 
REMARK    7  A    between atoms: C_18  and  O_19 
REMARK    8  A    between atoms: C_21  and  O_22 
ROOT
HETATM    1  C   UNL     1      42.710 -15.359   4.620  1.00  0.00     0.050 A 
HETATM    2  C   UNL     1      43.306 -14.790   5.769  1.00  0.00     0.058 A 
HETATM    3  C   UNL     1      43.963 -15.604   6.712  1.00  0.00     0.019 A 
HETATM    4  C   UNL     1      44.059 -16.978   6.508  1.00  0.00     0.001 A 
HETATM    5  C   UNL     1      43.494 -17.544   5.371  1.00  0.00     0.002 A 
HETATM    6  C   UNL     1      42.824 -16.743   4.439  1.00  0.00     0.030 A 
ENDROOT
BRANCH   2   7
HETATM    7  C   UNL     1      43.250 -13.323   6.013  1.00  0.00     0.253 C 
HETATM    8  N   UNL     1      44.461 -12.689   6.194  1.00  0.00    -0.356 N 
HETATM    9  H   UNL     1      45.322 -13.197   6.036  1.00  0.00     0.162 HD
HETATM   10  O   UNL     1      42.177 -12.732   6.011  1.00  0.00    -0.268 OA
BRANCH   8  11
HETATM   11  C   UNL     1      44.529 -11.260   6.432  1.00  0.00     0.127 C 
BRANCH  11  12
HETATM   12  C   UNL     1      45.304 -10.900   7.704  1.00  0.00     0.058 C 
BRANCH  12  13
HETATM   13  C   UNL     1      44.517 -10.262   8.831  1.00  0.00    -0.054 A 
HETATM   14  C   UNL     1      43.162  -9.918   8.711  1.00  0.00     0.046 A 
HETATM   15  C   UNL     1      42.472  -9.315   9.772  1.00  0.00     0.102 A 
HETATM   16  C   UNL     1      43.150  -9.025  10.971  1.00  0.00     0.101 A 
HETATM   17  C   UNL     1      44.504  -9.347  11.088  1.00  0.00     0.040 A 
HETATM   18  C   UNL     1      45.180  -9.956  10.026  1.00  0.00     0.010 A 
BRANCH  15  19
HETATM   19  O   UNL     1      41.142  -8.970   9.735  1.00  0.00    -0.353 OA
HETATM   20  C   UNL     1      40.575  -8.652   8.472  1.00  0.00     0.210 C 
ENDBRANCH  15  19
BRANCH  16  21
HETATM   21  O   UNL     1      42.405  -8.434  11.962  1.00  0.00    -0.353 OA
HETATM   22  C   UNL     1      43.094  -7.959  13.109  1.00  0.00     0.210 C 
ENDBRANCH  16  21
ENDBRANCH  12  13
ENDBRANCH  11  12
ENDBRANCH   8  11
ENDBRANCH   2   7
BRANCH   1  23
HETATM   23  N   UNL     1      42.022 -14.527   3.700  1.00  0.00    -0.321 N 
HETATM   24  C   UNL     1      42.416 -14.124   2.436  1.00  0.00     0.265 C 
HETATM   25  O   UNL     1      43.493 -14.418   1.925  1.00  0.00    -0.267 OA
HETATM   26  H   UNL     1      41.109 -14.184   4.012  1.00  0.00     0.169 HD
BRANCH  24  27
HETATM   27  C   UNL     1      41.404 -13.237   1.706  1.00  0.00     0.097 C 
HETATM   28  C   UNL     1      40.384 -13.768   0.982  1.00  0.00     0.064 C 
HETATM   29  C   UNL     1      40.153 -15.247   0.803  1.00  0.00     0.078 C 
HETATM   30  O   UNL     1      39.417 -13.046   0.297  1.00  0.00    -0.353 OA
HETATM   31  C   UNL     1      39.254 -11.674   0.649  1.00  0.00     0.185 C 
HETATM   32  C   UNL     1      40.558 -10.919   0.532  1.00  0.00     0.106 C 
HETATM   33  S   UNL     1      41.663 -11.508   1.831  1.00  0.00    -0.120 SA
ENDBRANCH  24  27
ENDBRANCH   1  23
TORSDOF 8
ENDMDL
MODEL 7
REMARK VINA RESULT:      -7.4     15.168     16.976
REMARK  8 active torsions:
REMARK  status: ('A' for Active; 'I' for Inactive)
REMARK    1  A    between atoms: C_7  and  C_8 
REMARK       I    between atoms: C_8  and  N_9 
REMARK    2  A    between atoms: N_9  and  C_10 
REMARK    3  A    between atoms: C_11  and  C_12 
REMARK       I    between atoms: C_12  and  N_13 
REMARK    4  A    between atoms: N_13  and  C_14 
REMARK    5  A    between atoms: C_14  and  C_15 
REMARK    6  A    between atoms: C_15  and  C_16 
REMARK    7  A    between atoms: C_18  and  O_19 
REMARK    8  A    between atoms: C_21  and  O_22 
ROOT
HETATM    1  C   UNL     1      47.048 -30.465   3.756  1.00  0.00     0.050 A 
HETATM    2  C   UNL     1      47.848 -29.500   3.103  1.00  0.00     0.058 A 
HETATM    3  C   UNL     1      49.211 -29.364   3.425  1.00  0.00     0.019 A 
HETATM    4  C   UNL     1      49.796 -30.201   4.373  1.00  0.00     0.001 A 
HETATM    5  C   UNL     1      49.023 -31.168   5.005  1.00  0.00     0.002 A 
HETATM    6  C   UNL     1      47.662 -31.296   4.702  1.00  0.00     0.030 A 
ENDROOT
BRANCH   2   7
HETATM    7  C   UNL     1      47.269 -28.602   2.066  1.00  0.00     0.253 C 
HETATM    8  N   UNL     1      47.933 -28.559   0.858  1.00  0.00    -0.356 N 
HETATM    9  H   UNL     1      48.689 -29.209   0.678  1.00  0.00     0.162 HD
HETATM   10  O   UNL     1      46.239 -27.977   2.288  1.00  0.00    -0.268 OA
BRANCH   8  11
HETATM   11  C   UNL     1      47.457 -27.726  -0.228  1.00  0.00     0.127 C 
BRANCH  11  12
HETATM   12  C   UNL     1      47.877 -28.242  -1.609  1.00  0.00     0.058 C 
BRANCH  12  13
HETATM   13  C   UNL     1      46.833 -28.996  -2.407  1.00  0.00    -0.054 A 
HETATM   14  C   UNL     1      46.895 -30.381  -2.621  1.00  0.00     0.046 A 
HETATM   15  C   UNL     1      45.917 -31.041  -3.379  1.00  0.00     0.102 A 
HETATM   16  C   UNL     1      44.867 -30.304  -3.958  1.00  0.00     0.101 A 
HETATM   17  C   UNL     1      44.812 -28.921  -3.764  1.00  0.00     0.040 A 
HETATM   18  C   UNL     1      45.788 -28.276  -3.000  1.00  0.00     0.010 A 
BRANCH  15  19
HETATM   19  O   UNL     1      45.901 -32.395  -3.613  1.00  0.00    -0.353 OA
HETATM   20  C   UNL     1      47.035 -32.972  -4.244  1.00  0.00     0.210 C 
ENDBRANCH  15  19
BRANCH  16  21
HETATM   21  O   UNL     1      43.949 -31.022  -4.685  1.00  0.00    -0.353 OA
HETATM   22  C   UNL     1      43.938 -30.840  -6.093  1.00  0.00     0.210 C 
ENDBRANCH  16  21
ENDBRANCH  12  13
ENDBRANCH  11  12
ENDBRANCH   8  11
ENDBRANCH   2   7
BRANCH   1  23
HETATM   23  N   UNL     1      45.667 -30.564   3.442  1.00  0.00    -0.321 N 
HETATM   24  C   UNL     1      45.046 -31.388   2.521  1.00  0.00     0.265 C 
HETATM   25  O   UNL     1      45.642 -32.164   1.780  1.00  0.00    -0.267 OA
HETATM   26  H   UNL     1      45.049 -29.945   3.975  1.00  0.00     0.169 HD
BRANCH  24  27
HETATM   27  C   UNL     1      43.523 -31.245   2.464  1.00  0.00     0.097 C 
HETATM   28  C   UNL     1      42.915 -30.469   1.529  1.00  0.00     0.064 C 
HETATM   29  C   UNL     1      43.651 -29.666   0.486  1.00  0.00     0.078 C 
HETATM   30  O   UNL     1      41.546 -30.287   1.394  1.00  0.00    -0.353 OA
HETATM   31  C   UNL     1      40.695 -31.235   2.034  1.00  0.00     0.185 C 
HETATM   32  C   UNL     1      41.000 -31.337   3.510  1.00  0.00     0.106 C 
HETATM   33  S   UNL     1      42.621 -32.110   3.693  1.00  0.00    -0.120 SA
ENDBRANCH  24  27
ENDBRANCH   1  23
TORSDOF 8
ENDMDL
MODEL 8
REMARK VINA RESULT:      -7.4      1.625      2.193
REMARK  8 active torsions:
REMARK  status: ('A' for Active; 'I' for Inactive)
REMARK    1  A    between atoms: C_7  and  C_8 
REMARK       I    between atoms: C_8  and  N_9 
REMARK    2  A    between atoms: N_9  and  C_10 
REMARK    3  A    between atoms: C_11  and  C_12 
REMARK       I    between atoms: C_12  and  N_13 
REMARK    4  A    between atoms: N_13  and  C_14 
REMARK    5  A    between atoms: C_14  and  C_15 
REMARK    6  A    between atoms: C_15  and  C_16 
REMARK    7  A    between atoms: C_18  and  O_19 
REMARK    8  A    between atoms: C_21  and  O_22 
ROOT
HETATM    1  C   UNL     1      43.490 -16.705   4.240  1.00  0.00     0.050 A 
HETATM    2  C   UNL     1      43.028 -17.071   2.955  1.00  0.00     0.058 A 
HETATM    3  C   UNL     1      43.257 -18.367   2.455  1.00  0.00     0.019 A 
HETATM    4  C   UNL     1      43.918 -19.314   3.233  1.00  0.00     0.001 A 
HETATM    5  C   UNL     1      44.356 -18.970   4.506  1.00  0.00     0.002 A 
HETATM    6  C   UNL     1      44.148 -17.679   5.003  1.00  0.00     0.030 A 
ENDROOT
BRANCH   2   7
HETATM    7  C   UNL     1      42.295 -16.097   2.100  1.00  0.00     0.253 C 
HETATM    8  N   UNL     1      40.939 -16.308   1.962  1.00  0.00    -0.356 N 
HETATM    9  H   UNL     1      40.481 -17.014   2.525  1.00  0.00     0.162 HD
HETATM   10  O   UNL     1      42.883 -15.151   1.590  1.00  0.00    -0.268 OA
BRANCH   8  11
HETATM   11  C   UNL     1      40.122 -15.419   1.159  1.00  0.00     0.127 C 
BRANCH  11  12
HETATM   12  C   UNL     1      39.726 -14.137   1.898  1.00  0.00     0.058 C 
BRANCH  12  13
HETATM   13  C   UNL     1      40.053 -12.823   1.218  1.00  0.00    -0.054 A 
HETATM   14  C   UNL     1      39.792 -11.577   1.808  1.00  0.00     0.046 A 
HETATM   15  C   UNL     1      40.094 -10.382   1.140  1.00  0.00     0.102 A 
HETATM   16  C   UNL     1      40.646 -10.426  -0.155  1.00  0.00     0.101 A 
HETATM   17  C   UNL     1      40.888 -11.664  -0.755  1.00  0.00     0.040 A 
HETATM   18  C   UNL     1      40.591 -12.849  -0.075  1.00  0.00     0.010 A 
BRANCH  15  19
HETATM   19  O   UNL     1      39.886  -9.128   1.661  1.00  0.00    -0.353 OA
HETATM   20  C   UNL     1      40.536  -8.801   2.881  1.00  0.00     0.210 C 
ENDBRANCH  15  19
BRANCH  16  21
HETATM   21  O   UNL     1      40.913  -9.214  -0.743  1.00  0.00    -0.353 OA
HETATM   22  C   UNL     1      42.248  -8.963  -1.157  1.00  0.00     0.210 C 
ENDBRANCH  16  21
ENDBRANCH  12  13
ENDBRANCH  11  12
ENDBRANCH   8  11
ENDBRANCH   2   7
BRANCH   1  23
HETATM   23  N   UNL     1      43.279 -15.384   4.713  1.00  0.00    -0.321 N 
HETATM   24  C   UNL     1      42.609 -14.969   5.850  1.00  0.00     0.265 C 
HETATM   25  O   UNL     1      42.040 -15.727   6.629  1.00  0.00    -0.267 OA
HETATM   26  H   UNL     1      43.684 -14.640   4.138  1.00  0.00     0.169 HD
BRANCH  24  27
HETATM   27  C   UNL     1      42.598 -13.452   6.065  1.00  0.00     0.097 C 
HETATM   28  C   UNL     1      41.483 -12.709   5.844  1.00  0.00     0.064 C 
HETATM   29  C   UNL     1      40.173 -13.273   5.355  1.00  0.00     0.078 C 
HETATM   30  O   UNL     1      41.377 -11.337   6.020  1.00  0.00    -0.353 OA
HETATM   31  C   UNL     1      42.374 -10.702   6.817  1.00  0.00     0.185 C 
HETATM   32  C   UNL     1      43.762 -10.990   6.290  1.00  0.00     0.106 C 
HETATM   33  S   UNL     1      44.115 -12.736   6.575  1.00  0.00    -0.120 SA
ENDBRANCH  24  27
ENDBRANCH   1  23
TORSDOF 8
ENDMDL
MODEL 9
REMARK VINA RESULT:      -7.3      2.108      2.416
REMARK  8 active torsions:
REMARK  status: ('A' for Active; 'I' for Inactive)
REMARK    1  A    between atoms: C_7  and  C_8 
REMARK       I    between atoms: C_8  and  N_9 
REMARK    2  A    between atoms: N_9  and  C_10 
REMARK    3  A    between atoms: C_11  and  C_12 
REMARK       I    between atoms: C_12  and  N_13 
REMARK    4  A    between atoms: N_13  and  C_14 
REMARK    5  A    between atoms: C_14  and  C_15 
REMARK    6  A    between atoms: C_15  and  C_16 
REMARK    7  A    between atoms: C_18  and  O_19 
REMARK    8  A    between atoms: C_21  and  O_22 
ROOT
HETATM    1  C   UNL     1      43.152 -16.216   3.942  1.00  0.00     0.050 A 
HETATM    2  C   UNL     1      42.342 -16.481   2.814  1.00  0.00     0.058 A 
HETATM    3  C   UNL     1      42.410 -17.726   2.161  1.00  0.00     0.019 A 
HETATM    4  C   UNL     1      43.257 -18.723   2.637  1.00  0.00     0.001 A 
HETATM    5  C   UNL     1      44.041 -18.480   3.758  1.00  0.00     0.002 A 
HETATM    6  C   UNL     1      43.992 -17.238   4.402  1.00  0.00     0.030 A 
ENDROOT
BRANCH   2   7
HETATM    7  C   UNL     1      41.405 -15.451   2.287  1.00  0.00     0.253 C 
HETATM    8  N   UNL     1      41.808 -14.787   1.148  1.00  0.00    -0.356 N 
HETATM    9  H   UNL     1      42.635 -15.096   0.653  1.00  0.00     0.162 HD
HETATM   10  O   UNL     1      40.327 -15.251   2.834  1.00  0.00    -0.268 OA
BRANCH   8  11
HETATM   11  C   UNL     1      40.973 -13.768   0.541  1.00  0.00     0.127 C 
BRANCH  11  12
HETATM   12  C   UNL     1      40.033 -14.325  -0.534  1.00  0.00     0.058 C 
BRANCH  12  13
HETATM   13  C   UNL     1      39.173 -13.326  -1.280  1.00  0.00    -0.054 A 
HETATM   14  C   UNL     1      39.294 -11.939  -1.104  1.00  0.00     0.046 A 
HETATM   15  C   UNL     1      38.469 -11.046  -1.802  1.00  0.00     0.102 A 
HETATM   16  C   UNL     1      37.483 -11.543  -2.676  1.00  0.00     0.101 A 
HETATM   17  C   UNL     1      37.345 -12.924  -2.838  1.00  0.00     0.040 A 
HETATM   18  C   UNL     1      38.179 -13.805  -2.144  1.00  0.00     0.010 A 
BRANCH  15  19
HETATM   19  O   UNL     1      38.543  -9.678  -1.697  1.00  0.00    -0.353 OA
HETATM   20  C   UNL     1      39.521  -9.133  -0.823  1.00  0.00     0.210 C 
ENDBRANCH  15  19
BRANCH  16  21
HETATM   21  O   UNL     1      36.715 -10.606  -3.322  1.00  0.00    -0.353 OA
HETATM   22  C   UNL     1      35.304 -10.716  -3.203  1.00  0.00     0.210 C 
ENDBRANCH  16  21
ENDBRANCH  12  13
ENDBRANCH  11  12
ENDBRANCH   8  11
ENDBRANCH   2   7
BRANCH   1  23
HETATM   23  N   UNL     1      43.094 -14.943   4.566  1.00  0.00    -0.321 N 
HETATM   24  C   UNL     1      42.510 -14.596   5.771  1.00  0.00     0.265 C 
HETATM   25  O   UNL     1      41.893 -15.378   6.488  1.00  0.00    -0.267 OA
HETATM   26  H   UNL     1      43.553 -14.181   4.057  1.00  0.00     0.169 HD
BRANCH  24  27
HETATM   27  C   UNL     1      42.662 -13.120   6.150  1.00  0.00     0.097 C 
HETATM   28  C   UNL     1      41.673 -12.218   5.916  1.00  0.00     0.064 C 
HETATM   29  C   UNL     1      40.360 -12.554   5.254  1.00  0.00     0.078 C 
HETATM   30  O   UNL     1      41.717 -10.868   6.233  1.00  0.00    -0.353 OA
HETATM   31  C   UNL     1      42.699 -10.451   7.179  1.00  0.00     0.185 C 
HETATM   32  C   UNL     1      44.087 -10.866   6.748  1.00  0.00     0.106 C 
HETATM   33  S   UNL     1      44.195 -12.663   6.868  1.00  0.00    -0.120 SA
ENDBRANCH  24  27
ENDBRANCH   1  23
TORSDOF 8
ENDMDL
MODEL 10
REMARK VINA RESULT:      -7.3      2.714      7.877
REMARK  8 active torsions:
REMARK  status: ('A' for Active; 'I' for Inactive)
REMARK    1  A    between atoms: C_7  and  C_8 
REMARK       I    between atoms: C_8  and  N_9 
REMARK    2  A    between atoms: N_9  and  C_10 
REMARK    3  A    between atoms: C_11  and  C_12 
REMARK       I    between atoms: C_12  and  N_13 
REMARK    4  A    between atoms: N_13  and  C_14 
REMARK    5  A    between atoms: C_14  and  C_15 
REMARK    6  A    between atoms: C_15  and  C_16 
REMARK    7  A    between atoms: C_18  and  O_19 
REMARK    8  A    between atoms: C_21  and  O_22 
ROOT
HETATM    1  C   UNL     1      42.453 -16.142   2.395  1.00  0.00     0.050 A 
HETATM    2  C   UNL     1      42.834 -15.724   3.691  1.00  0.00     0.058 A 
HETATM    3  C   UNL     1      43.549 -16.589   4.541  1.00  0.00     0.019 A 
HETATM    4  C   UNL     1      43.916 -17.859   4.103  1.00  0.00     0.001 A 
HETATM    5  C   UNL     1      43.565 -18.271   2.823  1.00  0.00     0.002 A 
HETATM    6  C   UNL     1      42.839 -17.423   1.979  1.00  0.00     0.030 A 
ENDROOT
BRANCH   2   7
HETATM    7  C   UNL     1      42.484 -14.365   4.189  1.00  0.00     0.253 C 
HETATM    8  N   UNL     1      43.349 -13.348   3.843  1.00  0.00    -0.356 N 
HETATM    9  H   UNL     1      44.094 -13.527   3.181  1.00  0.00     0.162 HD
HETATM   10  O   UNL     1      41.461 -14.184   4.838  1.00  0.00    -0.268 OA
BRANCH   8  11
HETATM   11  C   UNL     1      43.106 -11.983   4.265  1.00  0.00     0.127 C 
BRANCH  11  12
HETATM   12  C   UNL     1      44.151 -11.468   5.261  1.00  0.00     0.058 C 
BRANCH  12  13
HETATM   13  C   UNL     1      43.633 -10.829   6.533  1.00  0.00    -0.054 A 
HETATM   14  C   UNL     1      44.213 -11.059   7.789  1.00  0.00     0.046 A 
HETATM   15  C   UNL     1      43.695 -10.461   8.947  1.00  0.00     0.102 A 
HETATM   16  C   UNL     1      42.558  -9.635   8.857  1.00  0.00     0.101 A 
HETATM   17  C   UNL     1      41.964  -9.420   7.611  1.00  0.00     0.040 A 
HETATM   18  C   UNL     1      42.495 -10.014   6.462  1.00  0.00     0.010 A 
BRANCH  15  19
HETATM   19  O   UNL     1      44.221 -10.623  10.205  1.00  0.00    -0.353 OA
HETATM   20  C   UNL     1      45.451  -9.975  10.498  1.00  0.00     0.210 C 
ENDBRANCH  15  19
BRANCH  16  21
HETATM   21  O   UNL     1      42.111  -9.087  10.034  1.00  0.00    -0.353 OA
HETATM   22  C   UNL     1      40.778  -9.375  10.430  1.00  0.00     0.210 C 
ENDBRANCH  16  21
ENDBRANCH  12  13
ENDBRANCH  11  12
ENDBRANCH   8  11
ENDBRANCH   2   7
BRANCH   1  23
HETATM   23  N   UNL     1      41.703 -15.268   1.566  1.00  0.00    -0.321 N 
HETATM   24  C   UNL     1      40.331 -15.111   1.493  1.00  0.00     0.265 C 
HETATM   25  O   UNL     1      39.527 -15.771   2.145  1.00  0.00    -0.267 OA
HETATM   26  H   UNL     1      42.254 -14.669   0.944  1.00  0.00     0.169 HD
BRANCH  24  27
HETATM   27  C   UNL     1      39.863 -14.048   0.495  1.00  0.00     0.097 C 
HETATM   28  C   UNL     1      39.678 -12.755   0.866  1.00  0.00     0.064 C 
HETATM   29  C   UNL     1      39.882 -12.238   2.268  1.00  0.00     0.078 C 
HETATM   30  O   UNL     1      39.267 -11.724   0.032  1.00  0.00    -0.353 OA
HETATM   31  C   UNL     1      39.384 -11.935  -1.373  1.00  0.00     0.185 C 
HETATM   32  C   UNL     1      38.657 -13.189  -1.802  1.00  0.00     0.106 C 
HETATM   33  S   UNL     1      39.551 -14.609  -1.137  1.00  0.00    -0.120 SA
ENDBRANCH  24  27
ENDBRANCH   1  23
TORSDOF 8
ENDMDL
