MODEL 1
REMARK VINA RESULT:      -8.9      0.000      0.000
REMARK  5 active torsions:
REMARK  status: ('A' for Active; 'I' for Inactive)
REMARK    1  A    between atoms: O_2  and  C_3 
REMARK    2  A    between atoms: C_4  and  C_5 
REMARK    3  A    between atoms: C_9  and  N_10 
REMARK       I    between atoms: N_10  and  C_11 
REMARK    4  A    between atoms: C_11  and  C_12 
REMARK    5  A    between atoms: C_12  and  C_13 
ROOT
HETATM    1  C   UNL     1      42.969 -14.542   5.467  1.00  0.00     0.093 A 
HETATM    2  N   UNL     1      41.822 -13.850   5.559  1.00  0.00    -0.172 NA
HETATM    3  N   UNL     1      42.062 -12.934   6.515  1.00  0.00    -0.262 N 
HETATM    4  H   UNL     1      41.334 -12.273   6.774  1.00  0.00     0.191 HD
HETATM    5  C   UNL     1      43.340 -12.976   7.006  1.00  0.00     0.126 A 
HETATM    6  C   UNL     1      43.944 -14.031   6.371  1.00  0.00     0.084 A 
ENDROOT
BRANCH   5   7
HETATM    7  N   UNL     1      43.857 -12.086   7.922  1.00  0.00    -0.311 N 
HETATM    8  C   UNL     1      43.666 -10.724   7.801  1.00  0.00     0.236 C 
HETATM    9  O   UNL     1      42.944 -10.170   6.979  1.00  0.00    -0.272 OA
HETATM   10  H   UNL     1      44.481 -12.436   8.638  1.00  0.00     0.170 HD
BRANCH   8  11
HETATM   11  C   UNL     1      44.495  -9.913   8.767  1.00  0.00     0.068 A 
HETATM   12  C   UNL     1      46.009 -10.104   8.725  1.00  0.00     0.026 A 
HETATM   13  C   UNL     1      45.416  -8.837   8.197  1.00  0.00     0.026 A 
BRANCH  11  14
HETATM   14  C   UNL     1      43.854  -9.693  10.136  1.00  0.00    -0.040 A 
HETATM   15  C   UNL     1      43.497  -8.399  10.560  1.00  0.00     0.010 A 
HETATM   16  C   UNL     1      42.958  -8.169  11.830  1.00  0.00     0.024 A 
HETATM   17  C   UNL     1      42.769  -9.237  12.701  1.00  0.00     0.034 A 
HETATM   18 CL   UNL     1      42.118  -8.959  14.269  1.00  0.00    -0.084 Cl
HETATM   19  C   UNL     1      43.112 -10.528  12.312  1.00  0.00     0.024 A 
HETATM   20  C   UNL     1      43.650 -10.750  11.041  1.00  0.00     0.010 A 
ENDBRANCH  11  14
ENDBRANCH   8  11
ENDBRANCH   5   7
BRANCH   1  21
HETATM   21  C   UNL     1      43.161 -15.608   4.486  1.00  0.00     0.029 A 
HETATM   22  C   UNL     1      43.049 -15.397   3.102  1.00  0.00     0.081 A 
HETATM   23  C   UNL     1      43.219 -16.456   2.202  1.00  0.00     0.039 A 
HETATM   24  C   UNL     1      43.535 -17.730   2.675  1.00  0.00     0.026 A 
HETATM   25  C   UNL     1      43.664 -17.943   4.045  1.00  0.00     0.035 A 
HETATM   26  C   UNL     1      43.477 -16.897   4.948  1.00  0.00     0.040 A 
HETATM   27 CL   UNL     1      44.047 -19.515   4.631  1.00  0.00    -0.084 Cl
BRANCH  22  28
HETATM   28  O   UNL     1      42.673 -14.178   2.600  1.00  0.00    -0.355 OA
HETATM   29  C   UNL     1      41.600 -14.337   1.669  1.00  0.00     0.210 C 
ENDBRANCH  22  28
ENDBRANCH   1  21
TORSDOF 5
ENDMDL
MODEL 2
REMARK VINA RESULT:      -8.5      6.124      9.189
REMARK  5 active torsions:
REMARK  status: ('A' for Active; 'I' for Inactive)
REMARK    1  A    between atoms: O_2  and  C_3 
REMARK    2  A    between atoms: C_4  and  C_5 
REMARK    3  A    between atoms: C_9  and  N_10 
REMARK       I    between atoms: N_10  and  C_11 
REMARK    4  A    between atoms: C_11  and  C_12 
REMARK    5  A    between atoms: C_12  and  C_13 
ROOT
HETATM    1  C   UNL     1      41.317 -16.047   2.635  1.00  0.00     0.093 A 
HETATM    2  N   UNL     1      40.132 -15.966   3.261  1.00  0.00    -0.172 NA
HETATM    3  N   UNL     1      39.443 -15.054   2.552  1.00  0.00    -0.262 N 
HETATM    4  H   UNL     1      38.495 -14.812   2.829  1.00  0.00     0.191 HD
HETATM    5  C   UNL     1      40.121 -14.581   1.460  1.00  0.00     0.126 A 
HETATM    6  C   UNL     1      41.354 -15.181   1.505  1.00  0.00     0.084 A 
ENDROOT
BRANCH   5   7
HETATM    7  N   UNL     1      39.596 -13.713   0.527  1.00  0.00    -0.311 N 
HETATM    8  C   UNL     1      39.326 -14.111  -0.767  1.00  0.00     0.236 C 
HETATM    9  O   UNL     1      39.395 -15.258  -1.195  1.00  0.00    -0.272 OA
HETATM   10  H   UNL     1      39.510 -12.735   0.772  1.00  0.00     0.170 HD
BRANCH   8  11
HETATM   11  C   UNL     1      38.974 -12.967  -1.686  1.00  0.00     0.068 A 
HETATM   12  C   UNL     1      38.693 -13.301  -3.149  1.00  0.00     0.026 A 
HETATM   13  C   UNL     1      37.559 -12.910  -2.256  1.00  0.00     0.026 A 
BRANCH  11  14
HETATM   14  C   UNL     1      39.709 -11.660  -1.396  1.00  0.00    -0.040 A 
HETATM   15  C   UNL     1      39.010 -10.535  -0.921  1.00  0.00     0.010 A 
HETATM   16  C   UNL     1      39.655  -9.313  -0.699  1.00  0.00     0.024 A 
HETATM   17  C   UNL     1      41.018  -9.199  -0.952  1.00  0.00     0.034 A 
HETATM   18 CL   UNL     1      41.815  -7.697  -0.693  1.00  0.00    -0.084 Cl
HETATM   19  C   UNL     1      41.738 -10.293  -1.422  1.00  0.00     0.024 A 
HETATM   20  C   UNL     1      41.087 -11.510  -1.641  1.00  0.00     0.010 A 
ENDBRANCH  11  14
ENDBRANCH   8  11
ENDBRANCH   5   7
BRANCH   1  21
HETATM   21  C   UNL     1      42.359 -16.984   3.050  1.00  0.00     0.029 A 
HETATM   22  C   UNL     1      43.158 -16.777   4.186  1.00  0.00     0.081 A 
HETATM   23  C   UNL     1      44.160 -17.693   4.530  1.00  0.00     0.039 A 
HETATM   24  C   UNL     1      44.350 -18.841   3.762  1.00  0.00     0.026 A 
HETATM   25  C   UNL     1      43.549 -19.061   2.644  1.00  0.00     0.035 A 
HETATM   26  C   UNL     1      42.563 -18.144   2.284  1.00  0.00     0.040 A 
HETATM   27 CL   UNL     1      43.787 -20.474   1.690  1.00  0.00    -0.084 Cl
BRANCH  22  28
HETATM   28  O   UNL     1      43.051 -15.629   4.928  1.00  0.00    -0.355 OA
HETATM   29  C   UNL     1      42.516 -15.924   6.220  1.00  0.00     0.210 C 
ENDBRANCH  22  28
ENDBRANCH   1  21
TORSDOF 5
ENDMDL
MODEL 3
REMARK VINA RESULT:      -8.4      6.210      9.602
REMARK  5 active torsions:
REMARK  status: ('A' for Active; 'I' for Inactive)
REMARK    1  A    between atoms: O_2  and  C_3 
REMARK    2  A    between atoms: C_4  and  C_5 
REMARK    3  A    between atoms: C_9  and  N_10 
REMARK       I    between atoms: N_10  and  C_11 
REMARK    4  A    between atoms: C_11  and  C_12 
REMARK    5  A    between atoms: C_12  and  C_13 
ROOT
HETATM    1  C   UNL     1      41.657 -15.992   2.437  1.00  0.00     0.093 A 
HETATM    2  N   UNL     1      40.331 -16.066   2.637  1.00  0.00    -0.172 NA
HETATM    3  N   UNL     1      39.829 -15.043   1.921  1.00  0.00    -0.262 N 
HETATM    4  H   UNL     1      38.825 -14.884   1.907  1.00  0.00     0.191 HD
HETATM    5  C   UNL     1      40.778 -14.343   1.225  1.00  0.00     0.126 A 
HETATM    6  C   UNL     1      41.979 -14.912   1.566  1.00  0.00     0.084 A 
ENDROOT
BRANCH   5   7
HETATM    7  N   UNL     1      40.508 -13.314   0.350  1.00  0.00    -0.311 N 
HETATM    8  C   UNL     1      39.828 -13.524  -0.834  1.00  0.00     0.236 C 
HETATM    9  O   UNL     1      39.297 -14.574  -1.180  1.00  0.00    -0.272 OA
HETATM   10  H   UNL     1      40.912 -12.405   0.533  1.00  0.00     0.170 HD
BRANCH   8  11
HETATM   11  C   UNL     1      39.832 -12.325  -1.750  1.00  0.00     0.068 A 
HETATM   12  C   UNL     1      41.153 -11.578  -1.925  1.00  0.00     0.026 A 
HETATM   13  C   UNL     1      40.630 -12.414  -3.049  1.00  0.00     0.026 A 
BRANCH  11  14
HETATM   14  C   UNL     1      38.554 -11.489  -1.720  1.00  0.00    -0.040 A 
HETATM   15  C   UNL     1      38.026 -11.032  -0.498  1.00  0.00     0.010 A 
HETATM   16  C   UNL     1      36.829 -10.310  -0.444  1.00  0.00     0.024 A 
HETATM   17  C   UNL     1      36.138 -10.035  -1.619  1.00  0.00     0.034 A 
HETATM   18 CL   UNL     1      34.659  -9.158  -1.559  1.00  0.00    -0.084 Cl
HETATM   19  C   UNL     1      36.634 -10.473  -2.843  1.00  0.00     0.024 A 
HETATM   20  C   UNL     1      37.831 -11.193  -2.889  1.00  0.00     0.010 A 
ENDBRANCH  11  14
ENDBRANCH   8  11
ENDBRANCH   5   7
BRANCH   1  21
HETATM   21  C   UNL     1      42.587 -16.972   2.994  1.00  0.00     0.029 A 
HETATM   22  C   UNL     1      43.264 -16.773   4.208  1.00  0.00     0.081 A 
HETATM   23  C   UNL     1      44.164 -17.731   4.689  1.00  0.00     0.039 A 
HETATM   24  C   UNL     1      44.372 -18.913   3.978  1.00  0.00     0.026 A 
HETATM   25  C   UNL     1      43.691 -19.124   2.782  1.00  0.00     0.035 A 
HETATM   26  C   UNL     1      42.808 -18.166   2.287  1.00  0.00     0.040 A 
HETATM   27 CL   UNL     1      43.951 -20.579   1.898  1.00  0.00    -0.084 Cl
BRANCH  22  28
HETATM   28  O   UNL     1      43.142 -15.597   4.903  1.00  0.00    -0.355 OA
HETATM   29  C   UNL     1      43.740 -15.721   6.195  1.00  0.00     0.210 C 
ENDBRANCH  22  28
ENDBRANCH   1  21
TORSDOF 5
ENDMDL
MODEL 4
REMARK VINA RESULT:      -8.3      6.568      9.666
REMARK  5 active torsions:
REMARK  status: ('A' for Active; 'I' for Inactive)
REMARK    1  A    between atoms: O_2  and  C_3 
REMARK    2  A    between atoms: C_4  and  C_5 
REMARK    3  A    between atoms: C_9  and  N_10 
REMARK       I    between atoms: N_10  and  C_11 
REMARK    4  A    between atoms: C_11  and  C_12 
REMARK    5  A    between atoms: C_12  and  C_13 
ROOT
HETATM    1  C   UNL     1      41.925 -16.190   2.486  1.00  0.00     0.093 A 
HETATM    2  N   UNL     1      40.597 -16.261   2.669  1.00  0.00    -0.172 NA
HETATM    3  N   UNL     1      40.085 -15.511   1.676  1.00  0.00    -0.262 N 
HETATM    4  H   UNL     1      39.077 -15.405   1.594  1.00  0.00     0.191 HD
HETATM    5  C   UNL     1      41.032 -15.002   0.828  1.00  0.00     0.126 A 
HETATM    6  C   UNL     1      42.239 -15.396   1.346  1.00  0.00     0.084 A 
ENDROOT
BRANCH   5   7
HETATM    7  N   UNL     1      40.756 -14.282  -0.314  1.00  0.00    -0.311 N 
HETATM    8  C   UNL     1      39.806 -13.280  -0.331  1.00  0.00     0.236 C 
HETATM    9  O   UNL     1      39.208 -12.841   0.646  1.00  0.00    -0.272 OA
HETATM   10  H   UNL     1      41.186 -14.570  -1.183  1.00  0.00     0.170 HD
BRANCH   8  11
HETATM   11  C   UNL     1      39.494 -12.772  -1.717  1.00  0.00     0.068 A 
HETATM   12  C   UNL     1      39.407 -13.802  -2.840  1.00  0.00     0.026 A 
HETATM   13  C   UNL     1      38.155 -13.156  -2.340  1.00  0.00     0.026 A 
BRANCH  11  14
HETATM   14  C   UNL     1      40.109 -11.416  -2.058  1.00  0.00    -0.040 A 
HETATM   15  C   UNL     1      39.615 -10.656  -3.134  1.00  0.00     0.010 A 
HETATM   16  C   UNL     1      40.197  -9.436  -3.496  1.00  0.00     0.024 A 
HETATM   17  C   UNL     1      41.290  -8.957  -2.782  1.00  0.00     0.034 A 
HETATM   18 CL   UNL     1      42.018  -7.464  -3.229  1.00  0.00    -0.084 Cl
HETATM   19  C   UNL     1      41.802  -9.685  -1.712  1.00  0.00     0.024 A 
HETATM   20  C   UNL     1      41.214 -10.902  -1.356  1.00  0.00     0.010 A 
ENDBRANCH  11  14
ENDBRANCH   8  11
ENDBRANCH   5   7
BRANCH   1  21
HETATM   21  C   UNL     1      42.869 -16.927   3.324  1.00  0.00     0.029 A 
HETATM   22  C   UNL     1      43.298 -18.229   3.022  1.00  0.00     0.081 A 
HETATM   23  C   UNL     1      44.186 -18.904   3.868  1.00  0.00     0.039 A 
HETATM   24  C   UNL     1      44.680 -18.270   5.009  1.00  0.00     0.026 A 
HETATM   25  C   UNL     1      44.272 -16.973   5.306  1.00  0.00     0.035 A 
HETATM   26  C   UNL     1      43.373 -16.302   4.478  1.00  0.00     0.040 A 
HETATM   27 CL   UNL     1      44.874 -16.192   6.717  1.00  0.00    -0.084 Cl
BRANCH  22  28
HETATM   28  O   UNL     1      42.785 -18.913   1.949  1.00  0.00    -0.355 OA
HETATM   29  C   UNL     1      43.263 -20.260   1.947  1.00  0.00     0.210 C 
ENDBRANCH  22  28
ENDBRANCH   1  21
TORSDOF 5
ENDMDL
MODEL 5
REMARK VINA RESULT:      -8.1      1.531      1.713
REMARK  5 active torsions:
REMARK  status: ('A' for Active; 'I' for Inactive)
REMARK    1  A    between atoms: O_2  and  C_3 
REMARK    2  A    between atoms: C_4  and  C_5 
REMARK    3  A    between atoms: C_9  and  N_10 
REMARK       I    between atoms: N_10  and  C_11 
REMARK    4  A    between atoms: C_11  and  C_12 
REMARK    5  A    between atoms: C_12  and  C_13 
ROOT
HETATM    1  C   UNL     1      42.746 -13.300   4.593  1.00  0.00     0.093 A 
HETATM    2  N   UNL     1      43.154 -12.200   3.942  1.00  0.00    -0.172 NA
HETATM    3  N   UNL     1      43.652 -11.407   4.907  1.00  0.00    -0.262 N 
HETATM    4  H   UNL     1      44.034 -10.496   4.664  1.00  0.00     0.191 HD
HETATM    5  C   UNL     1      43.629 -11.977   6.152  1.00  0.00     0.126 A 
HETATM    6  C   UNL     1      43.016 -13.193   5.988  1.00  0.00     0.084 A 
ENDROOT
BRANCH   5   7
HETATM    7  N   UNL     1      44.165 -11.407   7.286  1.00  0.00    -0.311 N 
HETATM    8  C   UNL     1      43.739 -10.180   7.754  1.00  0.00     0.236 C 
HETATM    9  O   UNL     1      42.792  -9.533   7.317  1.00  0.00    -0.272 OA
HETATM   10  H   UNL     1      44.963 -11.852   7.721  1.00  0.00     0.170 HD
BRANCH   8  11
HETATM   11  C   UNL     1      44.598  -9.630   8.865  1.00  0.00     0.068 A 
HETATM   12  C   UNL     1      46.073 -10.026   8.876  1.00  0.00     0.026 A 
HETATM   13  C   UNL     1      45.693  -8.629   8.501  1.00  0.00     0.026 A 
BRANCH  11  14
HETATM   14  C   UNL     1      43.899  -9.504  10.217  1.00  0.00    -0.040 A 
HETATM   15  C   UNL     1      43.599  -8.238  10.754  1.00  0.00     0.010 A 
HETATM   16  C   UNL     1      43.006  -8.100  12.014  1.00  0.00     0.024 A 
HETATM   17  C   UNL     1      42.704  -9.234  12.760  1.00  0.00     0.034 A 
HETATM   18 CL   UNL     1      41.986  -9.071  14.315  1.00  0.00    -0.084 Cl
HETATM   19  C   UNL     1      42.987 -10.500  12.257  1.00  0.00     0.024 A 
HETATM   20  C   UNL     1      43.579 -10.630  10.998  1.00  0.00     0.010 A 
ENDBRANCH  11  14
ENDBRANCH   8  11
ENDBRANCH   5   7
BRANCH   1  21
HETATM   21  C   UNL     1      42.190 -14.460   3.898  1.00  0.00     0.029 A 
HETATM   22  C   UNL     1      40.840 -14.545   3.523  1.00  0.00     0.081 A 
HETATM   23  C   UNL     1      40.349 -15.687   2.879  1.00  0.00     0.039 A 
HETATM   24  C   UNL     1      41.210 -16.742   2.574  1.00  0.00     0.026 A 
HETATM   25  C   UNL     1      42.554 -16.656   2.928  1.00  0.00     0.035 A 
HETATM   26  C   UNL     1      43.046 -15.530   3.587  1.00  0.00     0.040 A 
HETATM   27 CL   UNL     1      43.617 -17.959   2.560  1.00  0.00    -0.084 Cl
BRANCH  22  28
HETATM   28  O   UNL     1      39.946 -13.563   3.864  1.00  0.00    -0.355 OA
HETATM   29  C   UNL     1      39.297 -13.057   2.696  1.00  0.00     0.210 C 
ENDBRANCH  22  28
ENDBRANCH   1  21
TORSDOF 5
ENDMDL
MODEL 6
REMARK VINA RESULT:      -8.1      6.282     10.216
REMARK  5 active torsions:
REMARK  status: ('A' for Active; 'I' for Inactive)
REMARK    1  A    between atoms: O_2  and  C_3 
REMARK    2  A    between atoms: C_4  and  C_5 
REMARK    3  A    between atoms: C_9  and  N_10 
REMARK       I    between atoms: N_10  and  C_11 
REMARK    4  A    between atoms: C_11  and  C_12 
REMARK    5  A    between atoms: C_12  and  C_13 
ROOT
HETATM    1  C   UNL     1      41.438 -15.883   2.617  1.00  0.00     0.093 A 
HETATM    2  N   UNL     1      40.099 -15.966   2.548  1.00  0.00    -0.172 NA
HETATM    3  N   UNL     1      39.780 -15.282   1.435  1.00  0.00    -0.262 N 
HETATM    4  H   UNL     1      38.805 -15.199   1.157  1.00  0.00     0.191 HD
HETATM    5  C   UNL     1      40.867 -14.805   0.753  1.00  0.00     0.126 A 
HETATM    6  C   UNL     1      41.957 -15.149   1.512  1.00  0.00     0.084 A 
ENDROOT
BRANCH   5   7
HETATM    7  N   UNL     1      40.809 -14.156  -0.461  1.00  0.00    -0.311 N 
HETATM    8  C   UNL     1      40.097 -12.984  -0.625  1.00  0.00     0.236 C 
HETATM    9  O   UNL     1      39.559 -12.339   0.269  1.00  0.00    -0.272 OA
HETATM   10  H   UNL     1      41.209 -14.609  -1.271  1.00  0.00     0.170 HD
BRANCH   8  11
HETATM   11  C   UNL     1      39.969 -12.556  -2.066  1.00  0.00     0.068 A 
HETATM   12  C   UNL     1      41.136 -11.782  -2.676  1.00  0.00     0.026 A 
HETATM   13  C   UNL     1      40.899 -13.198  -3.093  1.00  0.00     0.026 A 
BRANCH  11  14
HETATM   14  C   UNL     1      38.561 -12.150  -2.494  1.00  0.00    -0.040 A 
HETATM   15  C   UNL     1      38.215 -10.792  -2.623  1.00  0.00     0.010 A 
HETATM   16  C   UNL     1      36.917 -10.397  -2.963  1.00  0.00     0.024 A 
HETATM   17  C   UNL     1      35.938 -11.361  -3.177  1.00  0.00     0.034 A 
HETATM   18 CL   UNL     1      34.337 -10.882  -3.583  1.00  0.00    -0.084 Cl
HETATM   19  C   UNL     1      36.248 -12.712  -3.058  1.00  0.00     0.024 A 
HETATM   20  C   UNL     1      37.548 -13.100  -2.719  1.00  0.00     0.010 A 
ENDBRANCH  11  14
ENDBRANCH   8  11
ENDBRANCH   5   7
BRANCH   1  21
HETATM   21  C   UNL     1      42.210 -16.555   3.660  1.00  0.00     0.029 A 
HETATM   22  C   UNL     1      43.023 -17.671   3.404  1.00  0.00     0.081 A 
HETATM   23  C   UNL     1      43.726 -18.295   4.441  1.00  0.00     0.039 A 
HETATM   24  C   UNL     1      43.650 -17.790   5.740  1.00  0.00     0.026 A 
HETATM   25  C   UNL     1      42.859 -16.673   5.997  1.00  0.00     0.035 A 
HETATM   26  C   UNL     1      42.141 -16.057   4.972  1.00  0.00     0.040 A 
HETATM   27 CL   UNL     1      42.758 -16.051   7.599  1.00  0.00    -0.084 Cl
BRANCH  22  28
HETATM   28  O   UNL     1      43.072 -18.241   2.158  1.00  0.00    -0.355 OA
HETATM   29  C   UNL     1      43.412 -19.625   2.260  1.00  0.00     0.210 C 
ENDBRANCH  22  28
ENDBRANCH   1  21
TORSDOF 5
ENDMDL
MODEL 7
REMARK VINA RESULT:      -7.8      4.487      9.112
REMARK  5 active torsions:
REMARK  status: ('A' for Active; 'I' for Inactive)
REMARK    1  A    between atoms: O_2  and  C_3 
REMARK    2  A    between atoms: C_4  and  C_5 
REMARK    3  A    between atoms: C_9  and  N_10 
REMARK       I    between atoms: N_10  and  C_11 
REMARK    4  A    between atoms: C_11  and  C_12 
REMARK    5  A    between atoms: C_12  and  C_13 
ROOT
HETATM    1  C   UNL     1      39.862 -11.838   5.254  1.00  0.00     0.093 A 
HETATM    2  N   UNL     1      39.090 -12.773   5.831  1.00  0.00    -0.172 NA
HETATM    3  N   UNL     1      39.854 -13.881   5.831  1.00  0.00    -0.262 N 
HETATM    4  H   UNL     1      39.489 -14.744   6.224  1.00  0.00     0.191 HD
HETATM    5  C   UNL     1      41.110 -13.681   5.322  1.00  0.00     0.126 A 
HETATM    6  C   UNL     1      41.135 -12.373   4.908  1.00  0.00     0.084 A 
ENDROOT
BRANCH   5   7
HETATM    7  N   UNL     1      42.107 -14.632   5.298  1.00  0.00    -0.311 N 
HETATM    8  C   UNL     1      42.077 -15.738   6.124  1.00  0.00     0.236 C 
HETATM    9  O   UNL     1      41.147 -16.064   6.855  1.00  0.00    -0.272 OA
HETATM   10  H   UNL     1      42.930 -14.455   4.737  1.00  0.00     0.170 HD
BRANCH   8  11
HETATM   11  C   UNL     1      43.359 -16.533   6.109  1.00  0.00     0.068 A 
HETATM   12  C   UNL     1      44.631 -15.825   6.568  1.00  0.00     0.026 A 
HETATM   13  C   UNL     1      44.015 -16.867   7.446  1.00  0.00     0.026 A 
BRANCH  11  14
HETATM   14  C   UNL     1      43.488 -17.522   4.952  1.00  0.00    -0.040 A 
HETATM   15  C   UNL     1      43.063 -17.170   3.657  1.00  0.00     0.010 A 
HETATM   16  C   UNL     1      43.124 -18.078   2.595  1.00  0.00     0.024 A 
HETATM   17  C   UNL     1      43.612 -19.362   2.815  1.00  0.00     0.034 A 
HETATM   18 CL   UNL     1      43.678 -20.488   1.516  1.00  0.00    -0.084 Cl
HETATM   19  C   UNL     1      44.040 -19.741   4.083  1.00  0.00     0.024 A 
HETATM   20  C   UNL     1      43.977 -18.828   5.140  1.00  0.00     0.010 A 
ENDBRANCH  11  14
ENDBRANCH   8  11
ENDBRANCH   5   7
BRANCH   1  21
HETATM   21  C   UNL     1      39.430 -10.448   5.112  1.00  0.00     0.029 A 
HETATM   22  C   UNL     1      39.726  -9.459   6.063  1.00  0.00     0.081 A 
HETATM   23  C   UNL     1      39.271  -8.146   5.893  1.00  0.00     0.039 A 
HETATM   24  C   UNL     1      38.542  -7.802   4.755  1.00  0.00     0.026 A 
HETATM   25  C   UNL     1      38.259  -8.774   3.799  1.00  0.00     0.035 A 
HETATM   26  C   UNL     1      38.693 -10.088   3.971  1.00  0.00     0.040 A 
HETATM   27 CL   UNL     1      37.354  -8.353   2.397  1.00  0.00    -0.084 Cl
BRANCH  22  28
HETATM   28  O   UNL     1      40.380  -9.770   7.228  1.00  0.00    -0.355 OA
HETATM   29  C   UNL     1      39.469  -9.738   8.329  1.00  0.00     0.210 C 
ENDBRANCH  22  28
ENDBRANCH   1  21
TORSDOF 5
ENDMDL
MODEL 8
REMARK VINA RESULT:      -7.7      5.556      9.238
REMARK  5 active torsions:
REMARK  status: ('A' for Active; 'I' for Inactive)
REMARK    1  A    between atoms: O_2  and  C_3 
REMARK    2  A    between atoms: C_4  and  C_5 
REMARK    3  A    between atoms: C_9  and  N_10 
REMARK       I    between atoms: N_10  and  C_11 
REMARK    4  A    between atoms: C_11  and  C_12 
REMARK    5  A    between atoms: C_12  and  C_13 
ROOT
HETATM    1  C   UNL     1      40.346 -12.549  -0.794  1.00  0.00     0.093 A 
HETATM    2  N   UNL     1      40.547 -13.841  -1.099  1.00  0.00    -0.172 NA
HETATM    3  N   UNL     1      40.977 -14.390   0.051  1.00  0.00    -0.262 N 
HETATM    4  H   UNL     1      41.200 -15.382   0.083  1.00  0.00     0.191 HD
HETATM    5  C   UNL     1      41.010 -13.511   1.101  1.00  0.00     0.126 A 
HETATM    6  C   UNL     1      40.639 -12.299   0.577  1.00  0.00     0.084 A 
ENDROOT
BRANCH   5   7
HETATM    7  N   UNL     1      41.323 -13.852   2.399  1.00  0.00    -0.311 N 
HETATM    8  C   UNL     1      42.599 -14.235   2.763  1.00  0.00     0.236 C 
HETATM    9  O   UNL     1      43.592 -14.201   2.043  1.00  0.00    -0.272 OA
HETATM   10  H   UNL     1      40.574 -13.924   3.074  1.00  0.00     0.170 HD
BRANCH   8  11
HETATM   11  C   UNL     1      42.684 -14.781   4.167  1.00  0.00     0.068 A 
HETATM   12  C   UNL     1      43.199 -13.842   5.256  1.00  0.00     0.026 A 
HETATM   13  C   UNL     1      41.748 -14.200   5.223  1.00  0.00     0.026 A 
BRANCH  11  14
HETATM   14  C   UNL     1      43.089 -16.250   4.261  1.00  0.00    -0.040 A 
HETATM   15  C   UNL     1      43.451 -16.816   5.498  1.00  0.00     0.010 A 
HETATM   16  C   UNL     1      43.875 -18.145   5.598  1.00  0.00     0.024 A 
HETATM   17  C   UNL     1      43.945 -18.933   4.454  1.00  0.00     0.034 A 
HETATM   18 CL   UNL     1      44.477 -20.565   4.568  1.00  0.00    -0.084 Cl
HETATM   19  C   UNL     1      43.593 -18.404   3.216  1.00  0.00     0.024 A 
HETATM   20  C   UNL     1      43.170 -17.075   3.124  1.00  0.00     0.010 A 
ENDBRANCH  11  14
ENDBRANCH   8  11
ENDBRANCH   5   7
BRANCH   1  21
HETATM   21  C   UNL     1      39.809 -11.592  -1.761  1.00  0.00     0.029 A 
HETATM   22  C   UNL     1      38.449 -11.541  -2.104  1.00  0.00     0.081 A 
HETATM   23  C   UNL     1      37.986 -10.622  -3.053  1.00  0.00     0.039 A 
HETATM   24  C   UNL     1      38.873  -9.723  -3.645  1.00  0.00     0.026 A 
HETATM   25  C   UNL     1      40.221  -9.757  -3.297  1.00  0.00     0.035 A 
HETATM   26  C   UNL     1      40.693 -10.683  -2.366  1.00  0.00     0.040 A 
HETATM   27 CL   UNL     1      41.319  -8.654  -4.031  1.00  0.00    -0.084 Cl
BRANCH  22  28
HETATM   28  O   UNL     1      37.556 -12.451  -1.598  1.00  0.00    -0.355 OA
HETATM   29  C   UNL     1      37.199 -13.404  -2.601  1.00  0.00     0.210 C 
ENDBRANCH  22  28
ENDBRANCH   1  21
TORSDOF 5
ENDMDL
MODEL 9
REMARK VINA RESULT:      -7.6      5.832      8.779
REMARK  5 active torsions:
REMARK  status: ('A' for Active; 'I' for Inactive)
REMARK    1  A    between atoms: O_2  and  C_3 
REMARK    2  A    between atoms: C_4  and  C_5 
REMARK    3  A    between atoms: C_9  and  N_10 
REMARK       I    between atoms: N_10  and  C_11 
REMARK    4  A    between atoms: C_11  and  C_12 
REMARK    5  A    between atoms: C_12  and  C_13 
ROOT
HETATM    1  C   UNL     1      41.096 -15.530   3.602  1.00  0.00     0.093 A 
HETATM    2  N   UNL     1      40.193 -16.351   3.042  1.00  0.00    -0.172 NA
HETATM    3  N   UNL     1      39.414 -15.538   2.306  1.00  0.00    -0.262 N 
HETATM    4  H   UNL     1      38.642 -15.928   1.772  1.00  0.00     0.191 HD
HETATM    5  C   UNL     1      39.813 -14.228   2.329  1.00  0.00     0.126 A 
HETATM    6  C   UNL     1      40.882 -14.184   3.188  1.00  0.00     0.084 A 
ENDROOT
BRANCH   5   7
HETATM    7  N   UNL     1      39.238 -13.220   1.586  1.00  0.00    -0.311 N 
HETATM    8  C   UNL     1      39.445 -13.109   0.226  1.00  0.00     0.236 C 
HETATM    9  O   UNL     1      40.034 -13.922  -0.480  1.00  0.00    -0.272 OA
HETATM   10  H   UNL     1      38.740 -12.485   2.072  1.00  0.00     0.170 HD
BRANCH   8  11
HETATM   11  C   UNL     1      38.919 -11.821  -0.359  1.00  0.00     0.068 A 
HETATM   12  C   UNL     1      37.758 -11.920  -1.345  1.00  0.00     0.026 A 
HETATM   13  C   UNL     1      37.510 -11.378   0.026  1.00  0.00     0.026 A 
BRANCH  11  14
HETATM   14  C   UNL     1      39.982 -10.759  -0.633  1.00  0.00    -0.040 A 
HETATM   15  C   UNL     1      40.631 -10.699  -1.880  1.00  0.00     0.010 A 
HETATM   16  C   UNL     1      41.643  -9.768  -2.134  1.00  0.00     0.024 A 
HETATM   17  C   UNL     1      42.025  -8.877  -1.136  1.00  0.00     0.034 A 
HETATM   18 CL   UNL     1      43.277  -7.737  -1.437  1.00  0.00    -0.084 Cl
HETATM   19  C   UNL     1      41.402  -8.910   0.108  1.00  0.00     0.024 A 
HETATM   20  C   UNL     1      40.391  -9.843   0.354  1.00  0.00     0.010 A 
ENDBRANCH  11  14
ENDBRANCH   8  11
ENDBRANCH   5   7
BRANCH   1  21
HETATM   21  C   UNL     1      42.185 -16.023   4.442  1.00  0.00     0.029 A 
HETATM   22  C   UNL     1      43.229 -16.818   3.944  1.00  0.00     0.081 A 
HETATM   23  C   UNL     1      44.239 -17.286   4.794  1.00  0.00     0.039 A 
HETATM   24  C   UNL     1      44.232 -16.936   6.145  1.00  0.00     0.026 A 
HETATM   25  C   UNL     1      43.208 -16.133   6.642  1.00  0.00     0.035 A 
HETATM   26  C   UNL     1      42.189 -15.680   5.805  1.00  0.00     0.040 A 
HETATM   27 CL   UNL     1      43.194 -15.706   8.309  1.00  0.00    -0.084 Cl
BRANCH  22  28
HETATM   28  O   UNL     1      43.237 -17.242   2.640  1.00  0.00    -0.355 OA
HETATM   29  C   UNL     1      43.530 -18.639   2.575  1.00  0.00     0.210 C 
ENDBRANCH  22  28
ENDBRANCH   1  21
TORSDOF 5
ENDMDL
MODEL 10
REMARK VINA RESULT:      -7.6      5.367      9.944
REMARK  5 active torsions:
REMARK  status: ('A' for Active; 'I' for Inactive)
REMARK    1  A    between atoms: O_2  and  C_3 
REMARK    2  A    between atoms: C_4  and  C_5 
REMARK    3  A    between atoms: C_9  and  N_10 
REMARK       I    between atoms: N_10  and  C_11 
REMARK    4  A    between atoms: C_11  and  C_12 
REMARK    5  A    between atoms: C_12  and  C_13 
ROOT
HETATM    1  C   UNL     1      41.264 -15.586   3.074  1.00  0.00     0.093 A 
HETATM    2  N   UNL     1      39.958 -15.605   3.384  1.00  0.00    -0.172 NA
HETATM    3  N   UNL     1      39.343 -15.200   2.259  1.00  0.00    -0.262 N 
HETATM    4  H   UNL     1      38.328 -15.131   2.237  1.00  0.00     0.191 HD
HETATM    5  C   UNL     1      40.201 -14.970   1.217  1.00  0.00     0.126 A 
HETATM    6  C   UNL     1      41.458 -15.178   1.724  1.00  0.00     0.084 A 
ENDROOT
BRANCH   5   7
HETATM    7  N   UNL     1      39.809 -14.637  -0.062  1.00  0.00    -0.311 N 
HETATM    8  C   UNL     1      40.118 -13.413  -0.622  1.00  0.00     0.236 C 
HETATM    9  O   UNL     1      40.848 -12.560  -0.128  1.00  0.00    -0.272 OA
HETATM   10  H   UNL     1      39.191 -15.266  -0.557  1.00  0.00     0.170 HD
BRANCH   8  11
HETATM   11  C   UNL     1      39.412 -13.157  -1.930  1.00  0.00     0.068 A 
HETATM   12  C   UNL     1      39.384 -14.295  -2.949  1.00  0.00     0.026 A 
HETATM   13  C   UNL     1      38.129 -13.933  -2.221  1.00  0.00     0.026 A 
BRANCH  11  14
HETATM   14  C   UNL     1      39.558 -11.737  -2.472  1.00  0.00    -0.040 A 
HETATM   15  C   UNL     1      38.498 -10.817  -2.368  1.00  0.00     0.010 A 
HETATM   16  C   UNL     1      38.592  -9.529  -2.905  1.00  0.00     0.024 A 
HETATM   17  C   UNL     1      39.756  -9.139  -3.559  1.00  0.00     0.034 A 
HETATM   18 CL   UNL     1      39.874  -7.560  -4.231  1.00  0.00    -0.084 Cl
HETATM   19  C   UNL     1      40.822 -10.025  -3.678  1.00  0.00     0.024 A 
HETATM   20  C   UNL     1      40.721 -11.311  -3.139  1.00  0.00     0.010 A 
ENDBRANCH  11  14
ENDBRANCH   8  11
ENDBRANCH   5   7
BRANCH   1  21
HETATM   21  C   UNL     1      42.297 -16.023   4.011  1.00  0.00     0.029 A 
HETATM   22  C   UNL     1      42.713 -15.243   5.102  1.00  0.00     0.081 A 
HETATM   23  C   UNL     1      43.724 -15.695   5.959  1.00  0.00     0.039 A 
HETATM   24  C   UNL     1      44.305 -16.946   5.754  1.00  0.00     0.026 A 
HETATM   25  C   UNL     1      43.885 -17.733   4.684  1.00  0.00     0.035 A 
HETATM   26  C   UNL     1      42.893 -17.281   3.815  1.00  0.00     0.040 A 
HETATM   27 CL   UNL     1      44.606 -19.274   4.425  1.00  0.00    -0.084 Cl
BRANCH  22  28
HETATM   28  O   UNL     1      42.218 -13.979   5.299  1.00  0.00    -0.355 OA
HETATM   29  C   UNL     1      43.194 -13.002   4.932  1.00  0.00     0.210 C 
ENDBRANCH  22  28
ENDBRANCH   1  21
TORSDOF 5
ENDMDL
