MODEL 1
REMARK VINA RESULT:      -9.0      0.000      0.000
REMARK  7 active torsions:
REMARK  status: ('A' for Active; 'I' for Inactive)
REMARK       I    between atoms: C_2  and  N_3 
REMARK    1  A    between atoms: N_3  and  C_4 
REMARK    2  A    between atoms: C_7  and  N_8 
REMARK       I    between atoms: N_8  and  C_9 
REMARK    3  A    between atoms: C_9  and  C_10 
REMARK       I    between atoms: C_10  and  N_11 
REMARK    4  A    between atoms: N_11  and  C_12 
REMARK    5  A    between atoms: C_12  and  C_13 
REMARK    6  A    between atoms: C_13  and  O_14 
REMARK    7  A    between atoms: C_13  and  C_15 
ROOT
HETATM    1  C   UNL     1      43.877 -10.929   7.979  1.00  0.00     0.309 C 
HETATM    2  N   UNL     1      43.660 -12.265   7.736  1.00  0.00    -0.350 N 
HETATM    3  O   UNL     1      43.959 -10.049   7.133  1.00  0.00    -0.262 OA
HETATM    4  H   UNL     1      43.656 -12.887   8.542  1.00  0.00     0.163 HD
ENDROOT
BRANCH   1   5
HETATM    5  C   UNL     1      44.062 -10.586   9.472  1.00  0.00     0.313 C 
HETATM    6  N   UNL     1      42.907 -10.084  10.031  1.00  0.00    -0.319 N 
HETATM    7  H   UNL     1      42.112 -10.056   9.397  1.00  0.00     0.169 HD
HETATM    8  O   UNL     1      45.160 -10.768   9.978  1.00  0.00    -0.262 OA
BRANCH   6   9
HETATM    9  C   UNL     1      42.733  -9.565  11.323  1.00  0.00     0.035 A 
HETATM   10  C   UNL     1      43.494  -8.523  11.850  1.00  0.00     0.032 A 
HETATM   11  C   UNL     1      43.225  -8.020  13.132  1.00  0.00     0.032 A 
HETATM   12  C   UNL     1      42.199  -8.556  13.908  1.00  0.00     0.034 A 
HETATM   13  C   UNL     1      41.453  -9.619  13.388  1.00  0.00     0.032 A 
HETATM   14  C   UNL     1      41.714 -10.115  12.106  1.00  0.00     0.032 A 
BRANCH  12  15
HETATM   15  N   UNL     1      41.850  -8.089  15.192  1.00  0.00    -0.328 N 
HETATM   16  C   UNL     1      40.794  -7.261  15.528  1.00  0.00     0.218 C 
HETATM   17  C   UNL     1      40.714  -7.006  17.013  1.00  0.00     0.117 C 
HETATM   18  O   UNL     1      39.957  -6.786  14.769  1.00  0.00    -0.274 OA
HETATM   19  H   UNL     1      42.421  -8.428  15.956  1.00  0.00     0.169 HD
ENDBRANCH  12  15
ENDBRANCH   6   9
ENDBRANCH   1   5
BRANCH   2  20
HETATM   20  C   UNL     1      43.611 -12.812   6.388  1.00  0.00     0.159 C 
BRANCH  20  21
HETATM   21  C   UNL     1      43.313 -14.325   6.388  1.00  0.00     0.171 C 
BRANCH  21  22
HETATM   22  O   UNL     1      42.162 -14.568   7.212  1.00  0.00    -0.389 OA
HETATM   23  H   UNL     1      41.518 -15.019   6.642  1.00  0.00     0.210 HD
ENDBRANCH  21  22
BRANCH  21  24
HETATM   24  C   UNL     1      43.098 -14.848   5.000  1.00  0.00     0.000 A 
HETATM   25  C   UNL     1      43.442 -16.153   4.521  1.00  0.00     0.001 A 
HETATM   26  C   UNL     1      43.060 -16.229   3.176  1.00  0.00     0.044 A 
HETATM   27  C   UNL     1      44.044 -17.281   5.119  1.00  0.00     0.014 A 
HETATM   28  C   UNL     1      43.252 -17.397   2.417  1.00  0.00     0.030 A 
HETATM   29  N   UNL     1      42.512 -15.008   2.850  1.00  0.00    -0.360 N 
HETATM   30  C   UNL     1      43.846 -18.499   3.037  1.00  0.00     0.002 A 
HETATM   31  C   UNL     1      44.239 -18.445   4.369  1.00  0.00     0.001 A 
HETATM   32  C   UNL     1      41.969 -14.621   1.566  1.00  0.00     0.155 C 
HETATM   33  C   UNL     1      42.533 -14.172   3.935  1.00  0.00     0.101 A 
ENDBRANCH  21  24
ENDBRANCH  20  21
ENDBRANCH   2  20
TORSDOF 7
ENDMDL
MODEL 2
REMARK VINA RESULT:      -8.4      1.602      2.359
REMARK  7 active torsions:
REMARK  status: ('A' for Active; 'I' for Inactive)
REMARK       I    between atoms: C_2  and  N_3 
REMARK    1  A    between atoms: N_3  and  C_4 
REMARK    2  A    between atoms: C_7  and  N_8 
REMARK       I    between atoms: N_8  and  C_9 
REMARK    3  A    between atoms: C_9  and  C_10 
REMARK       I    between atoms: C_10  and  N_11 
REMARK    4  A    between atoms: N_11  and  C_12 
REMARK    5  A    between atoms: C_12  and  C_13 
REMARK    6  A    between atoms: C_13  and  O_14 
REMARK    7  A    between atoms: C_13  and  C_15 
ROOT
HETATM    1  C   UNL     1      43.332 -11.123   6.831  1.00  0.00     0.309 C 
HETATM    2  N   UNL     1      43.450 -12.344   7.452  1.00  0.00    -0.350 N 
HETATM    3  O   UNL     1      43.468 -10.909   5.635  1.00  0.00    -0.262 OA
HETATM    4  H   UNL     1      43.348 -12.361   8.465  1.00  0.00     0.163 HD
ENDROOT
BRANCH   1   5
HETATM    5  C   UNL     1      43.039  -9.955   7.797  1.00  0.00     0.313 C 
HETATM    6  N   UNL     1      43.173 -10.333   9.115  1.00  0.00    -0.319 N 
HETATM    7  H   UNL     1      43.479 -11.294   9.247  1.00  0.00     0.169 HD
HETATM    8  O   UNL     1      42.720  -8.875   7.323  1.00  0.00    -0.262 OA
BRANCH   6   9
HETATM    9  C   UNL     1      42.879  -9.576  10.260  1.00  0.00     0.035 A 
HETATM   10  C   UNL     1      43.839  -9.157  11.180  1.00  0.00     0.032 A 
HETATM   11  C   UNL     1      43.477  -8.356  12.274  1.00  0.00     0.032 A 
HETATM   12  C   UNL     1      42.152  -7.970  12.467  1.00  0.00     0.034 A 
HETATM   13  C   UNL     1      41.186  -8.413  11.558  1.00  0.00     0.032 A 
HETATM   14  C   UNL     1      41.547  -9.204  10.461  1.00  0.00     0.032 A 
BRANCH  12  15
HETATM   15  N   UNL     1      41.713  -7.145  13.525  1.00  0.00    -0.328 N 
HETATM   16  C   UNL     1      41.223  -7.544  14.754  1.00  0.00     0.218 C 
HETATM   17  C   UNL     1      40.887  -6.374  15.646  1.00  0.00     0.117 C 
HETATM   18  O   UNL     1      41.088  -8.693  15.159  1.00  0.00    -0.274 OA
HETATM   19  H   UNL     1      41.799  -6.148  13.372  1.00  0.00     0.169 HD
ENDBRANCH  12  15
ENDBRANCH   6   9
ENDBRANCH   1   5
BRANCH   2  20
HETATM   20  C   UNL     1      43.871 -13.541   6.739  1.00  0.00     0.159 C 
BRANCH  20  21
HETATM   21  C   UNL     1      42.852 -14.689   6.883  1.00  0.00     0.171 C 
BRANCH  21  22
HETATM   22  O   UNL     1      41.531 -14.159   6.695  1.00  0.00    -0.389 OA
HETATM   23  H   UNL     1      41.642 -13.345   6.177  1.00  0.00     0.210 HD
ENDBRANCH  21  22
BRANCH  21  24
HETATM   24  C   UNL     1      43.126 -15.799   5.914  1.00  0.00     0.000 A 
HETATM   25  C   UNL     1      43.081 -15.709   4.484  1.00  0.00     0.001 A 
HETATM   26  C   UNL     1      43.414 -16.966   3.967  1.00  0.00     0.044 A 
HETATM   27  C   UNL     1      42.788 -14.661   3.585  1.00  0.00     0.014 A 
HETATM   28  C   UNL     1      43.472 -17.205   2.582  1.00  0.00     0.030 A 
HETATM   29  N   UNL     1      43.644 -17.792   5.046  1.00  0.00    -0.360 N 
HETATM   30  C   UNL     1      43.181 -16.148   1.716  1.00  0.00     0.002 A 
HETATM   31  C   UNL     1      42.843 -14.892   2.207  1.00  0.00     0.001 A 
HETATM   32  C   UNL     1      44.026 -19.186   4.999  1.00  0.00     0.155 C 
HETATM   33  C   UNL     1      43.471 -17.102   6.216  1.00  0.00     0.101 A 
ENDBRANCH  21  24
ENDBRANCH  20  21
ENDBRANCH   2  20
TORSDOF 7
ENDMDL
MODEL 3
REMARK VINA RESULT:      -8.3      7.977     12.196
REMARK  7 active torsions:
REMARK  status: ('A' for Active; 'I' for Inactive)
REMARK       I    between atoms: C_2  and  N_3 
REMARK    1  A    between atoms: N_3  and  C_4 
REMARK    2  A    between atoms: C_7  and  N_8 
REMARK       I    between atoms: N_8  and  C_9 
REMARK    3  A    between atoms: C_9  and  C_10 
REMARK       I    between atoms: C_10  and  N_11 
REMARK    4  A    between atoms: N_11  and  C_12 
REMARK    5  A    between atoms: C_12  and  C_13 
REMARK    6  A    between atoms: C_13  and  O_14 
REMARK    7  A    between atoms: C_13  and  C_15 
ROOT
HETATM    1  C   UNL     1      40.358 -13.281   0.970  1.00  0.00     0.309 C 
HETATM    2  N   UNL     1      41.063 -14.460   0.906  1.00  0.00    -0.350 N 
HETATM    3  O   UNL     1      40.109 -12.647   1.987  1.00  0.00    -0.262 OA
HETATM    4  H   UNL     1      41.157 -14.894  -0.010  1.00  0.00     0.163 HD
ENDROOT
BRANCH   1   5
HETATM    5  C   UNL     1      39.831 -12.791  -0.395  1.00  0.00     0.313 C 
HETATM    6  N   UNL     1      38.473 -12.558  -0.367  1.00  0.00    -0.319 N 
HETATM    7  H   UNL     1      38.041 -12.701   0.542  1.00  0.00     0.169 HD
HETATM    8  O   UNL     1      40.624 -12.680  -1.319  1.00  0.00    -0.262 OA
BRANCH   6   9
HETATM    9  C   UNL     1      37.638 -12.216  -1.443  1.00  0.00     0.035 A 
HETATM   10  C   UNL     1      37.188 -13.127  -2.397  1.00  0.00     0.032 A 
HETATM   11  C   UNL     1      36.311 -12.721  -3.413  1.00  0.00     0.032 A 
HETATM   12  C   UNL     1      35.877 -11.399  -3.495  1.00  0.00     0.034 A 
HETATM   13  C   UNL     1      36.349 -10.481  -2.553  1.00  0.00     0.032 A 
HETATM   14  C   UNL     1      37.218 -10.886  -1.533  1.00  0.00     0.032 A 
BRANCH  12  15
HETATM   15  N   UNL     1      34.976 -10.920  -4.469  1.00  0.00    -0.328 N 
HETATM   16  C   UNL     1      33.595 -10.895  -4.397  1.00  0.00     0.218 C 
HETATM   17  C   UNL     1      32.968 -10.272  -5.620  1.00  0.00     0.117 C 
HETATM   18  O   UNL     1      32.896 -11.276  -3.466  1.00  0.00    -0.274 OA
HETATM   19  H   UNL     1      35.394 -10.521  -5.300  1.00  0.00     0.169 HD
ENDBRANCH  12  15
ENDBRANCH   6   9
ENDBRANCH   1   5
BRANCH   2  20
HETATM   20  C   UNL     1      41.512 -15.162   2.099  1.00  0.00     0.159 C 
BRANCH  20  21
HETATM   21  C   UNL     1      42.736 -16.057   1.816  1.00  0.00     0.171 C 
BRANCH  21  22
HETATM   22  O   UNL     1      43.792 -15.240   1.287  1.00  0.00    -0.389 OA
HETATM   23  H   UNL     1      43.800 -14.434   1.829  1.00  0.00     0.210 HD
ENDBRANCH  21  22
BRANCH  21  24
HETATM   24  C   UNL     1      43.187 -16.785   3.047  1.00  0.00     0.000 A 
HETATM   25  C   UNL     1      43.420 -18.194   3.164  1.00  0.00     0.001 A 
HETATM   26  C   UNL     1      43.839 -18.449   4.475  1.00  0.00     0.044 A 
HETATM   27  C   UNL     1      43.313 -19.275   2.263  1.00  0.00     0.014 A 
HETATM   28  C   UNL     1      44.163 -19.747   4.908  1.00  0.00     0.030 A 
HETATM   29  N   UNL     1      43.851 -17.238   5.131  1.00  0.00    -0.360 N 
HETATM   30  C   UNL     1      44.052 -20.798   3.993  1.00  0.00     0.002 A 
HETATM   31  C   UNL     1      43.632 -20.568   2.688  1.00  0.00     0.001 A 
HETATM   32  C   UNL     1      44.227 -17.007   6.509  1.00  0.00     0.155 C 
HETATM   33  C   UNL     1      43.459 -16.235   4.285  1.00  0.00     0.101 A 
ENDBRANCH  21  24
ENDBRANCH  20  21
ENDBRANCH   2  20
TORSDOF 7
ENDMDL
MODEL 4
REMARK VINA RESULT:      -8.2      7.954     11.513
REMARK  7 active torsions:
REMARK  status: ('A' for Active; 'I' for Inactive)
REMARK       I    between atoms: C_2  and  N_3 
REMARK    1  A    between atoms: N_3  and  C_4 
REMARK    2  A    between atoms: C_7  and  N_8 
REMARK       I    between atoms: N_8  and  C_9 
REMARK    3  A    between atoms: C_9  and  C_10 
REMARK       I    between atoms: C_10  and  N_11 
REMARK    4  A    between atoms: N_11  and  C_12 
REMARK    5  A    between atoms: C_12  and  C_13 
REMARK    6  A    between atoms: C_13  and  O_14 
REMARK    7  A    between atoms: C_13  and  C_15 
ROOT
HETATM    1  C   UNL     1      40.040 -13.707   1.353  1.00  0.00     0.309 C 
HETATM    2  N   UNL     1      41.043 -14.542   0.920  1.00  0.00    -0.350 N 
HETATM    3  O   UNL     1      39.370 -13.854   2.366  1.00  0.00    -0.262 OA
HETATM    4  H   UNL     1      41.487 -14.311   0.033  1.00  0.00     0.163 HD
ENDROOT
BRANCH   1   5
HETATM    5  C   UNL     1      39.764 -12.517   0.409  1.00  0.00     0.313 C 
HETATM    6  N   UNL     1      40.767 -12.357  -0.521  1.00  0.00    -0.319 N 
HETATM    7  H   UNL     1      41.502 -13.059  -0.471  1.00  0.00     0.169 HD
HETATM    8  O   UNL     1      38.746 -11.863   0.582  1.00  0.00    -0.262 OA
BRANCH   6   9
HETATM    9  C   UNL     1      40.911 -11.324  -1.460  1.00  0.00     0.035 A 
HETATM   10  C   UNL     1      41.395 -10.054  -1.149  1.00  0.00     0.032 A 
HETATM   11  C   UNL     1      41.562  -9.088  -2.153  1.00  0.00     0.032 A 
HETATM   12  C   UNL     1      41.241  -9.375  -3.479  1.00  0.00     0.034 A 
HETATM   13  C   UNL     1      40.732 -10.641  -3.785  1.00  0.00     0.032 A 
HETATM   14  C   UNL     1      40.573 -11.608  -2.787  1.00  0.00     0.032 A 
BRANCH  12  15
HETATM   15  N   UNL     1      41.406  -8.469  -4.547  1.00  0.00    -0.328 N 
HETATM   16  C   UNL     1      40.683  -7.315  -4.791  1.00  0.00     0.218 C 
HETATM   17  C   UNL     1      41.171  -6.579  -6.014  1.00  0.00     0.117 C 
HETATM   18  O   UNL     1      39.768  -6.860  -4.114  1.00  0.00    -0.274 OA
HETATM   19  H   UNL     1      42.162  -8.674  -5.188  1.00  0.00     0.169 HD
ENDBRANCH  12  15
ENDBRANCH   6   9
ENDBRANCH   1   5
BRANCH   2  20
HETATM   20  C   UNL     1      41.351 -15.798   1.589  1.00  0.00     0.159 C 
BRANCH  20  21
HETATM   21  C   UNL     1      42.869 -16.068   1.639  1.00  0.00     0.171 C 
BRANCH  21  22
HETATM   22  O   UNL     1      43.564 -14.822   1.480  1.00  0.00    -0.389 OA
HETATM   23  H   UNL     1      43.050 -14.310   0.834  1.00  0.00     0.210 HD
ENDBRANCH  21  22
BRANCH  21  24
HETATM   24  C   UNL     1      43.269 -16.746   2.914  1.00  0.00     0.000 A 
HETATM   25  C   UNL     1      43.466 -18.153   3.103  1.00  0.00     0.001 A 
HETATM   26  C   UNL     1      43.844 -18.356   4.435  1.00  0.00     0.044 A 
HETATM   27  C   UNL     1      43.358 -19.273   2.250  1.00  0.00     0.014 A 
HETATM   28  C   UNL     1      44.126 -19.639   4.937  1.00  0.00     0.030 A 
HETATM   29  N   UNL     1      43.866 -17.116   5.035  1.00  0.00    -0.360 N 
HETATM   30  C   UNL     1      44.015 -20.729   4.069  1.00  0.00     0.002 A 
HETATM   31  C   UNL     1      43.636 -20.552   2.744  1.00  0.00     0.001 A 
HETATM   32  C   UNL     1      44.210 -16.829   6.410  1.00  0.00     0.155 C 
HETATM   33  C   UNL     1      43.521 -16.146   4.133  1.00  0.00     0.101 A 
ENDBRANCH  21  24
ENDBRANCH  20  21
ENDBRANCH   2  20
TORSDOF 7
ENDMDL
MODEL 5
REMARK VINA RESULT:      -7.8      2.059      2.864
REMARK  7 active torsions:
REMARK  status: ('A' for Active; 'I' for Inactive)
REMARK       I    between atoms: C_2  and  N_3 
REMARK    1  A    between atoms: N_3  and  C_4 
REMARK    2  A    between atoms: C_7  and  N_8 
REMARK       I    between atoms: N_8  and  C_9 
REMARK    3  A    between atoms: C_9  and  C_10 
REMARK       I    between atoms: C_10  and  N_11 
REMARK    4  A    between atoms: N_11  and  C_12 
REMARK    5  A    between atoms: C_12  and  C_13 
REMARK    6  A    between atoms: C_13  and  O_14 
REMARK    7  A    between atoms: C_13  and  C_15 
ROOT
HETATM    1  C   UNL     1      41.633 -10.218   6.478  1.00  0.00     0.309 C 
HETATM    2  N   UNL     1      42.450 -10.184   5.371  1.00  0.00    -0.350 N 
HETATM    3  O   UNL     1      40.628 -10.904   6.608  1.00  0.00    -0.262 OA
HETATM    4  H   UNL     1      43.231  -9.533   5.393  1.00  0.00     0.163 HD
ENDROOT
BRANCH   1   5
HETATM    5  C   UNL     1      42.062  -9.253   7.602  1.00  0.00     0.313 C 
HETATM    6  N   UNL     1      41.663  -9.700   8.843  1.00  0.00    -0.319 N 
HETATM    7  H   UNL     1      41.193 -10.602   8.833  1.00  0.00     0.169 HD
HETATM    8  O   UNL     1      42.666  -8.235   7.296  1.00  0.00    -0.262 OA
BRANCH   6   9
HETATM    9  C   UNL     1      41.777  -9.035  10.074  1.00  0.00     0.035 A 
HETATM   10  C   UNL     1      40.727  -8.356  10.690  1.00  0.00     0.032 A 
HETATM   11  C   UNL     1      40.902  -7.761  11.947  1.00  0.00     0.032 A 
HETATM   12  C   UNL     1      42.131  -7.827  12.603  1.00  0.00     0.034 A 
HETATM   13  C   UNL     1      43.191  -8.486  11.972  1.00  0.00     0.032 A 
HETATM   14  C   UNL     1      43.015  -9.089  10.722  1.00  0.00     0.032 A 
BRANCH  12  15
HETATM   15  N   UNL     1      42.379  -7.278  13.879  1.00  0.00    -0.328 N 
HETATM   16  C   UNL     1      41.825  -7.667  15.084  1.00  0.00     0.218 C 
HETATM   17  C   UNL     1      42.361  -6.868  16.247  1.00  0.00     0.117 C 
HETATM   18  O   UNL     1      41.019  -8.572  15.270  1.00  0.00    -0.274 OA
HETATM   19  H   UNL     1      43.066  -6.535  13.914  1.00  0.00     0.169 HD
ENDBRANCH  12  15
ENDBRANCH   6   9
ENDBRANCH   1   5
BRANCH   2  20
HETATM   20  C   UNL     1      42.131 -10.907   4.149  1.00  0.00     0.159 C 
BRANCH  20  21
HETATM   21  C   UNL     1      43.262 -11.871   3.735  1.00  0.00     0.171 C 
BRANCH  21  22
HETATM   22  O   UNL     1      44.494 -11.410   4.314  1.00  0.00    -0.389 OA
HETATM   23  H   UNL     1      45.202 -11.802   3.777  1.00  0.00     0.210 HD
ENDBRANCH  21  22
BRANCH  21  24
HETATM   24  C   UNL     1      42.969 -13.280   4.152  1.00  0.00     0.000 A 
HETATM   25  C   UNL     1      43.026 -14.443   3.317  1.00  0.00     0.001 A 
HETATM   26  C   UNL     1      42.692 -15.551   4.104  1.00  0.00     0.044 A 
HETATM   27  C   UNL     1      43.338 -14.647   1.955  1.00  0.00     0.014 A 
HETATM   28  C   UNL     1      42.669 -16.854   3.576  1.00  0.00     0.030 A 
HETATM   29  N   UNL     1      42.433 -15.075   5.371  1.00  0.00    -0.360 N 
HETATM   30  C   UNL     1      42.987 -17.027   2.226  1.00  0.00     0.002 A 
HETATM   31  C   UNL     1      43.316 -15.941   1.424  1.00  0.00     0.001 A 
HETATM   32  C   UNL     1      42.055 -15.858   6.526  1.00  0.00     0.155 C 
HETATM   33  C   UNL     1      42.593 -13.715   5.409  1.00  0.00     0.101 A 
ENDBRANCH  21  24
ENDBRANCH  20  21
ENDBRANCH   2  20
TORSDOF 7
ENDMDL
MODEL 6
REMARK VINA RESULT:      -7.8      2.399      2.566
REMARK  7 active torsions:
REMARK  status: ('A' for Active; 'I' for Inactive)
REMARK       I    between atoms: C_2  and  N_3 
REMARK    1  A    between atoms: N_3  and  C_4 
REMARK    2  A    between atoms: C_7  and  N_8 
REMARK       I    between atoms: N_8  and  C_9 
REMARK    3  A    between atoms: C_9  and  C_10 
REMARK       I    between atoms: C_10  and  N_11 
REMARK    4  A    between atoms: N_11  and  C_12 
REMARK    5  A    between atoms: C_12  and  C_13 
REMARK    6  A    between atoms: C_13  and  O_14 
REMARK    7  A    between atoms: C_13  and  C_15 
ROOT
HETATM    1  C   UNL     1      40.524 -10.361   6.850  1.00  0.00     0.309 C 
HETATM    2  N   UNL     1      40.355 -11.719   6.712  1.00  0.00    -0.350 N 
HETATM    3  O   UNL     1      41.008  -9.608   6.016  1.00  0.00    -0.262 OA
HETATM    4  H   UNL     1      39.973 -12.221   7.510  1.00  0.00     0.163 HD
ENDROOT
BRANCH   1   5
HETATM    5  C   UNL     1      40.074  -9.810   8.220  1.00  0.00     0.313 C 
HETATM    6  N   UNL     1      41.143  -9.389   8.980  1.00  0.00    -0.319 N 
HETATM    7  H   UNL     1      42.044  -9.465   8.515  1.00  0.00     0.169 HD
HETATM    8  O   UNL     1      38.881  -9.817   8.486  1.00  0.00    -0.262 OA
BRANCH   6   9
HETATM    9  C   UNL     1      41.128  -8.940  10.310  1.00  0.00     0.035 A 
HETATM   10  C   UNL     1      40.695  -7.673  10.697  1.00  0.00     0.032 A 
HETATM   11  C   UNL     1      40.657  -7.314  12.052  1.00  0.00     0.032 A 
HETATM   12  C   UNL     1      41.059  -8.212  13.039  1.00  0.00     0.034 A 
HETATM   13  C   UNL     1      41.518  -9.474  12.648  1.00  0.00     0.032 A 
HETATM   14  C   UNL     1      41.547  -9.837  11.297  1.00  0.00     0.032 A 
BRANCH  12  15
HETATM   15  N   UNL     1      41.026  -7.937  14.422  1.00  0.00    -0.328 N 
HETATM   16  C   UNL     1      42.035  -7.392  15.196  1.00  0.00     0.218 C 
HETATM   17  C   UNL     1      41.619  -7.209  16.635  1.00  0.00     0.117 C 
HETATM   18  O   UNL     1      43.145  -7.037  14.819  1.00  0.00    -0.274 OA
HETATM   19  H   UNL     1      40.151  -8.133  14.891  1.00  0.00     0.169 HD
ENDBRANCH  12  15
ENDBRANCH   6   9
ENDBRANCH   1   5
BRANCH   2  20
HETATM   20  C   UNL     1      40.855 -12.449   5.557  1.00  0.00     0.159 C 
BRANCH  20  21
HETATM   21  C   UNL     1      40.824 -13.975   5.780  1.00  0.00     0.171 C 
BRANCH  21  22
HETATM   22  O   UNL     1      39.596 -14.319   6.440  1.00  0.00    -0.389 OA
HETATM   23  H   UNL     1      39.689 -15.248   6.709  1.00  0.00     0.210 HD
ENDBRANCH  21  22
BRANCH  21  24
HETATM   24  C   UNL     1      40.968 -14.727   4.492  1.00  0.00     0.000 A 
HETATM   25  C   UNL     1      41.906 -15.776   4.219  1.00  0.00     0.001 A 
HETATM   26  C   UNL     1      41.693 -16.208   2.905  1.00  0.00     0.044 A 
HETATM   27  C   UNL     1      42.917 -16.397   4.983  1.00  0.00     0.014 A 
HETATM   28  C   UNL     1      42.451 -17.246   2.336  1.00  0.00     0.030 A 
HETATM   29  N   UNL     1      40.668 -15.442   2.396  1.00  0.00    -0.360 N 
HETATM   30  C   UNL     1      43.443 -17.847   3.116  1.00  0.00     0.002 A 
HETATM   31  C   UNL     1      43.676 -17.429   4.422  1.00  0.00     0.001 A 
HETATM   32  C   UNL     1      40.095 -15.536   1.071  1.00  0.00     0.155 C 
HETATM   33  C   UNL     1      40.228 -14.549   3.338  1.00  0.00     0.101 A 
ENDBRANCH  21  24
ENDBRANCH  20  21
ENDBRANCH   2  20
TORSDOF 7
ENDMDL
MODEL 7
REMARK VINA RESULT:      -7.6      2.013      2.926
REMARK  7 active torsions:
REMARK  status: ('A' for Active; 'I' for Inactive)
REMARK       I    between atoms: C_2  and  N_3 
REMARK    1  A    between atoms: N_3  and  C_4 
REMARK    2  A    between atoms: C_7  and  N_8 
REMARK       I    between atoms: N_8  and  C_9 
REMARK    3  A    between atoms: C_9  and  C_10 
REMARK       I    between atoms: C_10  and  N_11 
REMARK    4  A    between atoms: N_11  and  C_12 
REMARK    5  A    between atoms: C_12  and  C_13 
REMARK    6  A    between atoms: C_13  and  O_14 
REMARK    7  A    between atoms: C_13  and  C_15 
ROOT
HETATM    1  C   UNL     1      42.364 -11.280   6.078  1.00  0.00     0.309 C 
HETATM    2  N   UNL     1      41.341 -11.356   5.163  1.00  0.00    -0.350 N 
HETATM    3  O   UNL     1      43.393 -11.942   6.063  1.00  0.00    -0.262 OA
HETATM    4  H   UNL     1      40.526 -10.767   5.329  1.00  0.00     0.163 HD
ENDROOT
BRANCH   1   5
HETATM    5  C   UNL     1      42.108 -10.276   7.222  1.00  0.00     0.313 C 
HETATM    6  N   UNL     1      43.133 -10.275   8.143  1.00  0.00    -0.319 N 
HETATM    7  H   UNL     1      43.906 -10.894   7.912  1.00  0.00     0.169 HD
HETATM    8  O   UNL     1      41.072  -9.628   7.206  1.00  0.00    -0.262 OA
BRANCH   6   9
HETATM    9  C   UNL     1      43.192  -9.580   9.362  1.00  0.00     0.035 A 
HETATM   10  C   UNL     1      43.065  -8.197   9.473  1.00  0.00     0.032 A 
HETATM   11  C   UNL     1      43.081  -7.578  10.732  1.00  0.00     0.032 A 
HETATM   12  C   UNL     1      43.232  -8.331  11.895  1.00  0.00     0.034 A 
HETATM   13  C   UNL     1      43.385  -9.716  11.780  1.00  0.00     0.032 A 
HETATM   14  C   UNL     1      43.360 -10.336  10.526  1.00  0.00     0.032 A 
BRANCH  12  15
HETATM   15  N   UNL     1      43.231  -7.787  13.197  1.00  0.00    -0.328 N 
HETATM   16  C   UNL     1      42.164  -7.703  14.073  1.00  0.00     0.218 C 
HETATM   17  C   UNL     1      42.554  -7.090  15.395  1.00  0.00     0.117 C 
HETATM   18  O   UNL     1      41.020  -8.098  13.883  1.00  0.00    -0.274 OA
HETATM   19  H   UNL     1      44.124  -7.450  13.535  1.00  0.00     0.169 HD
ENDBRANCH  12  15
ENDBRANCH   6   9
ENDBRANCH   1   5
BRANCH   2  20
HETATM   20  C   UNL     1      41.323 -12.347   4.098  1.00  0.00     0.159 C 
BRANCH  20  21
HETATM   21  C   UNL     1      40.513 -13.600   4.488  1.00  0.00     0.171 C 
BRANCH  21  22
HETATM   22  O   UNL     1      39.370 -13.698   3.624  1.00  0.00    -0.389 OA
HETATM   23  H   UNL     1      39.485 -14.523   3.123  1.00  0.00     0.210 HD
ENDBRANCH  21  22
BRANCH  21  24
HETATM   24  C   UNL     1      41.347 -14.844   4.415  1.00  0.00     0.000 A 
HETATM   25  C   UNL     1      42.060 -15.454   5.499  1.00  0.00     0.001 A 
HETATM   26  C   UNL     1      42.695 -16.598   5.001  1.00  0.00     0.044 A 
HETATM   27  C   UNL     1      42.215 -15.132   6.864  1.00  0.00     0.014 A 
HETATM   28  C   UNL     1      43.470 -17.432   5.826  1.00  0.00     0.030 A 
HETATM   29  N   UNL     1      42.386 -16.673   3.661  1.00  0.00    -0.360 N 
HETATM   30  C   UNL     1      43.602 -17.091   7.175  1.00  0.00     0.002 A 
HETATM   31  C   UNL     1      42.985 -15.956   7.690  1.00  0.00     0.001 A 
HETATM   32  C   UNL     1      42.814 -17.696   2.732  1.00  0.00     0.155 C 
HETATM   33  C   UNL     1      41.581 -15.625   3.299  1.00  0.00     0.101 A 
ENDBRANCH  21  24
ENDBRANCH  20  21
ENDBRANCH   2  20
TORSDOF 7
ENDMDL
MODEL 8
REMARK VINA RESULT:      -7.4      4.856     13.676
REMARK  7 active torsions:
REMARK  status: ('A' for Active; 'I' for Inactive)
REMARK       I    between atoms: C_2  and  N_3 
REMARK    1  A    between atoms: N_3  and  C_4 
REMARK    2  A    between atoms: C_7  and  N_8 
REMARK       I    between atoms: N_8  and  C_9 
REMARK    3  A    between atoms: C_9  and  C_10 
REMARK       I    between atoms: C_10  and  N_11 
REMARK    4  A    between atoms: N_11  and  C_12 
REMARK    5  A    between atoms: C_12  and  C_13 
REMARK    6  A    between atoms: C_13  and  O_14 
REMARK    7  A    between atoms: C_13  and  C_15 
ROOT
HETATM    1  C   UNL     1      41.239  -6.980  17.147  1.00  0.00     0.309 C 
HETATM    2  N   UNL     1      42.282  -6.341  17.777  1.00  0.00    -0.350 N 
HETATM    3  O   UNL     1      40.294  -7.526  17.697  1.00  0.00    -0.262 OA
HETATM    4  H   UNL     1      43.021  -5.966  17.186  1.00  0.00     0.163 HD
ENDROOT
BRANCH   1   5
HETATM    5  C   UNL     1      41.358  -7.003  15.608  1.00  0.00     0.313 C 
HETATM    6  N   UNL     1      41.607  -8.271  15.132  1.00  0.00    -0.319 N 
HETATM    7  H   UNL     1      41.633  -8.991  15.849  1.00  0.00     0.169 HD
HETATM    8  O   UNL     1      41.241  -5.948  15.000  1.00  0.00    -0.262 OA
BRANCH   6   9
HETATM    9  C   UNL     1      41.884  -8.653  13.809  1.00  0.00     0.035 A 
HETATM   10  C   UNL     1      41.042  -9.455  13.041  1.00  0.00     0.032 A 
HETATM   11  C   UNL     1      41.359  -9.751  11.707  1.00  0.00     0.032 A 
HETATM   12  C   UNL     1      42.526  -9.257  11.125  1.00  0.00     0.034 A 
HETATM   13  C   UNL     1      43.382  -8.473  11.905  1.00  0.00     0.032 A 
HETATM   14  C   UNL     1      43.062  -8.170  13.233  1.00  0.00     0.032 A 
BRANCH  12  15
HETATM   15  N   UNL     1      42.902  -9.487   9.785  1.00  0.00    -0.328 N 
HETATM   16  C   UNL     1      43.884 -10.343   9.322  1.00  0.00     0.218 C 
HETATM   17  C   UNL     1      43.975 -10.351   7.816  1.00  0.00     0.117 C 
HETATM   18  O   UNL     1      44.605 -11.071   9.993  1.00  0.00    -0.274 OA
HETATM   19  H   UNL     1      42.366  -8.989   9.085  1.00  0.00     0.169 HD
ENDBRANCH  12  15
ENDBRANCH   6   9
ENDBRANCH   1   5
BRANCH   2  20
HETATM   20  C   UNL     1      42.432  -6.342  19.225  1.00  0.00     0.159 C 
BRANCH  20  21
HETATM   21  C   UNL     1      43.046  -7.660  19.741  1.00  0.00     0.171 C 
BRANCH  21  22
HETATM   22  O   UNL     1      44.380  -7.396  20.205  1.00  0.00    -0.389 OA
HETATM   23  H   UNL     1      44.307  -6.633  20.802  1.00  0.00     0.210 HD
ENDBRANCH  21  22
BRANCH  21  24
HETATM   24  C   UNL     1      42.213  -8.271  20.826  1.00  0.00     0.000 A 
HETATM   25  C   UNL     1      42.461  -9.518  21.487  1.00  0.00     0.001 A 
HETATM   26  C   UNL     1      41.452  -9.705  22.439  1.00  0.00     0.044 A 
HETATM   27  C   UNL     1      43.464 -10.504  21.359  1.00  0.00     0.014 A 
HETATM   28  C   UNL     1      41.419 -10.839  23.270  1.00  0.00     0.030 A 
HETATM   29  N   UNL     1      40.616  -8.614  22.351  1.00  0.00    -0.360 N 
HETATM   30  C   UNL     1      42.427 -11.796  23.124  1.00  0.00     0.002 A 
HETATM   31  C   UNL     1      43.436 -11.634  22.182  1.00  0.00     0.001 A 
HETATM   32  C   UNL     1      39.435  -8.365  23.148  1.00  0.00     0.155 C 
HETATM   33  C   UNL     1      41.062  -7.751  21.385  1.00  0.00     0.101 A 
ENDBRANCH  21  24
ENDBRANCH  20  21
ENDBRANCH   2  20
TORSDOF 7
ENDMDL
MODEL 9
REMARK VINA RESULT:      -7.4     19.254     22.832
REMARK  7 active torsions:
REMARK  status: ('A' for Active; 'I' for Inactive)
REMARK       I    between atoms: C_2  and  N_3 
REMARK    1  A    between atoms: N_3  and  C_4 
REMARK    2  A    between atoms: C_7  and  N_8 
REMARK       I    between atoms: N_8  and  C_9 
REMARK    3  A    between atoms: C_9  and  C_10 
REMARK       I    between atoms: C_10  and  N_11 
REMARK    4  A    between atoms: N_11  and  C_12 
REMARK    5  A    between atoms: C_12  and  C_13 
REMARK    6  A    between atoms: C_13  and  O_14 
REMARK    7  A    between atoms: C_13  and  C_15 
ROOT
HETATM    1  C   UNL     1      48.750 -30.163   3.054  1.00  0.00     0.309 C 
HETATM    2  N   UNL     1      47.591 -30.204   2.313  1.00  0.00    -0.350 N 
HETATM    3  O   UNL     1      48.821 -30.058   4.270  1.00  0.00    -0.262 OA
HETATM    4  H   UNL     1      47.691 -30.255   1.301  1.00  0.00     0.163 HD
ENDROOT
BRANCH   1   5
HETATM    5  C   UNL     1      50.038 -30.222   2.205  1.00  0.00     0.313 C 
HETATM    6  N   UNL     1      49.805 -30.754   0.956  1.00  0.00    -0.319 N 
HETATM    7  H   UNL     1      48.832 -30.983   0.772  1.00  0.00     0.169 HD
HETATM    8  O   UNL     1      51.081 -29.828   2.705  1.00  0.00    -0.262 OA
BRANCH   6   9
HETATM    9  C   UNL     1      50.750 -31.063  -0.036  1.00  0.00     0.035 A 
HETATM   10  C   UNL     1      51.709 -32.066   0.091  1.00  0.00     0.032 A 
HETATM   11  C   UNL     1      52.586 -32.353  -0.965  1.00  0.00     0.032 A 
HETATM   12  C   UNL     1      52.522 -31.637  -2.160  1.00  0.00     0.034 A 
HETATM   13  C   UNL     1      51.577 -30.613  -2.276  1.00  0.00     0.032 A 
HETATM   14  C   UNL     1      50.695 -30.332  -1.226  1.00  0.00     0.032 A 
BRANCH  12  15
HETATM   15  N   UNL     1      53.349 -31.882  -3.276  1.00  0.00    -0.328 N 
HETATM   16  C   UNL     1      53.007 -32.527  -4.450  1.00  0.00     0.218 C 
HETATM   17  C   UNL     1      54.148 -32.569  -5.436  1.00  0.00     0.117 C 
HETATM   18  O   UNL     1      51.914 -32.998  -4.744  1.00  0.00    -0.274 OA
HETATM   19  H   UNL     1      54.290 -31.514  -3.218  1.00  0.00     0.169 HD
ENDBRANCH  12  15
ENDBRANCH   6   9
ENDBRANCH   1   5
BRANCH   2  20
HETATM   20  C   UNL     1      46.279 -30.010   2.911  1.00  0.00     0.159 C 
BRANCH  20  21
HETATM   21  C   UNL     1      45.376 -29.109   2.044  1.00  0.00     0.171 C 
BRANCH  21  22
HETATM   22  O   UNL     1      46.117 -27.937   1.670  1.00  0.00    -0.389 OA
HETATM   23  H   UNL     1      45.456 -27.243   1.512  1.00  0.00     0.210 HD
ENDBRANCH  21  22
BRANCH  21  24
HETATM   24  C   UNL     1      44.872 -29.833   0.832  1.00  0.00     0.000 A 
HETATM   25  C   UNL     1      44.834 -29.324  -0.507  1.00  0.00     0.001 A 
HETATM   26  C   UNL     1      44.303 -30.325  -1.329  1.00  0.00     0.044 A 
HETATM   27  C   UNL     1      45.211 -28.096  -1.091  1.00  0.00     0.014 A 
HETATM   28  C   UNL     1      44.147 -30.140  -2.714  1.00  0.00     0.030 A 
HETATM   29  N   UNL     1      44.020 -31.399  -0.514  1.00  0.00    -0.360 N 
HETATM   30  C   UNL     1      44.533 -28.915  -3.266  1.00  0.00     0.002 A 
HETATM   31  C   UNL     1      45.057 -27.905  -2.468  1.00  0.00     0.001 A 
HETATM   32  C   UNL     1      43.462 -32.670  -0.924  1.00  0.00     0.155 C 
HETATM   33  C   UNL     1      44.355 -31.113   0.783  1.00  0.00     0.101 A 
ENDBRANCH  21  24
ENDBRANCH  20  21
ENDBRANCH   2  20
TORSDOF 7
ENDMDL
MODEL 10
REMARK VINA RESULT:      -7.4     19.187     22.611
REMARK  7 active torsions:
REMARK  status: ('A' for Active; 'I' for Inactive)
REMARK       I    between atoms: C_2  and  N_3 
REMARK    1  A    between atoms: N_3  and  C_4 
REMARK    2  A    between atoms: C_7  and  N_8 
REMARK       I    between atoms: N_8  and  C_9 
REMARK    3  A    between atoms: C_9  and  C_10 
REMARK       I    between atoms: C_10  and  N_11 
REMARK    4  A    between atoms: N_11  and  C_12 
REMARK    5  A    between atoms: C_12  and  C_13 
REMARK    6  A    between atoms: C_13  and  O_14 
REMARK    7  A    between atoms: C_13  and  C_15 
ROOT
HETATM    1  C   UNL     1      46.502 -29.213   1.909  1.00  0.00     0.309 C 
HETATM    2  N   UNL     1      45.364 -29.976   2.030  1.00  0.00    -0.350 N 
HETATM    3  O   UNL     1      46.611 -28.032   2.211  1.00  0.00    -0.262 OA
HETATM    4  H   UNL     1      45.415 -30.938   1.699  1.00  0.00     0.163 HD
ENDROOT
BRANCH   1   5
HETATM    5  C   UNL     1      47.700 -29.967   1.295  1.00  0.00     0.313 C 
HETATM    6  N   UNL     1      47.744 -29.832  -0.075  1.00  0.00    -0.319 N 
HETATM    7  H   UNL     1      47.019 -29.233  -0.462  1.00  0.00     0.169 HD
HETATM    8  O   UNL     1      48.441 -30.589   2.043  1.00  0.00    -0.262 OA
BRANCH   6   9
HETATM    9  C   UNL     1      48.618 -30.465  -0.973  1.00  0.00     0.035 A 
HETATM   10  C   UNL     1      48.324 -31.656  -1.634  1.00  0.00     0.032 A 
HETATM   11  C   UNL     1      49.226 -32.201  -2.560  1.00  0.00     0.032 A 
HETATM   12  C   UNL     1      50.438 -31.568  -2.832  1.00  0.00     0.034 A 
HETATM   13  C   UNL     1      50.743 -30.386  -2.149  1.00  0.00     0.032 A 
HETATM   14  C   UNL     1      49.840 -29.837  -1.232  1.00  0.00     0.032 A 
BRANCH  12  15
HETATM   15  N   UNL     1      51.384 -32.037  -3.767  1.00  0.00    -0.328 N 
HETATM   16  C   UNL     1      52.460 -32.872  -3.527  1.00  0.00     0.218 C 
HETATM   17  C   UNL     1      53.233 -33.188  -4.785  1.00  0.00     0.117 C 
HETATM   18  O   UNL     1      52.786 -33.369  -2.456  1.00  0.00    -0.274 OA
HETATM   19  H   UNL     1      51.235 -31.752  -4.727  1.00  0.00     0.169 HD
ENDBRANCH  12  15
ENDBRANCH   6   9
ENDBRANCH   1   5
BRANCH   2  20
HETATM   20  C   UNL     1      44.089 -29.410   2.444  1.00  0.00     0.159 C 
BRANCH  20  21
HETATM   21  C   UNL     1      42.950 -29.777   1.472  1.00  0.00     0.171 C 
BRANCH  21  22
HETATM   22  O   UNL     1      42.193 -28.592   1.181  1.00  0.00    -0.389 OA
HETATM   23  H   UNL     1      41.265 -28.819   1.356  1.00  0.00     0.210 HD
ENDBRANCH  21  22
BRANCH  21  24
HETATM   24  C   UNL     1      43.475 -30.399   0.213  1.00  0.00     0.000 A 
HETATM   25  C   UNL     1      44.164 -29.723  -0.846  1.00  0.00     0.001 A 
HETATM   26  C   UNL     1      44.488 -30.675  -1.820  1.00  0.00     0.044 A 
HETATM   27  C   UNL     1      44.544 -28.380  -1.056  1.00  0.00     0.014 A 
HETATM   28  C   UNL     1      45.186 -30.328  -2.990  1.00  0.00     0.030 A 
HETATM   29  N   UNL     1      44.003 -31.884  -1.371  1.00  0.00    -0.360 N 
HETATM   30  C   UNL     1      45.553 -28.992  -3.170  1.00  0.00     0.002 A 
HETATM   31  C   UNL     1      45.237 -28.029  -2.219  1.00  0.00     0.001 A 
HETATM   32  C   UNL     1      44.110 -33.160  -2.044  1.00  0.00     0.155 C 
HETATM   33  C   UNL     1      43.392 -31.729  -0.155  1.00  0.00     0.101 A 
ENDBRANCH  21  24
ENDBRANCH  20  21
ENDBRANCH   2  20
TORSDOF 7
ENDMDL
