MODEL 1
REMARK VINA RESULT:      -9.5      0.000      0.000
REMARK  8 active torsions:
REMARK  status: ('A' for Active; 'I' for Inactive)
REMARK    1  A    between atoms: C_6  and  N_7 
REMARK    2  A    between atoms: C_6  and  C_26 
REMARK       I    between atoms: N_7  and  C_8 
REMARK    3  A    between atoms: N_7  and  C_23 
REMARK    4  A    between atoms: C_8  and  C_9 
REMARK    5  A    between atoms: C_9  and  N_10 
REMARK    6  A    between atoms: C_14  and  C_15 
REMARK       I    between atoms: C_26  and  N_27 
REMARK    7  A    between atoms: N_27  and  C_28 
REMARK    8  A    between atoms: C_31  and  N_32 
ROOT
HETATM    1  C   UNL     1      41.178  -6.929  -2.045  1.00  0.00     0.269 C 
HETATM    2  N   UNL     1      40.773  -8.309  -1.588  1.00  0.00    -0.075 N 
HETATM    3  H   UNL     1      40.229  -8.721  -2.359  1.00  0.00     0.279 HD
HETATM    4  C   UNL     1      41.984  -9.170  -1.364  1.00  0.00     0.237 C 
HETATM    5  C   UNL     1      41.579 -10.559  -0.887  1.00  0.00     0.069 C 
HETATM    6  C   UNL     1      40.628 -10.599   0.347  1.00  0.00     0.120 C 
HETATM    7  C   UNL     1      39.451  -9.629   0.040  1.00  0.00     0.069 C 
HETATM    8  C   UNL     1      39.894  -8.232  -0.375  1.00  0.00     0.237 C 
ENDROOT
BRANCH   6   9
HETATM    9  N   UNL     1      40.159 -12.018   0.611  1.00  0.00    -0.328 N 
HETATM   10  C   UNL     1      39.529 -12.284   1.842  1.00  0.00     0.239 C 
HETATM   11  O   UNL     1      39.036 -11.367   2.503  1.00  0.00    -0.271 OA
BRANCH  10  12
HETATM   12  C   UNL     1      39.486 -13.736   2.359  1.00  0.00     0.228 C 
BRANCH  12  13
HETATM   13  N   UNL     1      40.722 -14.179   2.998  1.00  0.00    -0.347 N 
HETATM   14  C   UNL     1      41.007 -14.103   4.366  1.00  0.00     0.171 C 
HETATM   15  S   UNL     1      40.207 -13.290   5.563  1.00  0.00    -0.041 SA
HETATM   16  N   UNL     1      42.134 -14.865   4.615  1.00  0.00    -0.357 N 
HETATM   17  C   UNL     1      42.698 -15.396   3.399  1.00  0.00     0.135 C 
HETATM   18  H   UNL     1      42.586 -14.893   5.521  1.00  0.00     0.162 HD
HETATM   19  C   UNL     1      41.550 -15.224   2.395  1.00  0.00     0.155 C 
BRANCH  17  20
HETATM   20  C   UNL     1      43.210 -16.805   3.541  1.00  0.00    -0.034 A 
HETATM   21  C   UNL     1      43.827 -17.253   4.719  1.00  0.00     0.009 A 
HETATM   22  C   UNL     1      44.302 -18.561   4.822  1.00  0.00     0.001 A 
HETATM   23  C   UNL     1      44.155 -19.443   3.754  1.00  0.00     0.000 A 
HETATM   24  C   UNL     1      43.531 -19.018   2.583  1.00  0.00     0.001 A 
HETATM   25  C   UNL     1      43.058 -17.709   2.478  1.00  0.00     0.009 A 
ENDBRANCH  17  20
ENDBRANCH  12  13
ENDBRANCH  10  12
BRANCH   9  26
HETATM   26  C   UNL     1      40.490 -13.086  -0.316  1.00  0.00     0.088 A 
HETATM   27  C   UNL     1      39.391 -13.920  -0.942  1.00  0.00     0.027 A 
HETATM   28  C   UNL     1      40.222 -13.037  -1.805  1.00  0.00     0.027 A 
ENDBRANCH   9  26
ENDBRANCH   6   9
BRANCH   6  29
HETATM   29  C   UNL     1      41.329 -10.019   1.618  1.00  0.00     0.251 C 
HETATM   30  N   UNL     1      42.295 -10.852   2.147  1.00  0.00    -0.325 N 
HETATM   31  H   UNL     1      42.754 -11.470   1.486  1.00  0.00     0.169 HD
HETATM   32  O   UNL     1      40.838  -9.050   2.197  1.00  0.00    -0.270 OA
BRANCH  30  33
HETATM   33  C   UNL     1      42.717 -10.935   3.489  1.00  0.00     0.034 A 
HETATM   34  C   UNL     1      43.837 -11.644   3.908  1.00  0.00     0.032 A 
HETATM   35  C   UNL     1      44.250 -11.593   5.248  1.00  0.00     0.031 A 
HETATM   36  C   UNL     1      43.579 -10.832   6.216  1.00  0.00     0.030 A 
HETATM   37  C   UNL     1      42.430 -10.162   5.780  1.00  0.00     0.031 A 
HETATM   38  C   UNL     1      42.005 -10.205   4.441  1.00  0.00     0.032 A 
BRANCH  36  39
HETATM   39  N   UNL     1      44.030 -10.817   7.532  1.00  0.00    -0.377 N 
HETATM   40  C   UNL     1      45.488 -10.961   7.774  1.00  0.00     0.149 C 
HETATM   41  C   UNL     1      46.148  -9.574   7.880  1.00  0.00     0.187 C 
HETATM   42  O   UNL     1      45.537  -8.775   8.906  1.00  0.00    -0.388 OA
HETATM   43  C   UNL     1      44.132  -8.602   8.649  1.00  0.00     0.187 C 
HETATM   44  C   UNL     1      43.406  -9.955   8.559  1.00  0.00     0.149 C 
ENDBRANCH  36  39
ENDBRANCH  30  33
ENDBRANCH   6  29
TORSDOF 8
ENDMDL
MODEL 2
REMARK VINA RESULT:      -9.3      3.261      9.644
REMARK  8 active torsions:
REMARK  status: ('A' for Active; 'I' for Inactive)
REMARK    1  A    between atoms: C_6  and  N_7 
REMARK    2  A    between atoms: C_6  and  C_26 
REMARK       I    between atoms: N_7  and  C_8 
REMARK    3  A    between atoms: N_7  and  C_23 
REMARK    4  A    between atoms: C_8  and  C_9 
REMARK    5  A    between atoms: C_9  and  N_10 
REMARK    6  A    between atoms: C_14  and  C_15 
REMARK       I    between atoms: C_26  and  N_27 
REMARK    7  A    between atoms: N_27  and  C_28 
REMARK    8  A    between atoms: C_31  and  N_32 
ROOT
HETATM    1  C   UNL     1      42.174 -17.140   5.893  1.00  0.00     0.269 C 
HETATM    2  N   UNL     1      41.962 -15.686   6.238  1.00  0.00    -0.075 N 
HETATM    3  H   UNL     1      41.647 -15.665   7.219  1.00  0.00     0.279 HD
HETATM    4  C   UNL     1      43.255 -14.926   6.150  1.00  0.00     0.237 C 
HETATM    5  C   UNL     1      43.041 -13.454   6.483  1.00  0.00     0.069 C 
HETATM    6  C   UNL     1      41.914 -12.737   5.680  1.00  0.00     0.120 C 
HETATM    7  C   UNL     1      40.647 -13.636   5.782  1.00  0.00     0.069 C 
HETATM    8  C   UNL     1      40.886 -15.086   5.382  1.00  0.00     0.237 C 
ENDROOT
BRANCH   6   9
HETATM    9  N   UNL     1      41.682 -11.340   6.225  1.00  0.00    -0.328 N 
HETATM   10  C   UNL     1      42.804 -10.507   6.398  1.00  0.00     0.239 C 
HETATM   11  O   UNL     1      43.854 -10.737   5.792  1.00  0.00    -0.271 OA
BRANCH  10  12
HETATM   12  C   UNL     1      42.706  -9.317   7.374  1.00  0.00     0.228 C 
BRANCH  12  13
HETATM   13  N   UNL     1      43.170  -9.613   8.726  1.00  0.00    -0.347 N 
HETATM   14  C   UNL     1      44.489  -9.492   9.181  1.00  0.00     0.171 C 
HETATM   15  S   UNL     1      45.882  -9.262   8.320  1.00  0.00    -0.041 SA
HETATM   16  N   UNL     1      44.478  -9.589  10.560  1.00  0.00    -0.357 N 
HETATM   17  C   UNL     1      43.159  -9.878  11.065  1.00  0.00     0.135 C 
HETATM   18  H   UNL     1      45.327  -9.619  11.113  1.00  0.00     0.162 HD
HETATM   19  C   UNL     1      42.261  -9.536   9.869  1.00  0.00     0.155 C 
BRANCH  17  20
HETATM   20  C   UNL     1      42.830  -9.142  12.337  1.00  0.00    -0.034 A 
HETATM   21  C   UNL     1      43.518  -7.981  12.719  1.00  0.00     0.009 A 
HETATM   22  C   UNL     1      43.199  -7.323  13.908  1.00  0.00     0.001 A 
HETATM   23  C   UNL     1      42.181  -7.810  14.724  1.00  0.00     0.000 A 
HETATM   24  C   UNL     1      41.477  -8.953  14.351  1.00  0.00     0.001 A 
HETATM   25  C   UNL     1      41.797  -9.613  13.163  1.00  0.00     0.009 A 
ENDBRANCH  17  20
ENDBRANCH  12  13
ENDBRANCH  10  12
BRANCH   9  26
HETATM   26  C   UNL     1      40.365 -10.941   6.688  1.00  0.00     0.088 A 
HETATM   27  C   UNL     1      39.571  -9.899   5.927  1.00  0.00     0.027 A 
HETATM   28  C   UNL     1      39.070 -11.299   5.991  1.00  0.00     0.027 A 
ENDBRANCH   9  26
ENDBRANCH   6   9
BRANCH   6  29
HETATM   29  C   UNL     1      42.261 -12.671   4.158  1.00  0.00     0.251 C 
HETATM   30  N   UNL     1      41.272 -12.089   3.390  1.00  0.00    -0.325 N 
HETATM   31  H   UNL     1      40.691 -11.404   3.863  1.00  0.00     0.169 HD
HETATM   32  O   UNL     1      43.200 -13.332   3.716  1.00  0.00    -0.270 OA
BRANCH  30  33
HETATM   33  C   UNL     1      40.984 -12.330   2.031  1.00  0.00     0.034 A 
HETATM   34  C   UNL     1      40.345 -13.473   1.565  1.00  0.00     0.032 A 
HETATM   35  C   UNL     1      40.002 -13.592   0.209  1.00  0.00     0.031 A 
HETATM   36  C   UNL     1      40.266 -12.583  -0.728  1.00  0.00     0.030 A 
HETATM   37  C   UNL     1      40.949 -11.461  -0.243  1.00  0.00     0.031 A 
HETATM   38  C   UNL     1      41.299 -11.329   1.112  1.00  0.00     0.032 A 
BRANCH  36  39
HETATM   39  N   UNL     1      39.905 -12.752  -2.061  1.00  0.00    -0.377 N 
HETATM   40  C   UNL     1      40.155 -14.073  -2.691  1.00  0.00     0.149 C 
HETATM   41  C   UNL     1      38.900 -14.959  -2.582  1.00  0.00     0.187 C 
HETATM   42  O   UNL     1      37.751 -14.323  -3.167  1.00  0.00    -0.388 OA
HETATM   43  C   UNL     1      37.487 -13.062  -2.528  1.00  0.00     0.187 C 
HETATM   44  C   UNL     1      38.696 -12.116  -2.626  1.00  0.00     0.149 C 
ENDBRANCH  36  39
ENDBRANCH  30  33
ENDBRANCH   6  29
TORSDOF 8
ENDMDL
MODEL 3
REMARK VINA RESULT:      -9.0      4.503      7.533
REMARK  8 active torsions:
REMARK  status: ('A' for Active; 'I' for Inactive)
REMARK    1  A    between atoms: C_6  and  N_7 
REMARK    2  A    between atoms: C_6  and  C_26 
REMARK       I    between atoms: N_7  and  C_8 
REMARK    3  A    between atoms: N_7  and  C_23 
REMARK    4  A    between atoms: C_8  and  C_9 
REMARK    5  A    between atoms: C_9  and  N_10 
REMARK    6  A    between atoms: C_14  and  C_15 
REMARK       I    between atoms: C_26  and  N_27 
REMARK    7  A    between atoms: N_27  and  C_28 
REMARK    8  A    between atoms: C_31  and  N_32 
ROOT
HETATM    1  C   UNL     1      39.110  -6.336   7.653  1.00  0.00     0.269 C 
HETATM    2  N   UNL     1      40.083  -7.460   7.394  1.00  0.00    -0.075 N 
HETATM    3  H   UNL     1      39.859  -7.825   6.458  1.00  0.00     0.279 HD
HETATM    4  C   UNL     1      41.494  -6.943   7.365  1.00  0.00     0.237 C 
HETATM    5  C   UNL     1      42.480  -8.079   7.119  1.00  0.00     0.069 C 
HETATM    6  C   UNL     1      42.353  -9.303   8.073  1.00  0.00     0.120 C 
HETATM    7  C   UNL     1      40.851  -9.713   8.081  1.00  0.00     0.069 C 
HETATM    8  C   UNL     1      39.900  -8.565   8.391  1.00  0.00     0.237 C 
ENDROOT
BRANCH   6   9
HETATM    9  N   UNL     1      43.261 -10.430   7.617  1.00  0.00    -0.328 N 
HETATM   10  C   UNL     1      42.716 -11.408   6.762  1.00  0.00     0.239 C 
HETATM   11  O   UNL     1      41.696 -11.171   6.111  1.00  0.00    -0.271 OA
BRANCH  10  12
HETATM   12  C   UNL     1      43.403 -12.785   6.673  1.00  0.00     0.228 C 
BRANCH  12  13
HETATM   13  N   UNL     1      42.993 -13.584   5.521  1.00  0.00    -0.347 N 
HETATM   14  C   UNL     1      43.221 -13.257   4.179  1.00  0.00     0.171 C 
HETATM   15  S   UNL     1      43.739 -11.834   3.515  1.00  0.00    -0.041 SA
HETATM   16  N   UNL     1      42.943 -14.373   3.412  1.00  0.00    -0.357 N 
HETATM   17  C   UNL     1      42.423 -15.455   4.211  1.00  0.00     0.135 C 
HETATM   18  H   UNL     1      42.949 -14.356   2.399  1.00  0.00     0.162 HD
HETATM   19  C   UNL     1      42.801 -15.029   5.635  1.00  0.00     0.155 C 
BRANCH  17  20
HETATM   20  C   UNL     1      42.936 -16.808   3.796  1.00  0.00    -0.034 A 
HETATM   21  C   UNL     1      42.601 -17.379   2.558  1.00  0.00     0.009 A 
HETATM   22  C   UNL     1      43.084 -18.640   2.202  1.00  0.00     0.001 A 
HETATM   23  C   UNL     1      43.916 -19.340   3.071  1.00  0.00     0.000 A 
HETATM   24  C   UNL     1      44.271 -18.780   4.296  1.00  0.00     0.001 A 
HETATM   25  C   UNL     1      43.787 -17.521   4.655  1.00  0.00     0.009 A 
ENDBRANCH  17  20
ENDBRANCH  12  13
ENDBRANCH  10  12
BRANCH   9  26
HETATM   26  C   UNL     1      44.597 -10.566   8.168  1.00  0.00     0.088 A 
HETATM   27  C   UNL     1      45.776 -10.833   7.255  1.00  0.00     0.027 A 
HETATM   28  C   UNL     1      45.701  -9.544   7.995  1.00  0.00     0.027 A 
ENDBRANCH   9  26
ENDBRANCH   6   9
BRANCH   6  29
HETATM   29  C   UNL     1      42.686  -8.906   9.547  1.00  0.00     0.251 C 
HETATM   30  N   UNL     1      41.949  -9.598  10.488  1.00  0.00    -0.325 N 
HETATM   31  H   UNL     1      41.640 -10.524  10.213  1.00  0.00     0.169 HD
HETATM   32  O   UNL     1      43.340  -7.888   9.773  1.00  0.00    -0.270 OA
BRANCH  30  33
HETATM   33  C   UNL     1      41.583  -9.168  11.779  1.00  0.00     0.034 A 
HETATM   34  C   UNL     1      42.449  -9.153  12.866  1.00  0.00     0.032 A 
HETATM   35  C   UNL     1      42.038  -8.613  14.095  1.00  0.00     0.031 A 
HETATM   36  C   UNL     1      40.764  -8.059  14.287  1.00  0.00     0.030 A 
HETATM   37  C   UNL     1      39.895  -8.125  13.191  1.00  0.00     0.031 A 
HETATM   38  C   UNL     1      40.294  -8.664  11.956  1.00  0.00     0.032 A 
BRANCH  36  39
HETATM   39  N   UNL     1      40.406  -7.537  15.527  1.00  0.00    -0.377 N 
HETATM   40  C   UNL     1      41.292  -7.816  16.685  1.00  0.00     0.149 C 
HETATM   41  C   UNL     1      42.306  -6.672  16.865  1.00  0.00     0.187 C 
HETATM   42  O   UNL     1      41.650  -5.402  17.019  1.00  0.00    -0.388 OA
HETATM   43  C   UNL     1      40.824  -5.115  15.877  1.00  0.00     0.187 C 
HETATM   44  C   UNL     1      39.766  -6.211  15.658  1.00  0.00     0.149 C 
ENDBRANCH  36  39
ENDBRANCH  30  33
ENDBRANCH   6  29
TORSDOF 8
ENDMDL
MODEL 4
REMARK VINA RESULT:      -8.9      2.390      7.008
REMARK  8 active torsions:
REMARK  status: ('A' for Active; 'I' for Inactive)
REMARK    1  A    between atoms: C_6  and  N_7 
REMARK    2  A    between atoms: C_6  and  C_26 
REMARK       I    between atoms: N_7  and  C_8 
REMARK    3  A    between atoms: N_7  and  C_23 
REMARK    4  A    between atoms: C_8  and  C_9 
REMARK    5  A    between atoms: C_9  and  N_10 
REMARK    6  A    between atoms: C_14  and  C_15 
REMARK       I    between atoms: C_26  and  N_27 
REMARK    7  A    between atoms: N_27  and  C_28 
REMARK    8  A    between atoms: C_31  and  N_32 
ROOT
HETATM    1  C   UNL     1      43.944 -18.448   3.869  1.00  0.00     0.269 C 
HETATM    2  N   UNL     1      42.923 -17.468   3.344  1.00  0.00    -0.075 N 
HETATM    3  H   UNL     1      42.204 -18.030   2.866  1.00  0.00     0.279 HD
HETATM    4  C   UNL     1      42.261 -16.734   4.476  1.00  0.00     0.237 C 
HETATM    5  C   UNL     1      41.241 -15.734   3.948  1.00  0.00     0.069 C 
HETATM    6  C   UNL     1      41.764 -14.741   2.868  1.00  0.00     0.120 C 
HETATM    7  C   UNL     1      42.485 -15.594   1.784  1.00  0.00     0.069 C 
HETATM    8  C   UNL     1      43.542 -16.538   2.343  1.00  0.00     0.237 C 
ENDROOT
BRANCH   6   9
HETATM    9  N   UNL     1      40.619 -13.923   2.298  1.00  0.00    -0.328 N 
HETATM   10  C   UNL     1      40.067 -14.333   1.069  1.00  0.00     0.239 C 
HETATM   11  O   UNL     1      40.225 -15.488   0.667  1.00  0.00    -0.271 OA
BRANCH  10  12
HETATM   12  C   UNL     1      39.281 -13.308   0.227  1.00  0.00     0.228 C 
BRANCH  12  13
HETATM   13  N   UNL     1      40.030 -12.765  -0.903  1.00  0.00    -0.347 N 
HETATM   14  C   UNL     1      39.785 -13.041  -2.253  1.00  0.00     0.171 C 
HETATM   15  S   UNL     1      38.825 -14.203  -2.932  1.00  0.00    -0.041 SA
HETATM   16  N   UNL     1      40.504 -12.138  -3.014  1.00  0.00    -0.357 N 
HETATM   17  C   UNL     1      41.333 -11.289  -2.195  1.00  0.00     0.135 C 
HETATM   18  H   UNL     1      40.558 -12.195  -4.025  1.00  0.00     0.162 HD
HETATM   19  C   UNL     1      40.732 -11.486  -0.797  1.00  0.00     0.155 C 
BRANCH  17  20
HETATM   20  C   UNL     1      41.381  -9.861  -2.669  1.00  0.00    -0.034 A 
HETATM   21  C   UNL     1      41.930  -8.837  -1.881  1.00  0.00     0.009 A 
HETATM   22  C   UNL     1      41.953  -7.519  -2.341  1.00  0.00     0.001 A 
HETATM   23  C   UNL     1      41.440  -7.209  -3.598  1.00  0.00     0.000 A 
HETATM   24  C   UNL     1      40.906  -8.217  -4.399  1.00  0.00     0.001 A 
HETATM   25  C   UNL     1      40.880  -9.535  -3.939  1.00  0.00     0.009 A 
ENDBRANCH  17  20
ENDBRANCH  12  13
ENDBRANCH  10  12
BRANCH   9  26
HETATM   26  C   UNL     1      40.219 -12.679   2.931  1.00  0.00     0.088 A 
HETATM   27  C   UNL     1      38.753 -12.303   3.014  1.00  0.00     0.027 A 
HETATM   28  C   UNL     1      39.508 -12.590   4.264  1.00  0.00     0.027 A 
ENDBRANCH   9  26
ENDBRANCH   6   9
BRANCH   6  29
HETATM   29  C   UNL     1      42.861 -13.795   3.455  1.00  0.00     0.251 C 
HETATM   30  N   UNL     1      42.787 -13.646   4.826  1.00  0.00    -0.325 N 
HETATM   31  H   UNL     1      42.391 -14.430   5.334  1.00  0.00     0.169 HD
HETATM   32  O   UNL     1      43.514 -13.074   2.701  1.00  0.00    -0.270 OA
BRANCH  30  33
HETATM   33  C   UNL     1      43.202 -12.540   5.594  1.00  0.00     0.034 A 
HETATM   34  C   UNL     1      42.508 -11.337   5.660  1.00  0.00     0.032 A 
HETATM   35  C   UNL     1      42.931 -10.319   6.529  1.00  0.00     0.031 A 
HETATM   36  C   UNL     1      44.045 -10.460   7.370  1.00  0.00     0.030 A 
HETATM   37  C   UNL     1      44.752 -11.662   7.254  1.00  0.00     0.031 A 
HETATM   38  C   UNL     1      44.340 -12.689   6.387  1.00  0.00     0.032 A 
BRANCH  36  39
HETATM   39  N   UNL     1      44.422  -9.418   8.213  1.00  0.00    -0.377 N 
HETATM   40  C   UNL     1      43.354  -8.576   8.806  1.00  0.00     0.149 C 
HETATM   41  C   UNL     1      42.960  -9.116  10.192  1.00  0.00     0.187 C 
HETATM   42  O   UNL     1      44.094  -9.195  11.071  1.00  0.00    -0.388 OA
HETATM   43  C   UNL     1      45.112 -10.044  10.514  1.00  0.00     0.187 C 
HETATM   44  C   UNL     1      45.571  -9.541   9.134  1.00  0.00     0.149 C 
ENDBRANCH  36  39
ENDBRANCH  30  33
ENDBRANCH   6  29
TORSDOF 8
ENDMDL
MODEL 5
REMARK VINA RESULT:      -8.8      3.181      7.853
REMARK  8 active torsions:
REMARK  status: ('A' for Active; 'I' for Inactive)
REMARK    1  A    between atoms: C_6  and  N_7 
REMARK    2  A    between atoms: C_6  and  C_26 
REMARK       I    between atoms: N_7  and  C_8 
REMARK    3  A    between atoms: N_7  and  C_23 
REMARK    4  A    between atoms: C_8  and  C_9 
REMARK    5  A    between atoms: C_9  and  N_10 
REMARK    6  A    between atoms: C_14  and  C_15 
REMARK       I    between atoms: C_26  and  N_27 
REMARK    7  A    between atoms: N_27  and  C_28 
REMARK    8  A    between atoms: C_31  and  N_32 
ROOT
HETATM    1  C   UNL     1      38.709 -14.775  -3.044  1.00  0.00     0.269 C 
HETATM    2  N   UNL     1      38.948 -13.877  -1.854  1.00  0.00    -0.075 N 
HETATM    3  H   UNL     1      38.919 -14.485  -1.024  1.00  0.00     0.279 HD
HETATM    4  C   UNL     1      40.314 -13.255  -1.925  1.00  0.00     0.237 C 
HETATM    5  C   UNL     1      40.552 -12.337  -0.732  1.00  0.00     0.069 C 
HETATM    6  C   UNL     1      39.458 -11.256  -0.483  1.00  0.00     0.120 C 
HETATM    7  C   UNL     1      38.087 -11.993  -0.495  1.00  0.00     0.069 C 
HETATM    8  C   UNL     1      37.859 -12.853  -1.731  1.00  0.00     0.237 C 
ENDROOT
BRANCH   6   9
HETATM    9  N   UNL     1      39.716 -10.529   0.824  1.00  0.00    -0.328 N 
HETATM   10  C   UNL     1      41.048 -10.194   1.136  1.00  0.00     0.239 C 
HETATM   11  O   UNL     1      41.903 -10.136   0.249  1.00  0.00    -0.271 OA
BRANCH  10  12
HETATM   12  C   UNL     1      41.422  -9.922   2.607  1.00  0.00     0.228 C 
BRANCH  12  13
HETATM   13  N   UNL     1      41.856 -11.107   3.342  1.00  0.00    -0.347 N 
HETATM   14  C   UNL     1      41.164 -11.711   4.398  1.00  0.00     0.171 C 
HETATM   15  S   UNL     1      39.875 -11.152   5.268  1.00  0.00    -0.041 SA
HETATM   16  N   UNL     1      41.740 -12.945   4.639  1.00  0.00    -0.357 N 
HETATM   17  C   UNL     1      42.902 -13.163   3.813  1.00  0.00     0.135 C 
HETATM   18  H   UNL     1      41.467 -13.534   5.417  1.00  0.00     0.162 HD
HETATM   19  C   UNL     1      42.744 -12.092   2.725  1.00  0.00     0.155 C 
BRANCH  17  20
HETATM   20  C   UNL     1      43.018 -14.574   3.302  1.00  0.00    -0.034 A 
HETATM   21  C   UNL     1      43.195 -14.856   1.939  1.00  0.00     0.009 A 
HETATM   22  C   UNL     1      43.290 -16.175   1.491  1.00  0.00     0.001 A 
HETATM   23  C   UNL     1      43.222 -17.228   2.399  1.00  0.00     0.000 A 
HETATM   24  C   UNL     1      43.063 -16.964   3.758  1.00  0.00     0.001 A 
HETATM   25  C   UNL     1      42.964 -15.646   4.207  1.00  0.00     0.009 A 
ENDBRANCH  17  20
ENDBRANCH  12  13
ENDBRANCH  10  12
BRANCH   9  26
HETATM   26  C   UNL     1      38.641 -10.328   1.779  1.00  0.00     0.088 A 
HETATM   27  C   UNL     1      38.176  -8.928   2.119  1.00  0.00     0.027 A 
HETATM   28  C   UNL     1      37.251  -9.855   1.412  1.00  0.00     0.027 A 
ENDBRANCH   9  26
ENDBRANCH   6   9
BRANCH   6  29
HETATM   29  C   UNL     1      39.395 -10.234  -1.664  1.00  0.00     0.251 C 
HETATM   30  N   UNL     1      40.578 -10.127  -2.367  1.00  0.00    -0.325 N 
HETATM   31  H   UNL     1      41.166 -10.954  -2.372  1.00  0.00     0.169 HD
HETATM   32  O   UNL     1      38.457  -9.440  -1.736  1.00  0.00    -0.270 OA
BRANCH  30  33
HETATM   33  C   UNL     1      41.057  -9.008  -3.078  1.00  0.00     0.034 A 
HETATM   34  C   UNL     1      42.047  -8.154  -2.606  1.00  0.00     0.032 A 
HETATM   35  C   UNL     1      42.543  -7.122  -3.418  1.00  0.00     0.031 A 
HETATM   36  C   UNL     1      42.087  -6.908  -4.727  1.00  0.00     0.030 A 
HETATM   37  C   UNL     1      41.060  -7.753  -5.164  1.00  0.00     0.031 A 
HETATM   38  C   UNL     1      40.554  -8.789  -4.360  1.00  0.00     0.032 A 
BRANCH  36  39
HETATM   39  N   UNL     1      42.612  -5.869  -5.490  1.00  0.00    -0.377 N 
HETATM   40  C   UNL     1      43.589  -6.208  -6.555  1.00  0.00     0.149 C 
HETATM   41  C   UNL     1      42.864  -6.390  -7.901  1.00  0.00     0.187 C 
HETATM   42  O   UNL     1      42.106  -5.222  -8.257  1.00  0.00    -0.388 OA
HETATM   43  C   UNL     1      41.133  -4.919  -7.242  1.00  0.00     0.187 C 
HETATM   44  C   UNL     1      41.797  -4.696  -5.873  1.00  0.00     0.149 C 
ENDBRANCH  36  39
ENDBRANCH  30  33
ENDBRANCH   6  29
TORSDOF 8
ENDMDL
MODEL 6
REMARK VINA RESULT:      -8.5      3.433      7.706
REMARK  8 active torsions:
REMARK  status: ('A' for Active; 'I' for Inactive)
REMARK    1  A    between atoms: C_6  and  N_7 
REMARK    2  A    between atoms: C_6  and  C_26 
REMARK       I    between atoms: N_7  and  C_8 
REMARK    3  A    between atoms: N_7  and  C_23 
REMARK    4  A    between atoms: C_8  and  C_9 
REMARK    5  A    between atoms: C_9  and  N_10 
REMARK    6  A    between atoms: C_14  and  C_15 
REMARK       I    between atoms: C_26  and  N_27 
REMARK    7  A    between atoms: N_27  and  C_28 
REMARK    8  A    between atoms: C_31  and  N_32 
ROOT
HETATM    1  C   UNL     1      38.870  -5.002   3.621  1.00  0.00     0.269 C 
HETATM    2  N   UNL     1      39.528  -5.429   4.911  1.00  0.00    -0.075 N 
HETATM    3  H   UNL     1      40.078  -4.621   5.235  1.00  0.00     0.279 HD
HETATM    4  C   UNL     1      38.494  -5.737   5.957  1.00  0.00     0.237 C 
HETATM    5  C   UNL     1      39.156  -6.183   7.255  1.00  0.00     0.069 C 
HETATM    6  C   UNL     1      40.184  -7.347   7.124  1.00  0.00     0.120 C 
HETATM    7  C   UNL     1      41.161  -6.957   5.977  1.00  0.00     0.069 C 
HETATM    8  C   UNL     1      40.465  -6.577   4.677  1.00  0.00     0.237 C 
ENDROOT
BRANCH   6   9
HETATM    9  N   UNL     1      40.898  -7.576   8.444  1.00  0.00    -0.328 N 
HETATM   10  C   UNL     1      42.204  -7.065   8.581  1.00  0.00     0.239 C 
HETATM   11  O   UNL     1      42.603  -6.162   7.843  1.00  0.00    -0.271 OA
BRANCH  10  12
HETATM   12  C   UNL     1      43.130  -7.670   9.656  1.00  0.00     0.228 C 
BRANCH  12  13
HETATM   13  N   UNL     1      43.674  -8.979   9.307  1.00  0.00    -0.347 N 
HETATM   14  C   UNL     1      43.573 -10.138  10.085  1.00  0.00     0.171 C 
HETATM   15  S   UNL     1      43.089 -10.312  11.657  1.00  0.00    -0.041 SA
HETATM   16  N   UNL     1      43.955 -11.215   9.306  1.00  0.00    -0.357 N 
HETATM   17  C   UNL     1      44.419 -10.795   8.006  1.00  0.00     0.135 C 
HETATM   18  H   UNL     1      44.050 -12.153   9.677  1.00  0.00     0.162 HD
HETATM   19  C   UNL     1      43.889  -9.359   7.911  1.00  0.00     0.155 C 
BRANCH  17  20
HETATM   20  C   UNL     1      43.984 -11.708   6.891  1.00  0.00    -0.034 A 
HETATM   21  C   UNL     1      43.650 -13.051   7.121  1.00  0.00     0.009 A 
HETATM   22  C   UNL     1      43.259 -13.879   6.068  1.00  0.00     0.001 A 
HETATM   23  C   UNL     1      43.183 -13.372   4.773  1.00  0.00     0.000 A 
HETATM   24  C   UNL     1      43.496 -12.036   4.530  1.00  0.00     0.001 A 
HETATM   25  C   UNL     1      43.890 -11.208   5.583  1.00  0.00     0.009 A 
ENDBRANCH  17  20
ENDBRANCH  12  13
ENDBRANCH  10  12
BRANCH   9  26
HETATM   26  C   UNL     1      40.304  -8.421   9.464  1.00  0.00     0.088 A 
HETATM   27  C   UNL     1      39.923  -7.840  10.810  1.00  0.00     0.027 A 
HETATM   28  C   UNL     1      38.857  -8.344   9.901  1.00  0.00     0.027 A 
ENDBRANCH   9  26
ENDBRANCH   6   9
BRANCH   6  29
HETATM   29  C   UNL     1      39.488  -8.664   6.653  1.00  0.00     0.251 C 
HETATM   30  N   UNL     1      40.369  -9.619   6.187  1.00  0.00    -0.325 N 
HETATM   31  H   UNL     1      41.303  -9.589   6.581  1.00  0.00     0.169 HD
HETATM   32  O   UNL     1      38.270  -8.683   6.480  1.00  0.00    -0.270 OA
BRANCH  30  33
HETATM   33  C   UNL     1      40.118 -10.629   5.235  1.00  0.00     0.034 A 
HETATM   34  C   UNL     1      40.191 -10.435   3.861  1.00  0.00     0.032 A 
HETATM   35  C   UNL     1      40.028 -11.517   2.981  1.00  0.00     0.031 A 
HETATM   36  C   UNL     1      39.800 -12.826   3.429  1.00  0.00     0.030 A 
HETATM   37  C   UNL     1      39.688 -12.988   4.815  1.00  0.00     0.031 A 
HETATM   38  C   UNL     1      39.848 -11.914   5.707  1.00  0.00     0.032 A 
BRANCH  36  39
HETATM   39  N   UNL     1      39.645 -13.863   2.513  1.00  0.00    -0.377 N 
HETATM   40  C   UNL     1      40.156 -13.661   1.135  1.00  0.00     0.149 C 
HETATM   41  C   UNL     1      41.589 -14.210   1.014  1.00  0.00     0.187 C 
HETATM   42  O   UNL     1      41.657 -15.597   1.386  1.00  0.00    -0.388 OA
HETATM   43  C   UNL     1      41.200 -15.785   2.736  1.00  0.00     0.187 C 
HETATM   44  C   UNL     1      39.758 -15.281   2.917  1.00  0.00     0.149 C 
ENDBRANCH  36  39
ENDBRANCH  30  33
ENDBRANCH   6  29
TORSDOF 8
ENDMDL
MODEL 7
REMARK VINA RESULT:      -8.3      3.539      6.568
REMARK  8 active torsions:
REMARK  status: ('A' for Active; 'I' for Inactive)
REMARK    1  A    between atoms: C_6  and  N_7 
REMARK    2  A    between atoms: C_6  and  C_26 
REMARK       I    between atoms: N_7  and  C_8 
REMARK    3  A    between atoms: N_7  and  C_23 
REMARK    4  A    between atoms: C_8  and  C_9 
REMARK    5  A    between atoms: C_9  and  N_10 
REMARK    6  A    between atoms: C_14  and  C_15 
REMARK       I    between atoms: C_26  and  N_27 
REMARK    7  A    between atoms: N_27  and  C_28 
REMARK    8  A    between atoms: C_31  and  N_32 
ROOT
HETATM    1  C   UNL     1      36.743 -12.661  -3.451  1.00  0.00     0.269 C 
HETATM    2  N   UNL     1      37.302 -12.841  -2.061  1.00  0.00    -0.075 N 
HETATM    3  H   UNL     1      36.550 -13.268  -1.501  1.00  0.00     0.279 HD
HETATM    4  C   UNL     1      38.467 -13.790  -2.076  1.00  0.00     0.237 C 
HETATM    5  C   UNL     1      39.042 -13.961  -0.675  1.00  0.00     0.069 C 
HETATM    6  C   UNL     1      39.404 -12.642   0.072  1.00  0.00     0.120 C 
HETATM    7  C   UNL     1      38.161 -11.711  -0.030  1.00  0.00     0.069 C 
HETATM    8  C   UNL     1      37.651 -11.515  -1.451  1.00  0.00     0.237 C 
ENDROOT
BRANCH   6   9
HETATM    9  N   UNL     1      39.795 -12.936   1.509  1.00  0.00    -0.328 N 
HETATM   10  C   UNL     1      40.644 -14.035   1.747  1.00  0.00     0.239 C 
HETATM   11  O   UNL     1      41.341 -14.495   0.840  1.00  0.00    -0.271 OA
BRANCH  10  12
HETATM   12  C   UNL     1      40.669 -14.664   3.155  1.00  0.00     0.228 C 
BRANCH  12  13
HETATM   13  N   UNL     1      41.907 -15.373   3.469  1.00  0.00    -0.347 N 
HETATM   14  C   UNL     1      42.727 -15.132   4.577  1.00  0.00     0.171 C 
HETATM   15  S   UNL     1      42.705 -13.872   5.647  1.00  0.00    -0.041 SA
HETATM   16  N   UNL     1      43.632 -16.172   4.677  1.00  0.00    -0.357 N 
HETATM   17  C   UNL     1      43.508 -17.096   3.577  1.00  0.00     0.135 C 
HETATM   18  H   UNL     1      44.389 -16.176   5.351  1.00  0.00     0.162 HD
HETATM   19  C   UNL     1      42.135 -16.738   2.994  1.00  0.00     0.155 C 
BRANCH  17  20
HETATM   20  C   UNL     1      43.669 -18.537   3.983  1.00  0.00    -0.034 A 
HETATM   21  C   UNL     1      43.743 -19.569   3.036  1.00  0.00     0.009 A 
HETATM   22  C   UNL     1      43.882 -20.898   3.440  1.00  0.00     0.001 A 
HETATM   23  C   UNL     1      43.961 -21.211   4.794  1.00  0.00     0.000 A 
HETATM   24  C   UNL     1      43.905 -20.196   5.747  1.00  0.00     0.001 A 
HETATM   25  C   UNL     1      43.763 -18.867   5.344  1.00  0.00     0.009 A 
ENDBRANCH  17  20
ENDBRANCH  12  13
ENDBRANCH  10  12
BRANCH   9  26
HETATM   26  C   UNL     1      39.188 -12.197   2.602  1.00  0.00     0.088 A 
HETATM   27  C   UNL     1      40.056 -11.438   3.584  1.00  0.00     0.027 A 
HETATM   28  C   UNL     1      39.137 -10.687   2.686  1.00  0.00     0.027 A 
ENDBRANCH   9  26
ENDBRANCH   6   9
BRANCH   6  29
HETATM   29  C   UNL     1      40.559 -11.881  -0.655  1.00  0.00     0.251 C 
HETATM   30  N   UNL     1      40.659 -10.552  -0.294  1.00  0.00    -0.325 N 
HETATM   31  H   UNL     1      40.337 -10.323   0.641  1.00  0.00     0.169 HD
HETATM   32  O   UNL     1      41.104 -12.389  -1.634  1.00  0.00    -0.270 OA
BRANCH  30  33
HETATM   33  C   UNL     1      41.158  -9.486  -1.069  1.00  0.00     0.034 A 
HETATM   34  C   UNL     1      40.813  -9.263  -2.397  1.00  0.00     0.032 A 
HETATM   35  C   UNL     1      41.273  -8.120  -3.069  1.00  0.00     0.031 A 
HETATM   36  C   UNL     1      42.079  -7.153  -2.449  1.00  0.00     0.030 A 
HETATM   37  C   UNL     1      42.449  -7.421  -1.126  1.00  0.00     0.031 A 
HETATM   38  C   UNL     1      41.995  -8.563  -0.442  1.00  0.00     0.032 A 
BRANCH  36  39
HETATM   39  N   UNL     1      42.509  -6.038  -3.162  1.00  0.00    -0.377 N 
HETATM   40  C   UNL     1      42.027  -5.870  -4.556  1.00  0.00     0.149 C 
HETATM   41  C   UNL     1      40.765  -4.988  -4.579  1.00  0.00     0.187 C 
HETATM   42  O   UNL     1      41.001  -3.711  -3.963  1.00  0.00    -0.388 OA
HETATM   43  C   UNL     1      41.428  -3.875  -2.600  1.00  0.00     0.187 C 
HETATM   44  C   UNL     1      42.706  -4.726  -2.508  1.00  0.00     0.149 C 
ENDBRANCH  36  39
ENDBRANCH  30  33
ENDBRANCH   6  29
TORSDOF 8
ENDMDL
MODEL 8
REMARK VINA RESULT:      -8.3      4.181      7.319
REMARK  8 active torsions:
REMARK  status: ('A' for Active; 'I' for Inactive)
REMARK    1  A    between atoms: C_6  and  N_7 
REMARK    2  A    between atoms: C_6  and  C_26 
REMARK       I    between atoms: N_7  and  C_8 
REMARK    3  A    between atoms: N_7  and  C_23 
REMARK    4  A    between atoms: C_8  and  C_9 
REMARK    5  A    between atoms: C_9  and  N_10 
REMARK    6  A    between atoms: C_14  and  C_15 
REMARK       I    between atoms: C_26  and  N_27 
REMARK    7  A    between atoms: N_27  and  C_28 
REMARK    8  A    between atoms: C_31  and  N_32 
ROOT
HETATM    1  C   UNL     1      38.820  -6.657   6.776  1.00  0.00     0.269 C 
HETATM    2  N   UNL     1      39.743  -7.840   6.609  1.00  0.00    -0.075 N 
HETATM    3  H   UNL     1      39.484  -8.285   5.717  1.00  0.00     0.279 HD
HETATM    4  C   UNL     1      41.172  -7.386   6.503  1.00  0.00     0.237 C 
HETATM    5  C   UNL     1      42.107  -8.579   6.350  1.00  0.00     0.069 C 
HETATM    6  C   UNL     1      41.955  -9.699   7.422  1.00  0.00     0.120 C 
HETATM    7  C   UNL     1      40.439 -10.045   7.498  1.00  0.00     0.069 C 
HETATM    8  C   UNL     1      39.540  -8.835   7.713  1.00  0.00     0.237 C 
ENDROOT
BRANCH   6   9
HETATM    9  N   UNL     1      42.808 -10.900   7.060  1.00  0.00    -0.328 N 
HETATM   10  C   UNL     1      42.263 -11.852   6.177  1.00  0.00     0.239 C 
HETATM   11  O   UNL     1      41.322 -11.553   5.438  1.00  0.00    -0.271 OA
BRANCH  10  12
HETATM   12  C   UNL     1      42.847 -13.279   6.166  1.00  0.00     0.228 C 
BRANCH  12  13
HETATM   13  N   UNL     1      42.358 -14.116   5.074  1.00  0.00    -0.347 N 
HETATM   14  C   UNL     1      41.268 -14.992   5.142  1.00  0.00     0.171 C 
HETATM   15  S   UNL     1      40.427 -15.525   6.462  1.00  0.00    -0.041 SA
HETATM   16  N   UNL     1      40.949 -15.383   3.855  1.00  0.00    -0.357 N 
HETATM   17  C   UNL     1      41.883 -14.857   2.890  1.00  0.00     0.135 C 
HETATM   18  H   UNL     1      40.248 -16.087   3.654  1.00  0.00     0.162 HD
HETATM   19  C   UNL     1      42.584 -13.743   3.679  1.00  0.00     0.155 C 
BRANCH  17  20
HETATM   20  C   UNL     1      41.232 -14.413   1.607  1.00  0.00    -0.034 A 
HETATM   21  C   UNL     1      40.402 -15.266   0.864  1.00  0.00     0.009 A 
HETATM   22  C   UNL     1      39.819 -14.833  -0.328  1.00  0.00     0.001 A 
HETATM   23  C   UNL     1      40.047 -13.538  -0.786  1.00  0.00     0.000 A 
HETATM   24  C   UNL     1      40.856 -12.673  -0.052  1.00  0.00     0.001 A 
HETATM   25  C   UNL     1      41.442 -13.106   1.139  1.00  0.00     0.009 A 
ENDBRANCH  17  20
ENDBRANCH  12  13
ENDBRANCH  10  12
BRANCH   9  26
HETATM   26  C   UNL     1      44.080 -11.126   7.725  1.00  0.00     0.088 A 
HETATM   27  C   UNL     1      45.349 -11.279   6.912  1.00  0.00     0.027 A 
HETATM   28  C   UNL     1      45.192 -10.102   7.809  1.00  0.00     0.027 A 
ENDBRANCH   9  26
ENDBRANCH   6   9
BRANCH   6  29
HETATM   29  C   UNL     1      42.337  -9.175   8.844  1.00  0.00     0.251 C 
HETATM   30  N   UNL     1      41.771  -9.902   9.872  1.00  0.00    -0.325 N 
HETATM   31  H   UNL     1      41.573 -10.876   9.668  1.00  0.00     0.169 HD
HETATM   32  O   UNL     1      42.860  -8.068   8.967  1.00  0.00    -0.270 OA
BRANCH  30  33
HETATM   33  C   UNL     1      41.445  -9.449  11.166  1.00  0.00     0.034 A 
HETATM   34  C   UNL     1      42.307  -9.519  12.254  1.00  0.00     0.032 A 
HETATM   35  C   UNL     1      41.946  -8.952  13.486  1.00  0.00     0.031 A 
HETATM   36  C   UNL     1      40.727  -8.287  13.682  1.00  0.00     0.030 A 
HETATM   37  C   UNL     1      39.857  -8.268  12.585  1.00  0.00     0.031 A 
HETATM   38  C   UNL     1      40.206  -8.832  11.346  1.00  0.00     0.032 A 
BRANCH  36  39
HETATM   39  N   UNL     1      40.417  -7.743  14.925  1.00  0.00    -0.377 N 
HETATM   40  C   UNL     1      41.373  -7.958  16.040  1.00  0.00     0.149 C 
HETATM   41  C   UNL     1      42.353  -6.774  16.134  1.00  0.00     0.187 C 
HETATM   42  O   UNL     1      41.659  -5.524  16.289  1.00  0.00    -0.388 OA
HETATM   43  C   UNL     1      40.764  -5.299  15.187  1.00  0.00     0.187 C 
HETATM   44  C   UNL     1      39.737  -6.437  15.054  1.00  0.00     0.149 C 
ENDBRANCH  36  39
ENDBRANCH  30  33
ENDBRANCH   6  29
TORSDOF 8
ENDMDL
MODEL 9
REMARK VINA RESULT:      -8.3      5.373      8.763
REMARK  8 active torsions:
REMARK  status: ('A' for Active; 'I' for Inactive)
REMARK    1  A    between atoms: C_6  and  N_7 
REMARK    2  A    between atoms: C_6  and  C_26 
REMARK       I    between atoms: N_7  and  C_8 
REMARK    3  A    between atoms: N_7  and  C_23 
REMARK    4  A    between atoms: C_8  and  C_9 
REMARK    5  A    between atoms: C_9  and  N_10 
REMARK    6  A    between atoms: C_14  and  C_15 
REMARK       I    between atoms: C_26  and  N_27 
REMARK    7  A    between atoms: N_27  and  C_28 
REMARK    8  A    between atoms: C_31  and  N_32 
ROOT
HETATM    1  C   UNL     1      38.583  -5.913   8.351  1.00  0.00     0.269 C 
HETATM    2  N   UNL     1      39.756  -6.855   8.223  1.00  0.00    -0.075 N 
HETATM    3  H   UNL     1      40.017  -6.856   7.227  1.00  0.00     0.279 HD
HETATM    4  C   UNL     1      40.931  -6.348   9.010  1.00  0.00     0.237 C 
HETATM    5  C   UNL     1      42.111  -7.306   8.895  1.00  0.00     0.069 C 
HETATM    6  C   UNL     1      41.808  -8.795   9.238  1.00  0.00     0.120 C 
HETATM    7  C   UNL     1      40.542  -9.195   8.425  1.00  0.00     0.069 C 
HETATM    8  C   UNL     1      39.364  -8.249   8.613  1.00  0.00     0.237 C 
ENDROOT
BRANCH   6   9
HETATM    9  N   UNL     1      43.007  -9.668   8.915  1.00  0.00    -0.328 N 
HETATM   10  C   UNL     1      43.095 -10.211   7.619  1.00  0.00     0.239 C 
HETATM   11  O   UNL     1      42.462  -9.709   6.686  1.00  0.00    -0.271 OA
BRANCH  10  12
HETATM   12  C   UNL     1      43.977 -11.455   7.390  1.00  0.00     0.228 C 
BRANCH  12  13
HETATM   13  N   UNL     1      43.338 -12.503   6.598  1.00  0.00    -0.347 N 
HETATM   14  C   UNL     1      43.235 -12.523   5.202  1.00  0.00     0.171 C 
HETATM   15  S   UNL     1      43.532 -11.320   4.108  1.00  0.00    -0.041 SA
HETATM   16  N   UNL     1      42.824 -13.786   4.819  1.00  0.00    -0.357 N 
HETATM   17  C   UNL     1      42.544 -14.625   5.958  1.00  0.00     0.135 C 
HETATM   18  H   UNL     1      42.594 -14.020   3.861  1.00  0.00     0.162 HD
HETATM   19  C   UNL     1      43.230 -13.870   7.105  1.00  0.00     0.155 C 
BRANCH  17  20
HETATM   20  C   UNL     1      42.995 -16.050   5.778  1.00  0.00    -0.034 A 
HETATM   21  C   UNL     1      43.527 -16.511   4.564  1.00  0.00     0.009 A 
HETATM   22  C   UNL     1      43.928 -17.840   4.420  1.00  0.00     0.001 A 
HETATM   23  C   UNL     1      43.814 -18.723   5.491  1.00  0.00     0.000 A 
HETATM   24  C   UNL     1      43.302 -18.278   6.708  1.00  0.00     0.001 A 
HETATM   25  C   UNL     1      42.898 -16.949   6.852  1.00  0.00     0.009 A 
ENDBRANCH  17  20
ENDBRANCH  12  13
ENDBRANCH  10  12
BRANCH   9  26
HETATM   26  C   UNL     1      43.944 -10.046   9.959  1.00  0.00     0.088 A 
HETATM   27  C   UNL     1      45.419  -9.737   9.808  1.00  0.00     0.027 A 
HETATM   28  C   UNL     1      44.636  -9.065  10.880  1.00  0.00     0.027 A 
ENDBRANCH   9  26
ENDBRANCH   6   9
BRANCH   6  29
HETATM   29  C   UNL     1      41.411  -8.959  10.740  1.00  0.00     0.251 C 
HETATM   30  N   UNL     1      41.383  -7.769  11.438  1.00  0.00    -0.325 N 
HETATM   31  H   UNL     1      41.176  -6.940  10.891  1.00  0.00     0.169 HD
HETATM   32  O   UNL     1      41.408 -10.078  11.253  1.00  0.00    -0.270 OA
BRANCH  30  33
HETATM   33  C   UNL     1      41.603  -7.575  12.817  1.00  0.00     0.034 A 
HETATM   34  C   UNL     1      42.855  -7.359  13.381  1.00  0.00     0.032 A 
HETATM   35  C   UNL     1      42.979  -7.072  14.749  1.00  0.00     0.031 A 
HETATM   36  C   UNL     1      41.871  -6.976  15.603  1.00  0.00     0.030 A 
HETATM   37  C   UNL     1      40.625  -7.241  15.022  1.00  0.00     0.031 A 
HETATM   38  C   UNL     1      40.487  -7.531  13.653  1.00  0.00     0.032 A 
BRANCH  36  39
HETATM   39  N   UNL     1      42.050  -6.690  16.953  1.00  0.00    -0.377 N 
HETATM   40  C   UNL     1      41.808  -5.299  17.411  1.00  0.00     0.149 C 
HETATM   41  C   UNL     1      40.359  -5.148  17.910  1.00  0.00     0.187 C 
HETATM   42  O   UNL     1      40.059  -6.089  18.954  1.00  0.00    -0.388 OA
HETATM   43  C   UNL     1      40.255  -7.438  18.496  1.00  0.00     0.187 C 
HETATM   44  C   UNL     1      41.696  -7.663  18.008  1.00  0.00     0.149 C 
ENDBRANCH  36  39
ENDBRANCH  30  33
ENDBRANCH   6  29
TORSDOF 8
ENDMDL
MODEL 10
REMARK VINA RESULT:      -8.1      3.684      7.219
REMARK  8 active torsions:
REMARK  status: ('A' for Active; 'I' for Inactive)
REMARK    1  A    between atoms: C_6  and  N_7 
REMARK    2  A    between atoms: C_6  and  C_26 
REMARK       I    between atoms: N_7  and  C_8 
REMARK    3  A    between atoms: N_7  and  C_23 
REMARK    4  A    between atoms: C_8  and  C_9 
REMARK    5  A    between atoms: C_9  and  N_10 
REMARK    6  A    between atoms: C_14  and  C_15 
REMARK       I    between atoms: C_26  and  N_27 
REMARK    7  A    between atoms: N_27  and  C_28 
REMARK    8  A    between atoms: C_31  and  N_32 
ROOT
HETATM    1  C   UNL     1      43.007  -7.850  -1.562  1.00  0.00     0.269 C 
HETATM    2  N   UNL     1      42.418  -9.175  -1.142  1.00  0.00    -0.075 N 
HETATM    3  H   UNL     1      43.212  -9.765  -0.855  1.00  0.00     0.279 HD
HETATM    4  C   UNL     1      41.517  -9.001   0.048  1.00  0.00     0.237 C 
HETATM    5  C   UNL     1      40.910 -10.335   0.466  1.00  0.00     0.069 C 
HETATM    6  C   UNL     1      40.196 -11.135  -0.665  1.00  0.00     0.120 C 
HETATM    7  C   UNL     1      41.185 -11.199  -1.865  1.00  0.00     0.069 C 
HETATM    8  C   UNL     1      41.724  -9.840  -2.293  1.00  0.00     0.237 C 
ENDROOT
BRANCH   6   9
HETATM    9  N   UNL     1      39.795 -12.512  -0.168  1.00  0.00    -0.328 N 
HETATM   10  C   UNL     1      39.324 -12.622   1.155  1.00  0.00     0.239 C 
HETATM   11  O   UNL     1      38.894 -11.631   1.750  1.00  0.00    -0.271 OA
BRANCH  10  12
HETATM   12  C   UNL     1      39.377 -13.996   1.853  1.00  0.00     0.228 C 
BRANCH  12  13
HETATM   13  N   UNL     1      40.660 -14.298   2.480  1.00  0.00    -0.347 N 
HETATM   14  C   UNL     1      41.030 -13.958   3.787  1.00  0.00     0.171 C 
HETATM   15  S   UNL     1      40.292 -12.936   4.857  1.00  0.00    -0.041 SA
HETATM   16  N   UNL     1      42.186 -14.648   4.101  1.00  0.00    -0.357 N 
HETATM   17  C   UNL     1      42.682 -15.400   2.974  1.00  0.00     0.135 C 
HETATM   18  H   UNL     1      42.696 -14.498   4.963  1.00  0.00     0.162 HD
HETATM   19  C   UNL     1      41.469 -15.433   2.035  1.00  0.00     0.155 C 
BRANCH  17  20
HETATM   20  C   UNL     1      43.231 -16.750   3.349  1.00  0.00    -0.034 A 
HETATM   21  C   UNL     1      43.773 -17.002   4.619  1.00  0.00     0.009 A 
HETATM   22  C   UNL     1      44.285 -18.261   4.938  1.00  0.00     0.001 A 
HETATM   23  C   UNL     1      44.250 -19.288   3.998  1.00  0.00     0.000 A 
HETATM   24  C   UNL     1      43.700 -19.058   2.738  1.00  0.00     0.001 A 
HETATM   25  C   UNL     1      43.191 -17.798   2.417  1.00  0.00     0.009 A 
ENDBRANCH  17  20
ENDBRANCH  12  13
ENDBRANCH  10  12
BRANCH   9  26
HETATM   26  C   UNL     1      40.035 -13.688  -0.986  1.00  0.00     0.088 A 
HETATM   27  C   UNL     1      38.902 -14.312  -1.775  1.00  0.00     0.027 A 
HETATM   28  C   UNL     1      40.041 -13.687  -2.500  1.00  0.00     0.027 A 
ENDBRANCH   9  26
ENDBRANCH   6   9
BRANCH   6  29
HETATM   29  C   UNL     1      38.942 -10.367  -1.194  1.00  0.00     0.251 C 
HETATM   30  N   UNL     1      38.417  -9.471  -0.285  1.00  0.00    -0.325 N 
HETATM   31  H   UNL     1      39.077  -9.078   0.379  1.00  0.00     0.169 HD
HETATM   32  O   UNL     1      38.368 -10.762  -2.208  1.00  0.00    -0.270 OA
BRANCH  30  33
HETATM   33  C   UNL     1      37.080  -9.038  -0.178  1.00  0.00     0.034 A 
HETATM   34  C   UNL     1      36.084  -9.751   0.477  1.00  0.00     0.032 A 
HETATM   35  C   UNL     1      34.800  -9.203   0.629  1.00  0.00     0.031 A 
HETATM   36  C   UNL     1      34.462  -7.929   0.150  1.00  0.00     0.030 A 
HETATM   37  C   UNL     1      35.470  -7.248  -0.544  1.00  0.00     0.031 A 
HETATM   38  C   UNL     1      36.759  -7.786  -0.704  1.00  0.00     0.032 A 
BRANCH  36  39
HETATM   39  N   UNL     1      33.174  -7.433   0.326  1.00  0.00    -0.377 N 
HETATM   40  C   UNL     1      32.786  -6.211  -0.421  1.00  0.00     0.149 C 
HETATM   41  C   UNL     1      32.103  -6.594  -1.747  1.00  0.00     0.187 C 
HETATM   42  O   UNL     1      30.962  -7.441  -1.528  1.00  0.00    -0.388 OA
HETATM   43  C   UNL     1      31.347  -8.644  -0.839  1.00  0.00     0.187 C 
HETATM   44  C   UNL     1      32.014  -8.331   0.511  1.00  0.00     0.149 C 
ENDBRANCH  36  39
ENDBRANCH  30  33
ENDBRANCH   6  29
TORSDOF 8
ENDMDL
