MODEL 1
REMARK VINA RESULT:     -10.1      0.000      0.000
REMARK  5 active torsions:
REMARK  status: ('A' for Active; 'I' for Inactive)
REMARK    1  A    between atoms: C_5  and  C_6 
REMARK    2  A    between atoms: C_6  and  O_7 
REMARK    3  A    between atoms: O_7  and  C_8 
REMARK    4  A    between atoms: C_12  and  C_13 
REMARK    5  A    between atoms: C_30  and  O_31 
ROOT
HETATM    1  C   UNL     1      43.163 -13.278   4.820  1.00  0.00     0.130 A 
HETATM    2  C   UNL     1      42.835 -11.963   4.453  1.00  0.00     0.048 A 
HETATM    3 BR   UNL     1      42.363 -11.505   2.671  1.00  0.00    -0.048 Br
HETATM    4  C   UNL     1      42.858 -10.939   5.403  1.00  0.00     0.033 A 
HETATM    5  C   UNL     1      43.245 -11.202   6.726  1.00  0.00    -0.012 A 
HETATM    6  C   UNL     1      43.594 -12.521   7.068  1.00  0.00     0.050 A 
HETATM    7  C   UNL     1      43.580 -13.559   6.126  1.00  0.00     0.104 A 
ENDROOT
BRANCH   5   8
HETATM    8  C   UNL     1      43.235 -10.129   7.792  1.00  0.00     0.219 C 
HETATM    9  N   UNL     1      44.168 -10.454   8.838  1.00  0.00    -0.332 N 
HETATM   10  C   UNL     1      44.163  -9.804  10.044  1.00  0.00     0.256 C 
HETATM   11  H   UNL     1      45.067 -10.829   8.570  1.00  0.00     0.165 HD
HETATM   12  O   UNL     1      45.144  -9.777  10.777  1.00  0.00    -0.267 OA
HETATM   13  C   UNL     1      42.897  -9.190  10.404  1.00  0.00     0.073 A 
HETATM   14  C   UNL     1      41.827  -9.316   9.548  1.00  0.00     0.088 A 
HETATM   15  C   UNL     1      42.550  -8.460  11.585  1.00  0.00    -0.023 A 
HETATM   16  S   UNL     1      40.410  -8.606  10.161  1.00  0.00    -0.074 SA
HETATM   17  N   UNL     1      41.910  -9.956   8.362  1.00  0.00    -0.358 N 
HETATM   18  C   UNL     1      41.209  -8.119  11.584  1.00  0.00     0.018 A 
HETATM   19  C   UNL     1      40.510  -7.393  12.681  1.00  0.00     0.281 C 
HETATM   20  N   UNL     1      41.340  -7.391  13.962  1.00  0.00    -0.070 N 
HETATM   21  C   UNL     1      42.809  -7.086  13.675  1.00  0.00     0.239 C 
HETATM   22  H   UNL     1      40.983  -6.613  14.529  1.00  0.00     0.279 HD
HETATM   23  C   UNL     1      41.142  -8.633  14.782  1.00  0.00     0.270 C 
HETATM   24  C   UNL     1      43.448  -8.128  12.739  1.00  0.00     0.068 C 
HETATM   25  H   UNL     1      41.171  -9.819   7.676  1.00  0.00     0.162 HD
ENDBRANCH   5   8
BRANCH   7  26
HETATM   26  O   UNL     1      43.952 -14.765   6.650  1.00  0.00    -0.353 OA
HETATM   27  C   UNL     1      43.130 -15.327   7.664  1.00  0.00     0.210 C 
ENDBRANCH   7  26
BRANCH   1  28
HETATM   28  O   UNL     1      43.085 -14.290   3.860  1.00  0.00    -0.271 OA
BRANCH  28  29
HETATM   29  C   UNL     1      42.133 -15.244   4.177  1.00  0.00     0.298 C 
HETATM   30  O   UNL     1      41.051 -15.052   4.712  1.00  0.00    -0.259 OA
BRANCH  29  31
HETATM   31  C   UNL     1      42.592 -16.577   3.701  1.00  0.00     0.040 A 
HETATM   32  C   UNL     1      42.093 -17.047   2.480  1.00  0.00     0.018 A 
HETATM   33  C   UNL     1      42.512 -18.281   1.976  1.00  0.00     0.007 A 
HETATM   34  C   UNL     1      43.434 -19.059   2.685  1.00  0.00    -0.062 A 
HETATM   35  C   UNL     1      43.866 -20.397   2.158  1.00  0.00     0.048 C 
HETATM   36  C   UNL     1      43.910 -18.600   3.919  1.00  0.00     0.007 A 
HETATM   37  C   UNL     1      43.497 -17.363   4.424  1.00  0.00     0.018 A 
ENDBRANCH  29  31
ENDBRANCH  28  29
ENDBRANCH   1  28
TORSDOF 5
ENDMDL
MODEL 2
REMARK VINA RESULT:      -9.3      1.210      1.890
REMARK  5 active torsions:
REMARK  status: ('A' for Active; 'I' for Inactive)
REMARK    1  A    between atoms: C_5  and  C_6 
REMARK    2  A    between atoms: C_6  and  O_7 
REMARK    3  A    between atoms: O_7  and  C_8 
REMARK    4  A    between atoms: C_12  and  C_13 
REMARK    5  A    between atoms: C_30  and  O_31 
ROOT
HETATM    1  C   UNL     1      43.152 -13.427   4.889  1.00  0.00     0.130 A 
HETATM    2  C   UNL     1      43.604 -13.699   6.190  1.00  0.00     0.048 A 
HETATM    3 BR   UNL     1      44.224 -15.421   6.699  1.00  0.00    -0.048 Br
HETATM    4  C   UNL     1      43.600 -12.696   7.162  1.00  0.00     0.033 A 
HETATM    5  C   UNL     1      43.110 -11.415   6.864  1.00  0.00    -0.012 A 
HETATM    6  C   UNL     1      42.638 -11.169   5.562  1.00  0.00     0.050 A 
HETATM    7  C   UNL     1      42.631 -12.166   4.576  1.00  0.00     0.104 A 
ENDROOT
BRANCH   5   8
HETATM    8  C   UNL     1      43.135 -10.292   7.877  1.00  0.00     0.219 C 
HETATM    9  N   UNL     1      44.080 -10.582   8.922  1.00  0.00    -0.332 N 
HETATM   10  C   UNL     1      44.105  -9.876  10.095  1.00  0.00     0.256 C 
HETATM   11  H   UNL     1      44.967 -10.985   8.658  1.00  0.00     0.165 HD
HETATM   12  O   UNL     1      45.099  -9.831  10.811  1.00  0.00    -0.267 OA
HETATM   13  C   UNL     1      42.855  -9.223  10.446  1.00  0.00     0.073 A 
HETATM   14  C   UNL     1      41.769  -9.372   9.613  1.00  0.00     0.088 A 
HETATM   15  C   UNL     1      42.540  -8.432  11.596  1.00  0.00    -0.023 A 
HETATM   16  S   UNL     1      40.374  -8.609  10.214  1.00  0.00    -0.074 SA
HETATM   17  N   UNL     1      41.822 -10.069   8.459  1.00  0.00    -0.358 N 
HETATM   18  C   UNL     1      41.205  -8.068  11.599  1.00  0.00     0.018 A 
HETATM   19  C   UNL     1      40.536  -7.279  12.671  1.00  0.00     0.281 C 
HETATM   20  N   UNL     1      41.387  -7.229  13.937  1.00  0.00    -0.070 N 
HETATM   21  C   UNL     1      42.856  -6.964  13.612  1.00  0.00     0.239 C 
HETATM   22  H   UNL     1      41.053  -6.419  14.472  1.00  0.00     0.279 HD
HETATM   23  C   UNL     1      41.183  -8.428  14.819  1.00  0.00     0.270 C 
HETATM   24  C   UNL     1      43.463  -8.060  12.718  1.00  0.00     0.068 C 
HETATM   25  H   UNL     1      41.075  -9.952   7.778  1.00  0.00     0.162 HD
ENDBRANCH   5   8
BRANCH   7  26
HETATM   26  O   UNL     1      42.133 -11.734   3.379  1.00  0.00    -0.353 OA
HETATM   27  C   UNL     1      40.721 -11.645   3.245  1.00  0.00     0.210 C 
ENDBRANCH   7  26
BRANCH   1  28
HETATM   28  O   UNL     1      43.212 -14.436   3.924  1.00  0.00    -0.271 OA
BRANCH  28  29
HETATM   29  C   UNL     1      42.180 -15.351   4.055  1.00  0.00     0.298 C 
HETATM   30  O   UNL     1      41.042 -15.124   4.436  1.00  0.00    -0.259 OA
BRANCH  29  31
HETATM   31  C   UNL     1      42.643 -16.685   3.587  1.00  0.00     0.040 A 
HETATM   32  C   UNL     1      42.105 -17.188   2.396  1.00  0.00     0.018 A 
HETATM   33  C   UNL     1      42.524 -18.425   1.900  1.00  0.00     0.007 A 
HETATM   34  C   UNL     1      43.486 -19.174   2.587  1.00  0.00    -0.062 A 
HETATM   35  C   UNL     1      43.920 -20.514   2.070  1.00  0.00     0.048 C 
HETATM   36  C   UNL     1      44.003 -18.682   3.792  1.00  0.00     0.007 A 
HETATM   37  C   UNL     1      43.589 -17.443   4.288  1.00  0.00     0.018 A 
ENDBRANCH  29  31
ENDBRANCH  28  29
ENDBRANCH   1  28
TORSDOF 5
ENDMDL
MODEL 3
REMARK VINA RESULT:      -9.1      1.734      2.070
REMARK  5 active torsions:
REMARK  status: ('A' for Active; 'I' for Inactive)
REMARK    1  A    between atoms: C_5  and  C_6 
REMARK    2  A    between atoms: C_6  and  O_7 
REMARK    3  A    between atoms: O_7  and  C_8 
REMARK    4  A    between atoms: C_12  and  C_13 
REMARK    5  A    between atoms: C_30  and  O_31 
ROOT
HETATM    1  C   UNL     1      42.689 -12.811   5.324  1.00  0.00     0.130 A 
HETATM    2  C   UNL     1      41.382 -12.304   5.236  1.00  0.00     0.048 A 
HETATM    3 BR   UNL     1      40.060 -13.117   4.140  1.00  0.00    -0.048 Br
HETATM    4  C   UNL     1      41.019 -11.163   5.956  1.00  0.00     0.033 A 
HETATM    5  C   UNL     1      41.961 -10.487   6.746  1.00  0.00    -0.012 A 
HETATM    6  C   UNL     1      43.271 -10.996   6.802  1.00  0.00     0.050 A 
HETATM    7  C   UNL     1      43.653 -12.138   6.083  1.00  0.00     0.104 A 
ENDROOT
BRANCH   5   8
HETATM    8  C   UNL     1      41.591  -9.278   7.576  1.00  0.00     0.219 C 
HETATM    9  N   UNL     1      42.761  -8.493   7.866  1.00  0.00    -0.332 N 
HETATM   10  C   UNL     1      42.758  -7.508   8.818  1.00  0.00     0.256 C 
HETATM   11  H   UNL     1      43.433  -8.355   7.125  1.00  0.00     0.165 HD
HETATM   12  O   UNL     1      43.575  -6.596   8.818  1.00  0.00    -0.267 OA
HETATM   13  C   UNL     1      41.741  -7.651   9.846  1.00  0.00     0.073 A 
HETATM   14  C   UNL     1      40.898  -8.738   9.802  1.00  0.00     0.088 A 
HETATM   15  C   UNL     1      41.478  -6.819  10.979  1.00  0.00    -0.023 A 
HETATM   16  S   UNL     1      39.826  -8.789  11.120  1.00  0.00    -0.074 SA
HETATM   17  N   UNL     1      40.945  -9.663   8.820  1.00  0.00    -0.358 N 
HETATM   18  C   UNL     1      40.477  -7.355  11.770  1.00  0.00     0.018 A 
HETATM   19  C   UNL     1      39.986  -6.765  13.046  1.00  0.00     0.281 C 
HETATM   20  N   UNL     1      40.952  -5.710  13.577  1.00  0.00    -0.070 N 
HETATM   21  C   UNL     1      41.441  -4.788  12.461  1.00  0.00     0.239 C 
HETATM   22  H   UNL     1      40.407  -5.126  14.223  1.00  0.00     0.279 HD
HETATM   23  C   UNL     1      42.069  -6.302  14.387  1.00  0.00     0.270 C 
HETATM   24  C   UNL     1      42.191  -5.556  11.358  1.00  0.00     0.068 C 
HETATM   25  H   UNL     1      40.163 -10.303   8.707  1.00  0.00     0.162 HD
ENDBRANCH   5   8
BRANCH   7  26
HETATM   26  O   UNL     1      44.966 -12.473   6.265  1.00  0.00    -0.353 OA
HETATM   27  C   UNL     1      45.882 -11.424   6.546  1.00  0.00     0.210 C 
ENDBRANCH   7  26
BRANCH   1  28
HETATM   28  O   UNL     1      43.011 -13.981   4.631  1.00  0.00    -0.271 OA
BRANCH  28  29
HETATM   29  C   UNL     1      42.882 -15.112   5.420  1.00  0.00     0.298 C 
HETATM   30  O   UNL     1      42.596 -15.151   6.607  1.00  0.00    -0.259 OA
BRANCH  29  31
HETATM   31  C   UNL     1      43.081 -16.323   4.579  1.00  0.00     0.040 A 
HETATM   32  C   UNL     1      42.349 -16.427   3.390  1.00  0.00     0.018 A 
HETATM   33  C   UNL     1      42.517 -17.533   2.553  1.00  0.00     0.007 A 
HETATM   34  C   UNL     1      43.419 -18.547   2.892  1.00  0.00    -0.062 A 
HETATM   35  C   UNL     1      43.584 -19.748   2.007  1.00  0.00     0.048 C 
HETATM   36  C   UNL     1      44.131 -18.455   4.094  1.00  0.00     0.007 A 
HETATM   37  C   UNL     1      43.968 -17.348   4.932  1.00  0.00     0.018 A 
ENDBRANCH  29  31
ENDBRANCH  28  29
ENDBRANCH   1  28
TORSDOF 5
ENDMDL
MODEL 4
REMARK VINA RESULT:      -9.0      4.652     10.834
REMARK  5 active torsions:
REMARK  status: ('A' for Active; 'I' for Inactive)
REMARK    1  A    between atoms: C_5  and  C_6 
REMARK    2  A    between atoms: C_6  and  O_7 
REMARK    3  A    between atoms: O_7  and  C_8 
REMARK    4  A    between atoms: C_12  and  C_13 
REMARK    5  A    between atoms: C_30  and  O_31 
ROOT
HETATM    1  C   UNL     1      43.075 -10.403   7.802  1.00  0.00     0.130 A 
HETATM    2  C   UNL     1      41.889 -10.141   7.098  1.00  0.00     0.048 A 
HETATM    3 BR   UNL     1      40.420  -9.243   7.902  1.00  0.00    -0.048 Br
HETATM    4  C   UNL     1      41.752 -10.550   5.770  1.00  0.00     0.033 A 
HETATM    5  C   UNL     1      42.782 -11.261   5.132  1.00  0.00    -0.012 A 
HETATM    6  C   UNL     1      43.952 -11.535   5.862  1.00  0.00     0.050 A 
HETATM    7  C   UNL     1      44.103 -11.135   7.197  1.00  0.00     0.104 A 
ENDROOT
BRANCH   5   8
HETATM    8  C   UNL     1      42.688 -11.677   3.681  1.00  0.00     0.219 C 
HETATM    9  N   UNL     1      42.315 -10.555   2.862  1.00  0.00    -0.332 N 
HETATM   10  C   UNL     1      41.896 -10.707   1.567  1.00  0.00     0.256 C 
HETATM   11  H   UNL     1      42.745  -9.662   3.059  1.00  0.00     0.165 HD
HETATM   12  O   UNL     1      41.947  -9.795   0.751  1.00  0.00    -0.267 OA
HETATM   13  C   UNL     1      41.349 -12.016   1.249  1.00  0.00     0.073 A 
HETATM   14  C   UNL     1      41.277 -12.966   2.242  1.00  0.00     0.088 A 
HETATM   15  C   UNL     1      40.814 -12.496   0.012  1.00  0.00    -0.023 A 
HETATM   16  S   UNL     1      40.542 -14.407   1.716  1.00  0.00    -0.074 SA
HETATM   17  N   UNL     1      41.728 -12.752   3.496  1.00  0.00    -0.358 N 
HETATM   18  C   UNL     1      40.310 -13.776   0.151  1.00  0.00     0.018 A 
HETATM   19  C   UNL     1      39.644 -14.556  -0.930  1.00  0.00     0.281 C 
HETATM   20  N   UNL     1      39.248 -13.657  -2.098  1.00  0.00    -0.070 N 
HETATM   21  C   UNL     1      40.366 -12.680  -2.455  1.00  0.00     0.239 C 
HETATM   22  H   UNL     1      39.131 -14.279  -2.907  1.00  0.00     0.279 HD
HETATM   23  C   UNL     1      37.921 -12.987  -1.890  1.00  0.00     0.270 C 
HETATM   24  C   UNL     1      40.721 -11.746  -1.283  1.00  0.00     0.068 C 
HETATM   25  H   UNL     1      41.865 -13.549   4.113  1.00  0.00     0.162 HD
ENDBRANCH   5   8
BRANCH   7  26
HETATM   26  O   UNL     1      45.308 -11.496   7.733  1.00  0.00    -0.353 OA
HETATM   27  C   UNL     1      46.440 -10.701   7.409  1.00  0.00     0.210 C 
ENDBRANCH   7  26
BRANCH   1  28
HETATM   28  O   UNL     1      43.202  -9.941   9.114  1.00  0.00    -0.271 OA
BRANCH  28  29
HETATM   29  C   UNL     1      43.680  -8.642   9.170  1.00  0.00     0.298 C 
HETATM   30  O   UNL     1      44.263  -8.035   8.285  1.00  0.00    -0.259 OA
BRANCH  29  31
HETATM   31  C   UNL     1      43.314  -8.039  10.481  1.00  0.00     0.040 A 
HETATM   32  C   UNL     1      42.611  -6.828  10.475  1.00  0.00     0.018 A 
HETATM   33  C   UNL     1      42.223  -6.233  11.677  1.00  0.00     0.007 A 
HETATM   34  C   UNL     1      42.531  -6.840  12.900  1.00  0.00    -0.062 A 
HETATM   35  C   UNL     1      42.137  -6.190  14.194  1.00  0.00     0.048 C 
HETATM   36  C   UNL     1      43.258  -8.036  12.905  1.00  0.00     0.007 A 
HETATM   37  C   UNL     1      43.644  -8.637  11.703  1.00  0.00     0.018 A 
ENDBRANCH  29  31
ENDBRANCH  28  29
ENDBRANCH   1  28
TORSDOF 5
ENDMDL
MODEL 5
REMARK VINA RESULT:      -8.9      2.562      3.495
REMARK  5 active torsions:
REMARK  status: ('A' for Active; 'I' for Inactive)
REMARK    1  A    between atoms: C_5  and  C_6 
REMARK    2  A    between atoms: C_6  and  O_7 
REMARK    3  A    between atoms: O_7  and  C_8 
REMARK    4  A    between atoms: C_12  and  C_13 
REMARK    5  A    between atoms: C_30  and  O_31 
ROOT
HETATM    1  C   UNL     1      42.954 -12.843   4.722  1.00  0.00     0.130 A 
HETATM    2  C   UNL     1      43.408 -13.431   5.913  1.00  0.00     0.048 A 
HETATM    3 BR   UNL     1      43.671 -15.306   6.072  1.00  0.00    -0.048 Br
HETATM    4  C   UNL     1      43.672 -12.640   7.034  1.00  0.00     0.033 A 
HETATM    5  C   UNL     1      43.451 -11.255   6.997  1.00  0.00    -0.012 A 
HETATM    6  C   UNL     1      42.973 -10.688   5.803  1.00  0.00     0.050 A 
HETATM    7  C   UNL     1      42.700 -11.467   4.670  1.00  0.00     0.104 A 
ENDROOT
BRANCH   5   8
HETATM    8  C   UNL     1      43.771 -10.361   8.175  1.00  0.00     0.219 C 
HETATM    9  N   UNL     1      43.642 -11.092   9.407  1.00  0.00    -0.332 N 
HETATM   10  C   UNL     1      43.605 -10.465  10.624  1.00  0.00     0.256 C 
HETATM   11  H   UNL     1      43.997 -12.037   9.435  1.00  0.00     0.165 HD
HETATM   12  O   UNL     1      43.882 -11.044  11.668  1.00  0.00    -0.267 OA
HETATM   13  C   UNL     1      43.173  -9.078  10.587  1.00  0.00     0.073 A 
HETATM   14  C   UNL     1      42.825  -8.521   9.378  1.00  0.00     0.088 A 
HETATM   15  C   UNL     1      43.009  -8.154  11.667  1.00  0.00    -0.023 A 
HETATM   16  S   UNL     1      42.271  -6.921   9.529  1.00  0.00    -0.074 SA
HETATM   17  N   UNL     1      42.905  -9.195   8.211  1.00  0.00    -0.358 N 
HETATM   18  C   UNL     1      42.488  -6.953  11.219  1.00  0.00     0.018 A 
HETATM   19  C   UNL     1      42.156  -5.788  12.086  1.00  0.00     0.281 C 
HETATM   20  N   UNL     1      42.104  -6.188  13.557  1.00  0.00    -0.070 N 
HETATM   21  C   UNL     1      43.276  -7.094  13.931  1.00  0.00     0.239 C 
HETATM   22  H   UNL     1      42.221  -5.319  14.092  1.00  0.00     0.279 HD
HETATM   23  C   UNL     1      40.770  -6.751  13.958  1.00  0.00     0.270 C 
HETATM   24  C   UNL     1      43.284  -8.403  13.120  1.00  0.00     0.068 C 
HETATM   25  H   UNL     1      42.864  -8.675   7.338  1.00  0.00     0.162 HD
ENDBRANCH   5   8
BRANCH   7  26
HETATM   26  O   UNL     1      42.241 -10.735   3.611  1.00  0.00    -0.353 OA
HETATM   27  C   UNL     1      40.923 -10.210   3.693  1.00  0.00     0.210 C 
ENDBRANCH   7  26
BRANCH   1  28
HETATM   28  O   UNL     1      42.744 -13.652   3.602  1.00  0.00    -0.271 OA
BRANCH  28  29
HETATM   29  C   UNL     1      41.419 -14.031   3.467  1.00  0.00     0.298 C 
HETATM   30  O   UNL     1      40.636 -14.294   4.367  1.00  0.00    -0.259 OA
BRANCH  29  31
HETATM   31  C   UNL     1      41.044 -14.010   2.028  1.00  0.00     0.040 A 
HETATM   32  C   UNL     1      40.318 -15.094   1.521  1.00  0.00     0.018 A 
HETATM   33  C   UNL     1      39.920 -15.112   0.182  1.00  0.00     0.007 A 
HETATM   34  C   UNL     1      40.241 -14.047  -0.667  1.00  0.00    -0.062 A 
HETATM   35  C   UNL     1      39.837 -14.075  -2.112  1.00  0.00     0.048 C 
HETATM   36  C   UNL     1      40.992 -12.976  -0.165  1.00  0.00     0.007 A 
HETATM   37  C   UNL     1      41.387 -12.953   1.176  1.00  0.00     0.018 A 
ENDBRANCH  29  31
ENDBRANCH  28  29
ENDBRANCH   1  28
TORSDOF 5
ENDMDL
MODEL 6
REMARK VINA RESULT:      -8.7      2.096      2.811
REMARK  5 active torsions:
REMARK  status: ('A' for Active; 'I' for Inactive)
REMARK    1  A    between atoms: C_5  and  C_6 
REMARK    2  A    between atoms: C_6  and  O_7 
REMARK    3  A    between atoms: O_7  and  C_8 
REMARK    4  A    between atoms: C_12  and  C_13 
REMARK    5  A    between atoms: C_30  and  O_31 
ROOT
HETATM    1  C   UNL     1      41.373 -13.869   4.260  1.00  0.00     0.130 A 
HETATM    2  C   UNL     1      41.536 -13.897   5.654  1.00  0.00     0.048 A 
HETATM    3 BR   UNL     1      41.829 -15.518   6.601  1.00  0.00    -0.048 Br
HETATM    4  C   UNL     1      41.476 -12.714   6.395  1.00  0.00     0.033 A 
HETATM    5  C   UNL     1      41.214 -11.488   5.762  1.00  0.00    -0.012 A 
HETATM    6  C   UNL     1      41.029 -11.485   4.368  1.00  0.00     0.050 A 
HETATM    7  C   UNL     1      41.083 -12.664   3.611  1.00  0.00     0.104 A 
ENDROOT
BRANCH   5   8
HETATM    8  C   UNL     1      41.190 -10.182   6.524  1.00  0.00     0.219 C 
HETATM    9  N   UNL     1      42.523  -9.803   6.911  1.00  0.00    -0.332 N 
HETATM   10  C   UNL     1      42.760  -8.821   7.835  1.00  0.00     0.256 C 
HETATM   11  H   UNL     1      43.264  -9.930   6.236  1.00  0.00     0.165 HD
HETATM   12  O   UNL     1      43.828  -8.224   7.896  1.00  0.00    -0.267 OA
HETATM   13  C   UNL     1      41.668  -8.573   8.761  1.00  0.00     0.073 A 
HETATM   14  C   UNL     1      40.523  -9.329   8.659  1.00  0.00     0.088 A 
HETATM   15  C   UNL     1      41.596  -7.641   9.844  1.00  0.00    -0.023 A 
HETATM   16  S   UNL     1      39.385  -8.961   9.866  1.00  0.00    -0.074 SA
HETATM   17  N   UNL     1      40.350 -10.271   7.707  1.00  0.00    -0.358 N 
HETATM   18  C   UNL     1      40.411  -7.782  10.544  1.00  0.00     0.018 A 
HETATM   19  C   UNL     1      40.032  -6.998  11.753  1.00  0.00     0.281 C 
HETATM   20  N   UNL     1      41.241  -6.285  12.352  1.00  0.00    -0.070 N 
HETATM   21  C   UNL     1      42.098  -5.632  11.270  1.00  0.00     0.239 C 
HETATM   22  H   UNL     1      40.864  -5.523  12.929  1.00  0.00     0.279 HD
HETATM   23  C   UNL     1      42.030  -7.163  13.281  1.00  0.00     0.270 C 
HETATM   24  C   UNL     1      42.648  -6.658  10.263  1.00  0.00     0.068 C 
HETATM   25  H   UNL     1      39.414 -10.628   7.532  1.00  0.00     0.162 HD
ENDBRANCH   5   8
BRANCH   7  26
HETATM   26  O   UNL     1      40.875 -12.455   2.276  1.00  0.00    -0.353 OA
HETATM   27  C   UNL     1      39.568 -12.681   1.767  1.00  0.00     0.210 C 
ENDBRANCH   7  26
BRANCH   1  28
HETATM   28  O   UNL     1      41.486 -15.061   3.540  1.00  0.00    -0.271 OA
BRANCH  28  29
HETATM   29  C   UNL     1      42.775 -15.281   3.085  1.00  0.00     0.298 C 
HETATM   30  O   UNL     1      43.574 -14.438   2.706  1.00  0.00    -0.259 OA
BRANCH  29  31
HETATM   31  C   UNL     1      43.093 -16.731   3.187  1.00  0.00     0.040 A 
HETATM   32  C   UNL     1      42.538 -17.595   2.235  1.00  0.00     0.018 A 
HETATM   33  C   UNL     1      42.824 -18.962   2.271  1.00  0.00     0.007 A 
HETATM   34  C   UNL     1      43.669 -19.482   3.258  1.00  0.00    -0.062 A 
HETATM   35  C   UNL     1      43.959 -20.954   3.315  1.00  0.00     0.048 C 
HETATM   36  C   UNL     1      44.201 -18.621   4.226  1.00  0.00     0.007 A 
HETATM   37  C   UNL     1      43.920 -17.252   4.189  1.00  0.00     0.018 A 
ENDBRANCH  29  31
ENDBRANCH  28  29
ENDBRANCH   1  28
TORSDOF 5
ENDMDL
MODEL 7
REMARK VINA RESULT:      -8.6      6.897     10.028
REMARK  5 active torsions:
REMARK  status: ('A' for Active; 'I' for Inactive)
REMARK    1  A    between atoms: C_5  and  C_6 
REMARK    2  A    between atoms: C_6  and  O_7 
REMARK    3  A    between atoms: O_7  and  C_8 
REMARK    4  A    between atoms: C_12  and  C_13 
REMARK    5  A    between atoms: C_30  and  O_31 
ROOT
HETATM    1  C   UNL     1      41.791 -13.605   2.558  1.00  0.00     0.130 A 
HETATM    2  C   UNL     1      42.340 -12.363   2.913  1.00  0.00     0.048 A 
HETATM    3 BR   UNL     1      43.550 -12.176   4.366  1.00  0.00    -0.048 Br
HETATM    4  C   UNL     1      41.998 -11.211   2.201  1.00  0.00     0.033 A 
HETATM    5  C   UNL     1      41.072 -11.272   1.147  1.00  0.00    -0.012 A 
HETATM    6  C   UNL     1      40.514 -12.521   0.823  1.00  0.00     0.050 A 
HETATM    7  C   UNL     1      40.844 -13.686   1.530  1.00  0.00     0.104 A 
ENDROOT
BRANCH   5   8
HETATM    8  C   UNL     1      40.715 -10.055   0.323  1.00  0.00     0.219 C 
HETATM    9  N   UNL     1      40.181 -10.452  -0.952  1.00  0.00    -0.332 N 
HETATM   10  C   UNL     1      40.035  -9.567  -1.987  1.00  0.00     0.256 C 
HETATM   11  H   UNL     1      39.535 -11.229  -0.972  1.00  0.00     0.165 HD
HETATM   12  O   UNL     1      39.255  -9.764  -2.911  1.00  0.00    -0.267 OA
HETATM   13  C   UNL     1      40.902  -8.403  -1.926  1.00  0.00     0.073 A 
HETATM   14  C   UNL     1      41.790  -8.288  -0.881  1.00  0.00     0.088 A 
HETATM   15  C   UNL     1      41.015  -7.311  -2.843  1.00  0.00    -0.023 A 
HETATM   16  S   UNL     1      42.778  -6.910  -1.009  1.00  0.00    -0.074 SA
HETATM   17  N   UNL     1      41.867  -9.192   0.119  1.00  0.00    -0.358 N 
HETATM   18  C   UNL     1      42.030  -6.448  -2.468  1.00  0.00     0.018 A 
HETATM   19  C   UNL     1      42.442  -5.232  -3.223  1.00  0.00     0.281 C 
HETATM   20  N   UNL     1      41.875  -5.241  -4.640  1.00  0.00    -0.070 N 
HETATM   21  C   UNL     1      40.410  -5.674  -4.654  1.00  0.00     0.239 C 
HETATM   22  H   UNL     1      41.896  -4.265  -4.960  1.00  0.00     0.279 HD
HETATM   23  C   UNL     1      42.730  -6.015  -5.601  1.00  0.00     0.270 C 
HETATM   24  C   UNL     1      40.218  -7.096  -4.095  1.00  0.00     0.068 C 
HETATM   25  H   UNL     1      42.363  -8.944   0.971  1.00  0.00     0.162 HD
ENDBRANCH   5   8
BRANCH   7  26
HETATM   26  O   UNL     1      40.197 -14.797   1.067  1.00  0.00    -0.353 OA
HETATM   27  C   UNL     1      39.796 -14.808  -0.296  1.00  0.00     0.210 C 
ENDBRANCH   7  26
BRANCH   1  28
HETATM   28  O   UNL     1      42.188 -14.748   3.257  1.00  0.00    -0.271 OA
BRANCH  28  29
HETATM   29  C   UNL     1      43.155 -15.470   2.578  1.00  0.00     0.298 C 
HETATM   30  O   UNL     1      43.758 -15.126   1.573  1.00  0.00    -0.259 OA
BRANCH  29  31
HETATM   31  C   UNL     1      43.418 -16.743   3.302  1.00  0.00     0.040 A 
HETATM   32  C   UNL     1      43.540 -17.916   2.548  1.00  0.00     0.018 A 
HETATM   33  C   UNL     1      43.811 -19.134   3.177  1.00  0.00     0.007 A 
HETATM   34  C   UNL     1      43.965 -19.194   4.567  1.00  0.00    -0.062 A 
HETATM   35  C   UNL     1      44.232 -20.504   5.248  1.00  0.00     0.048 C 
HETATM   36  C   UNL     1      43.815 -18.024   5.322  1.00  0.00     0.007 A 
HETATM   37  C   UNL     1      43.548 -16.803   4.695  1.00  0.00     0.018 A 
ENDBRANCH  29  31
ENDBRANCH  28  29
ENDBRANCH   1  28
TORSDOF 5
ENDMDL
MODEL 8
REMARK VINA RESULT:      -8.6      2.080      3.042
REMARK  5 active torsions:
REMARK  status: ('A' for Active; 'I' for Inactive)
REMARK    1  A    between atoms: C_5  and  C_6 
REMARK    2  A    between atoms: C_6  and  O_7 
REMARK    3  A    between atoms: O_7  and  C_8 
REMARK    4  A    between atoms: C_12  and  C_13 
REMARK    5  A    between atoms: C_30  and  O_31 
ROOT
HETATM    1  C   UNL     1      42.922 -11.406   5.482  1.00  0.00     0.130 A 
HETATM    2  C   UNL     1      43.585 -12.103   6.504  1.00  0.00     0.048 A 
HETATM    3 BR   UNL     1      44.224 -13.876   6.262  1.00  0.00    -0.048 Br
HETATM    4  C   UNL     1      43.787 -11.504   7.750  1.00  0.00     0.033 A 
HETATM    5  C   UNL     1      43.297 -10.214   8.009  1.00  0.00    -0.012 A 
HETATM    6  C   UNL     1      42.614  -9.542   6.980  1.00  0.00     0.050 A 
HETATM    7  C   UNL     1      42.399 -10.131   5.726  1.00  0.00     0.104 A 
ENDROOT
BRANCH   5   8
HETATM    8  C   UNL     1      43.539  -9.516   9.329  1.00  0.00     0.219 C 
HETATM    9  N   UNL     1      43.083 -10.336  10.420  1.00  0.00    -0.332 N 
HETATM   10  C   UNL     1      42.930  -9.840  11.687  1.00  0.00     0.256 C 
HETATM   11  H   UNL     1      43.277 -11.326  10.379  1.00  0.00     0.165 HD
HETATM   12  O   UNL     1      42.926 -10.562  12.677  1.00  0.00    -0.267 OA
HETATM   13  C   UNL     1      42.731  -8.403  11.764  1.00  0.00     0.073 A 
HETATM   14  C   UNL     1      42.692  -7.672  10.598  1.00  0.00     0.088 A 
HETATM   15  C   UNL     1      42.524  -7.579  12.915  1.00  0.00    -0.023 A 
HETATM   16  S   UNL     1      42.375  -6.024  10.868  1.00  0.00    -0.074 SA
HETATM   17  N   UNL     1      42.871  -8.226   9.380  1.00  0.00    -0.358 N 
HETATM   18  C   UNL     1      42.283  -6.266  12.552  1.00  0.00     0.018 A 
HETATM   19  C   UNL     1      41.987  -5.156  13.500  1.00  0.00     0.281 C 
HETATM   20  N   UNL     1      41.616  -5.690  14.881  1.00  0.00    -0.070 N 
HETATM   21  C   UNL     1      42.548  -6.820  15.312  1.00  0.00     0.239 C 
HETATM   22  H   UNL     1      41.770  -4.914  15.536  1.00  0.00     0.279 HD
HETATM   23  C   UNL     1      40.161  -6.049  14.990  1.00  0.00     0.270 C 
HETATM   24  C   UNL     1      42.497  -8.019  14.348  1.00  0.00     0.068 C 
HETATM   25  H   UNL     1      43.065  -7.620   8.587  1.00  0.00     0.162 HD
ENDBRANCH   5   8
BRANCH   7  26
HETATM   26  O   UNL     1      41.715  -9.322   4.863  1.00  0.00    -0.353 OA
HETATM   27  C   UNL     1      41.319  -8.040   5.332  1.00  0.00     0.210 C 
ENDBRANCH   7  26
BRANCH   1  28
HETATM   28  O   UNL     1      42.776 -12.012   4.231  1.00  0.00    -0.271 OA
BRANCH  28  29
HETATM   29  C   UNL     1      41.651 -12.816   4.163  1.00  0.00     0.298 C 
HETATM   30  O   UNL     1      40.503 -12.497   4.437  1.00  0.00    -0.259 OA
BRANCH  29  31
HETATM   31  C   UNL     1      42.031 -14.151   3.629  1.00  0.00     0.040 A 
HETATM   32  C   UNL     1      41.384 -15.278   4.152  1.00  0.00     0.018 A 
HETATM   33  C   UNL     1      41.687 -16.552   3.668  1.00  0.00     0.007 A 
HETATM   34  C   UNL     1      42.637 -16.717   2.653  1.00  0.00    -0.062 A 
HETATM   35  C   UNL     1      42.983 -18.088   2.148  1.00  0.00     0.048 C 
HETATM   36  C   UNL     1      43.302 -15.592   2.151  1.00  0.00     0.007 A 
HETATM   37  C   UNL     1      42.999 -14.315   2.630  1.00  0.00     0.018 A 
ENDBRANCH  29  31
ENDBRANCH  28  29
ENDBRANCH   1  28
TORSDOF 5
ENDMDL
MODEL 9
REMARK VINA RESULT:      -8.6      1.743      2.228
REMARK  5 active torsions:
REMARK  status: ('A' for Active; 'I' for Inactive)
REMARK    1  A    between atoms: C_5  and  C_6 
REMARK    2  A    between atoms: C_6  and  O_7 
REMARK    3  A    between atoms: O_7  and  C_8 
REMARK    4  A    between atoms: C_12  and  C_13 
REMARK    5  A    between atoms: C_30  and  O_31 
ROOT
HETATM    1  C   UNL     1      40.720 -12.205   3.822  1.00  0.00     0.130 A 
HETATM    2  C   UNL     1      40.530 -10.814   3.798  1.00  0.00     0.048 A 
HETATM    3 BR   UNL     1      39.664  -9.943   2.348  1.00  0.00    -0.048 Br
HETATM    4  C   UNL     1      40.989 -10.021   4.852  1.00  0.00     0.033 A 
HETATM    5  C   UNL     1      41.679 -10.597   5.930  1.00  0.00    -0.012 A 
HETATM    6  C   UNL     1      41.882 -11.988   5.924  1.00  0.00     0.050 A 
HETATM    7  C   UNL     1      41.431 -12.798   4.873  1.00  0.00     0.104 A 
ENDROOT
BRANCH   5   8
HETATM    8  C   UNL     1      42.148  -9.776   7.111  1.00  0.00     0.219 C 
HETATM    9  N   UNL     1      42.954 -10.580   7.991  1.00  0.00    -0.332 N 
HETATM   10  C   UNL     1      43.275 -10.172   9.258  1.00  0.00     0.256 C 
HETATM   11  H   UNL     1      43.623 -11.211   7.573  1.00  0.00     0.165 HD
HETATM   12  O   UNL     1      44.239 -10.622   9.866  1.00  0.00    -0.267 OA
HETATM   13  C   UNL     1      42.364  -9.201   9.840  1.00  0.00     0.073 A 
HETATM   14  C   UNL     1      41.272  -8.791   9.109  1.00  0.00     0.088 A 
HETATM   15  C   UNL     1      42.398  -8.590  11.133  1.00  0.00    -0.023 A 
HETATM   16  S   UNL     1      40.275  -7.716   9.969  1.00  0.00    -0.074 SA
HETATM   17  N   UNL     1      41.028  -9.221   7.853  1.00  0.00    -0.358 N 
HETATM   18  C   UNL     1      41.291  -7.786  11.334  1.00  0.00     0.018 A 
HETATM   19  C   UNL     1      40.993  -7.036  12.587  1.00  0.00     0.281 C 
HETATM   20  N   UNL     1      41.844  -7.539  13.749  1.00  0.00    -0.070 N 
HETATM   21  C   UNL     1      43.296  -7.753  13.327  1.00  0.00     0.239 C 
HETATM   22  H   UNL     1      41.848  -6.784  14.445  1.00  0.00     0.279 HD
HETATM   23  C   UNL     1      41.244  -8.735  14.431  1.00  0.00     0.270 C 
HETATM   24  C   UNL     1      43.430  -8.796  12.202  1.00  0.00     0.068 C 
HETATM   25  H   UNL     1      40.354  -8.718   7.282  1.00  0.00     0.162 HD
ENDBRANCH   5   8
BRANCH   7  26
HETATM   26  O   UNL     1      41.726 -14.121   5.048  1.00  0.00    -0.353 OA
HETATM   27  C   UNL     1      42.965 -14.445   5.663  1.00  0.00     0.210 C 
ENDBRANCH   7  26
BRANCH   1  28
HETATM   28  O   UNL     1      40.209 -12.979   2.778  1.00  0.00    -0.271 OA
BRANCH  28  29
HETATM   29  C   UNL     1      41.152 -13.227   1.795  1.00  0.00     0.298 C 
HETATM   30  O   UNL     1      41.570 -12.436   0.963  1.00  0.00    -0.259 OA
BRANCH  29  31
HETATM   31  C   UNL     1      41.657 -14.619   1.936  1.00  0.00     0.040 A 
HETATM   32  C   UNL     1      43.033 -14.838   1.797  1.00  0.00     0.018 A 
HETATM   33  C   UNL     1      43.561 -16.123   1.945  1.00  0.00     0.007 A 
HETATM   34  C   UNL     1      42.721 -17.204   2.235  1.00  0.00    -0.062 A 
HETATM   35  C   UNL     1      43.282 -18.590   2.370  1.00  0.00     0.048 C 
HETATM   36  C   UNL     1      41.342 -16.988   2.347  1.00  0.00     0.007 A 
HETATM   37  C   UNL     1      40.811 -15.703   2.204  1.00  0.00     0.018 A 
ENDBRANCH  29  31
ENDBRANCH  28  29
ENDBRANCH   1  28
TORSDOF 5
ENDMDL
MODEL 10
REMARK VINA RESULT:      -8.4      5.674      6.890
REMARK  5 active torsions:
REMARK  status: ('A' for Active; 'I' for Inactive)
REMARK    1  A    between atoms: C_5  and  C_6 
REMARK    2  A    between atoms: C_6  and  O_7 
REMARK    3  A    between atoms: O_7  and  C_8 
REMARK    4  A    between atoms: C_12  and  C_13 
REMARK    5  A    between atoms: C_30  and  O_31 
ROOT
HETATM    1  C   UNL     1      40.906 -14.926   2.543  1.00  0.00     0.130 A 
HETATM    2  C   UNL     1      40.668 -14.557   3.877  1.00  0.00     0.048 A 
HETATM    3 BR   UNL     1      40.823 -15.799   5.306  1.00  0.00    -0.048 Br
HETATM    4  C   UNL     1      40.295 -13.248   4.190  1.00  0.00     0.033 A 
HETATM    5  C   UNL     1      40.116 -12.295   3.176  1.00  0.00    -0.012 A 
HETATM    6  C   UNL     1      40.335 -12.690   1.844  1.00  0.00     0.050 A 
HETATM    7  C   UNL     1      40.706 -14.000   1.512  1.00  0.00     0.104 A 
ENDROOT
BRANCH   5   8
HETATM    8  C   UNL     1      39.760 -10.857   3.482  1.00  0.00     0.219 C 
HETATM    9  N   UNL     1      39.192 -10.752   4.799  1.00  0.00    -0.332 N 
HETATM   10  C   UNL     1      38.536  -9.625   5.221  1.00  0.00     0.256 C 
HETATM   11  H   UNL     1      39.617 -11.289   5.541  1.00  0.00     0.165 HD
HETATM   12  O   UNL     1      38.393  -9.356   6.407  1.00  0.00    -0.267 OA
HETATM   13  C   UNL     1      37.990  -8.799   4.158  1.00  0.00     0.073 A 
HETATM   14  C   UNL     1      38.147  -9.204   2.852  1.00  0.00     0.088 A 
HETATM   15  C   UNL     1      37.244  -7.582   4.251  1.00  0.00    -0.023 A 
HETATM   16  S   UNL     1      37.381  -8.164   1.747  1.00  0.00    -0.074 SA
HETATM   17  N   UNL     1      38.824 -10.320   2.507  1.00  0.00    -0.358 N 
HETATM   18  C   UNL     1      36.826  -7.156   3.003  1.00  0.00     0.018 A 
HETATM   19  C   UNL     1      35.994  -5.948   2.745  1.00  0.00     0.281 C 
HETATM   20  N   UNL     1      35.346  -5.437   4.028  1.00  0.00    -0.070 N 
HETATM   21  C   UNL     1      36.335  -5.435   5.191  1.00  0.00     0.239 C 
HETATM   22  H   UNL     1      35.099  -4.456   3.849  1.00  0.00     0.279 HD
HETATM   23  C   UNL     1      34.059  -6.142   4.347  1.00  0.00     0.270 C 
HETATM   24  C   UNL     1      36.873  -6.843   5.502  1.00  0.00     0.068 C 
HETATM   25  H   UNL     1      39.109 -10.445   1.539  1.00  0.00     0.162 HD
ENDBRANCH   5   8
BRANCH   7  26
HETATM   26  O   UNL     1      40.869 -14.188   0.168  1.00  0.00    -0.353 OA
HETATM   27  C   UNL     1      39.720 -14.530  -0.595  1.00  0.00     0.210 C 
ENDBRANCH   7  26
BRANCH   1  28
HETATM   28  O   UNL     1      41.325 -16.229   2.263  1.00  0.00    -0.271 OA
BRANCH  28  29
HETATM   29  C   UNL     1      42.702 -16.326   2.146  1.00  0.00     0.298 C 
HETATM   30  O   UNL     1      43.449 -15.531   1.597  1.00  0.00    -0.259 OA
BRANCH  29  31
HETATM   31  C   UNL     1      43.173 -17.541   2.863  1.00  0.00     0.040 A 
HETATM   32  C   UNL     1      43.646 -17.391   4.172  1.00  0.00     0.018 A 
HETATM   33  C   UNL     1      44.077 -18.504   4.898  1.00  0.00     0.007 A 
HETATM   34  C   UNL     1      44.040 -19.781   4.326  1.00  0.00    -0.062 A 
HETATM   35  C   UNL     1      44.526 -20.975   5.094  1.00  0.00     0.048 C 
HETATM   36  C   UNL     1      43.592 -19.925   3.006  1.00  0.00     0.007 A 
HETATM   37  C   UNL     1      43.156 -18.814   2.279  1.00  0.00     0.018 A 
ENDBRANCH  29  31
ENDBRANCH  28  29
ENDBRANCH   1  28
TORSDOF 5
ENDMDL
