MODEL 1
REMARK VINA RESULT:      -9.7      0.000      0.000
REMARK  8 active torsions:
REMARK  status: ('A' for Active; 'I' for Inactive)
REMARK    1  A    between atoms: C_4  and  C_5 
REMARK    2  A    between atoms: C_5  and  C_6 
REMARK    3  A    between atoms: C_6  and  C_7 
REMARK    4  A    between atoms: C_7  and  N_8 
REMARK    5  A    between atoms: C_17  and  C_18 
REMARK    6  A    between atoms: C_18  and  N_19 
REMARK    7  A    between atoms: C_23  and  O_24 
REMARK    8  A    between atoms: C_23  and  C_25 
ROOT
HETATM    1  N   UNL     1      40.568 -15.814   3.958  1.00  0.00    -0.065 N 
HETATM    2  H   UNL     1      39.819 -16.412   4.331  1.00  0.00     0.280 HD
HETATM    3  C   UNL     1      40.458 -14.500   4.705  1.00  0.00     0.276 C 
HETATM    4  C   UNL     1      41.599 -13.549   4.464  1.00  0.00     0.001 A 
HETATM    5  C   UNL     1      41.780 -12.999   3.194  1.00  0.00     0.076 A 
HETATM    6  O   UNL     1      40.932 -13.319   2.172  1.00  0.00    -0.349 OA
HETATM    7  C   UNL     1      41.132 -14.673   1.733  1.00  0.00     0.203 C 
HETATM    8  C   UNL     1      40.212 -15.648   2.477  1.00  0.00     0.261 C 
HETATM    9  C   UNL     1      42.511 -13.207   5.480  1.00  0.00     0.020 A 
HETATM   10  C   UNL     1      43.585 -12.329   5.227  1.00  0.00    -0.032 A 
HETATM   11  C   UNL     1      43.708 -11.759   3.951  1.00  0.00     0.011 A 
HETATM   12  C   UNL     1      42.799 -12.085   2.943  1.00  0.00     0.038 A 
ENDROOT
BRANCH  10  13
HETATM   13  C   UNL     1      44.610 -12.037   6.298  1.00  0.00     0.273 C 
BRANCH  13  14
HETATM   14  N   UNL     1      44.706 -10.590   6.741  1.00  0.00    -0.067 N 
HETATM   15  H   UNL     1      44.978 -10.042   5.912  1.00  0.00     0.280 HD
HETATM   16  C   UNL     1      43.387 -10.036   7.225  1.00  0.00     0.238 C 
HETATM   17  C   UNL     1      43.562  -8.602   7.689  1.00  0.00     0.071 C 
HETATM   18  C   UNL     1      44.580  -8.492   8.841  1.00  0.00     0.089 C 
HETATM   19  C   UNL     1      45.915  -9.023   8.282  1.00  0.00     0.071 C 
HETATM   20  C   UNL     1      45.818 -10.447   7.760  1.00  0.00     0.238 C 
BRANCH  18  21
HETATM   21  O   UNL     1      44.772  -7.098   9.080  1.00  0.00    -0.385 OA
HETATM   22  H   UNL     1      45.170  -6.672   8.297  1.00  0.00     0.211 HD
ENDBRANCH  18  21
BRANCH  18  23
HETATM   23  C   UNL     1      44.084  -9.138  10.130  1.00  0.00    -0.006 A 
HETATM   24  C   UNL     1      44.386 -10.448  10.497  1.00  0.00     0.126 A 
HETATM   25  N   UNL     1      43.893 -11.074  11.587  1.00  0.00    -0.272 NA
HETATM   26  C   UNL     1      43.128 -10.350  12.426  1.00  0.00     0.116 A 
HETATM   27  C   UNL     1      42.818  -9.023  12.206  1.00  0.00     0.020 A 
HETATM   28  C   UNL     1      43.305  -8.415  11.050  1.00  0.00     0.013 A 
ENDBRANCH  18  23
ENDBRANCH  13  14
ENDBRANCH  10  13
BRANCH   1  29
HETATM   29  C   UNL     1      41.862 -16.591   4.167  1.00  0.00     0.236 C 
BRANCH  29  30
HETATM   30  C   UNL     1      42.087 -16.900   5.651  1.00  0.00     0.039 C 
BRANCH  30  31
HETATM   31  C   UNL     1      43.451 -17.539   5.980  1.00  0.00     0.040 C 
HETATM   32  C   UNL     1      44.627 -16.603   5.689  1.00  0.00     0.017 C 
BRANCH  31  33
HETATM   33  C   UNL     1      43.633 -18.857   5.314  1.00  0.00     0.057 A 
HETATM   34  O   UNL     1      43.648 -18.865   3.951  1.00  0.00    -0.319 OA
HETATM   35  C   UNL     1      43.858 -20.155   3.563  1.00  0.00     0.049 A 
HETATM   36  C   UNL     1      43.942 -20.417   2.111  1.00  0.00     0.076 C 
HETATM   37  C   UNL     1      43.967 -20.970   4.668  1.00  0.00     0.035 A 
HETATM   38  C   UNL     1      43.821 -20.133   5.799  1.00  0.00     0.035 A 
ENDBRANCH  31  33
ENDBRANCH  30  31
ENDBRANCH  29  30
ENDBRANCH   1  29
TORSDOF 8
ENDMDL
MODEL 2
REMARK VINA RESULT:      -9.6      1.570      2.084
REMARK  8 active torsions:
REMARK  status: ('A' for Active; 'I' for Inactive)
REMARK    1  A    between atoms: C_4  and  C_5 
REMARK    2  A    between atoms: C_5  and  C_6 
REMARK    3  A    between atoms: C_6  and  C_7 
REMARK    4  A    between atoms: C_7  and  N_8 
REMARK    5  A    between atoms: C_17  and  C_18 
REMARK    6  A    between atoms: C_18  and  N_19 
REMARK    7  A    between atoms: C_23  and  O_24 
REMARK    8  A    between atoms: C_23  and  C_25 
ROOT
HETATM    1  N   UNL     1      39.836 -14.447   1.181  1.00  0.00    -0.065 N 
HETATM    2  H   UNL     1      39.164 -15.212   1.036  1.00  0.00     0.280 HD
HETATM    3  C   UNL     1      39.271 -13.609   2.310  1.00  0.00     0.276 C 
HETATM    4  C   UNL     1      40.207 -12.552   2.831  1.00  0.00     0.001 A 
HETATM    5  C   UNL     1      40.570 -11.487   2.004  1.00  0.00     0.076 A 
HETATM    6  O   UNL     1      40.084 -11.400   0.729  1.00  0.00    -0.349 OA
HETATM    7  C   UNL     1      40.668 -12.401  -0.120  1.00  0.00     0.203 C 
HETATM    8  C   UNL     1      39.824 -13.681  -0.146  1.00  0.00     0.261 C 
HETATM    9  C   UNL     1      40.750 -12.610   4.127  1.00  0.00     0.020 A 
HETATM   10  C   UNL     1      41.641 -11.619   4.588  1.00  0.00    -0.032 A 
HETATM   11  C   UNL     1      41.946 -10.539   3.746  1.00  0.00     0.011 A 
HETATM   12  C   UNL     1      41.400 -10.469   2.462  1.00  0.00     0.038 A 
ENDROOT
BRANCH  10  13
HETATM   13  C   UNL     1      42.288 -11.736   5.947  1.00  0.00     0.273 C 
BRANCH  13  14
HETATM   14  N   UNL     1      43.158 -10.566   6.367  1.00  0.00    -0.067 N 
HETATM   15  H   UNL     1      43.470 -10.102   5.501  1.00  0.00     0.280 HD
HETATM   16  C   UNL     1      42.405  -9.536   7.174  1.00  0.00     0.238 C 
HETATM   17  C   UNL     1      43.339  -8.416   7.592  1.00  0.00     0.071 C 
HETATM   18  C   UNL     1      44.509  -8.936   8.450  1.00  0.00     0.089 C 
HETATM   19  C   UNL     1      45.270  -9.943   7.567  1.00  0.00     0.071 C 
HETATM   20  C   UNL     1      44.394 -11.083   7.072  1.00  0.00     0.238 C 
BRANCH  18  21
HETATM   21  O   UNL     1      45.390  -7.830   8.647  1.00  0.00    -0.385 OA
HETATM   22  H   UNL     1      44.928  -7.110   9.116  1.00  0.00     0.211 HD
ENDBRANCH  18  21
BRANCH  18  23
HETATM   23  C   UNL     1      44.060  -9.442   9.816  1.00  0.00    -0.006 A 
HETATM   24  C   UNL     1      44.400 -10.696  10.320  1.00  0.00     0.126 A 
HETATM   25  N   UNL     1      43.948 -11.205  11.486  1.00  0.00    -0.272 NA
HETATM   26  C   UNL     1      43.189 -10.406  12.260  1.00  0.00     0.116 A 
HETATM   27  C   UNL     1      42.843  -9.119  11.900  1.00  0.00     0.020 A 
HETATM   28  C   UNL     1      43.288  -8.636  10.670  1.00  0.00     0.013 A 
ENDBRANCH  18  23
ENDBRANCH  13  14
ENDBRANCH  10  13
BRANCH   1  29
HETATM   29  C   UNL     1      41.176 -15.119   1.459  1.00  0.00     0.236 C 
BRANCH  29  30
HETATM   30  C   UNL     1      41.075 -16.076   2.651  1.00  0.00     0.039 C 
BRANCH  30  31
HETATM   31  C   UNL     1      42.264 -16.015   3.631  1.00  0.00     0.040 C 
HETATM   32  C   UNL     1      43.198 -14.833   3.355  1.00  0.00     0.017 C 
BRANCH  31  33
HETATM   33  C   UNL     1      43.019 -17.296   3.685  1.00  0.00     0.057 A 
HETATM   34  O   UNL     1      42.824 -18.173   2.660  1.00  0.00    -0.319 OA
HETATM   35  C   UNL     1      43.630 -19.248   2.897  1.00  0.00     0.049 A 
HETATM   36  C   UNL     1      43.615 -20.336   1.897  1.00  0.00     0.076 C 
HETATM   37  C   UNL     1      44.329 -19.066   4.070  1.00  0.00     0.035 A 
HETATM   38  C   UNL     1      43.934 -17.807   4.580  1.00  0.00     0.035 A 
ENDBRANCH  31  33
ENDBRANCH  30  31
ENDBRANCH  29  30
ENDBRANCH   1  29
TORSDOF 8
ENDMDL
MODEL 3
REMARK VINA RESULT:      -9.6      3.587      9.444
REMARK  8 active torsions:
REMARK  status: ('A' for Active; 'I' for Inactive)
REMARK    1  A    between atoms: C_4  and  C_5 
REMARK    2  A    between atoms: C_5  and  C_6 
REMARK    3  A    between atoms: C_6  and  C_7 
REMARK    4  A    between atoms: C_7  and  N_8 
REMARK    5  A    between atoms: C_17  and  C_18 
REMARK    6  A    between atoms: C_18  and  N_19 
REMARK    7  A    between atoms: C_23  and  O_24 
REMARK    8  A    between atoms: C_23  and  C_25 
ROOT
HETATM    1  N   UNL     1      42.970 -16.258   6.464  1.00  0.00    -0.065 N 
HETATM    2  H   UNL     1      42.566 -16.264   7.410  1.00  0.00     0.280 HD
HETATM    3  C   UNL     1      41.791 -16.325   5.513  1.00  0.00     0.276 C 
HETATM    4  C   UNL     1      42.145 -16.111   4.066  1.00  0.00     0.001 A 
HETATM    5  C   UNL     1      42.940 -17.051   3.406  1.00  0.00     0.076 A 
HETATM    6  O   UNL     1      43.398 -18.157   4.065  1.00  0.00    -0.349 OA
HETATM    7  C   UNL     1      44.411 -17.811   5.022  1.00  0.00     0.203 C 
HETATM    8  C   UNL     1      43.809 -17.537   6.406  1.00  0.00     0.261 C 
HETATM    9  C   UNL     1      41.716 -14.977   3.353  1.00  0.00     0.020 A 
HETATM   10  C   UNL     1      42.075 -14.787   2.003  1.00  0.00    -0.032 A 
HETATM   11  C   UNL     1      42.836 -15.776   1.360  1.00  0.00     0.011 A 
HETATM   12  C   UNL     1      43.255 -16.909   2.059  1.00  0.00     0.038 A 
ENDROOT
BRANCH  10  13
HETATM   13  C   UNL     1      41.685 -13.525   1.272  1.00  0.00     0.273 C 
BRANCH  13  14
HETATM   14  N   UNL     1      41.111 -13.719  -0.119  1.00  0.00    -0.067 N 
HETATM   15  H   UNL     1      41.678 -14.449  -0.576  1.00  0.00     0.280 HD
HETATM   16  C   UNL     1      39.684 -14.213  -0.101  1.00  0.00     0.238 C 
HETATM   17  C   UNL     1      39.161 -14.348  -1.519  1.00  0.00     0.071 C 
HETATM   18  C   UNL     1      39.195 -13.004  -2.273  1.00  0.00     0.089 C 
HETATM   19  C   UNL     1      40.672 -12.570  -2.305  1.00  0.00     0.071 C 
HETATM   20  C   UNL     1      41.288 -12.446  -0.921  1.00  0.00     0.238 C 
BRANCH  18  21
HETATM   21  O   UNL     1      38.831 -13.288  -3.623  1.00  0.00    -0.385 OA
HETATM   22  H   UNL     1      38.230 -14.057  -3.657  1.00  0.00     0.211 HD
ENDBRANCH  18  21
BRANCH  18  23
HETATM   23  C   UNL     1      38.205 -11.989  -1.712  1.00  0.00    -0.006 A 
HETATM   24  C   UNL     1      38.125 -11.663  -0.359  1.00  0.00     0.126 A 
HETATM   25  N   UNL     1      37.205 -10.834   0.179  1.00  0.00    -0.272 NA
HETATM   26  C   UNL     1      36.364 -10.207  -0.665  1.00  0.00     0.116 A 
HETATM   27  C   UNL     1      36.393 -10.395  -2.033  1.00  0.00     0.020 A 
HETATM   28  C   UNL     1      37.325 -11.290  -2.556  1.00  0.00     0.013 A 
ENDBRANCH  18  23
ENDBRANCH  13  14
ENDBRANCH  10  13
BRANCH   1  29
HETATM   29  C   UNL     1      43.818 -14.994   6.382  1.00  0.00     0.236 C 
BRANCH  29  30
HETATM   30  C   UNL     1      43.202 -13.862   7.211  1.00  0.00     0.039 C 
BRANCH  30  31
HETATM   31  C   UNL     1      43.310 -12.462   6.574  1.00  0.00     0.040 C 
HETATM   32  C   UNL     1      43.452 -12.515   5.050  1.00  0.00     0.017 C 
BRANCH  31  33
HETATM   33  C   UNL     1      44.391 -11.644   7.187  1.00  0.00     0.057 A 
HETATM   34  O   UNL     1      44.192 -11.211   8.464  1.00  0.00    -0.319 OA
HETATM   35  C   UNL     1      45.309 -10.519   8.828  1.00  0.00     0.049 A 
HETATM   36  C   UNL     1      45.343  -9.966  10.198  1.00  0.00     0.076 C 
HETATM   37  C   UNL     1      46.214 -10.499   7.790  1.00  0.00     0.035 A 
HETATM   38  C   UNL     1      45.622 -11.225   6.730  1.00  0.00     0.035 A 
ENDBRANCH  31  33
ENDBRANCH  30  31
ENDBRANCH  29  30
ENDBRANCH   1  29
TORSDOF 8
ENDMDL
MODEL 4
REMARK VINA RESULT:      -9.5      1.468      2.528
REMARK  8 active torsions:
REMARK  status: ('A' for Active; 'I' for Inactive)
REMARK    1  A    between atoms: C_4  and  C_5 
REMARK    2  A    between atoms: C_5  and  C_6 
REMARK    3  A    between atoms: C_6  and  C_7 
REMARK    4  A    between atoms: C_7  and  N_8 
REMARK    5  A    between atoms: C_17  and  C_18 
REMARK    6  A    between atoms: C_18  and  N_19 
REMARK    7  A    between atoms: C_23  and  O_24 
REMARK    8  A    between atoms: C_23  and  C_25 
ROOT
HETATM    1  N   UNL     1      40.381 -15.140   1.379  1.00  0.00    -0.065 N 
HETATM    2  H   UNL     1      39.742 -15.945   1.326  1.00  0.00     0.280 HD
HETATM    3  C   UNL     1      39.893 -14.302   2.543  1.00  0.00     0.276 C 
HETATM    4  C   UNL     1      40.817 -13.181   2.934  1.00  0.00     0.001 A 
HETATM    5  C   UNL     1      41.028 -12.122   2.048  1.00  0.00     0.076 A 
HETATM    6  O   UNL     1      40.404 -12.100   0.832  1.00  0.00    -0.349 OA
HETATM    7  C   UNL     1      40.949 -13.092  -0.052  1.00  0.00     0.203 C 
HETATM    8  C   UNL     1      40.182 -14.416   0.044  1.00  0.00     0.261 C 
HETATM    9  C   UNL     1      41.499 -13.171   4.164  1.00  0.00     0.020 A 
HETATM   10  C   UNL     1      42.376 -12.120   4.502  1.00  0.00    -0.032 A 
HETATM   11  C   UNL     1      42.527 -11.050   3.606  1.00  0.00     0.011 A 
HETATM   12  C   UNL     1      41.843 -11.048   2.389  1.00  0.00     0.038 A 
ENDROOT
BRANCH  10  13
HETATM   13  C   UNL     1      43.172 -12.162   5.785  1.00  0.00     0.273 C 
BRANCH  13  14
HETATM   14  N   UNL     1      43.722 -10.831   6.263  1.00  0.00    -0.067 N 
HETATM   15  H   UNL     1      44.088 -10.345   5.432  1.00  0.00     0.280 HD
HETATM   16  C   UNL     1      42.661  -9.941   6.866  1.00  0.00     0.238 C 
HETATM   17  C   UNL     1      43.284  -8.648   7.358  1.00  0.00     0.071 C 
HETATM   18  C   UNL     1      44.363  -8.902   8.428  1.00  0.00     0.089 C 
HETATM   19  C   UNL     1      45.440  -9.770   7.751  1.00  0.00     0.071 C 
HETATM   20  C   UNL     1      44.891 -11.074   7.195  1.00  0.00     0.238 C 
BRANCH  18  21
HETATM   21  O   UNL     1      44.974  -7.640   8.695  1.00  0.00    -0.385 OA
HETATM   22  H   UNL     1      45.273  -7.598   9.623  1.00  0.00     0.211 HD
ENDBRANCH  18  21
BRANCH  18  23
HETATM   23  C   UNL     1      43.784  -9.440   9.733  1.00  0.00    -0.006 A 
HETATM   24  C   UNL     1      42.561  -9.026  10.257  1.00  0.00     0.126 A 
HETATM   25  N   UNL     1      42.062  -9.419  11.449  1.00  0.00    -0.272 NA
HETATM   26  C   UNL     1      42.755 -10.347  12.136  1.00  0.00     0.116 A 
HETATM   27  C   UNL     1      43.945 -10.884  11.685  1.00  0.00     0.020 A 
HETATM   28  C   UNL     1      44.457 -10.427  10.472  1.00  0.00     0.013 A 
ENDBRANCH  18  23
ENDBRANCH  13  14
ENDBRANCH  10  13
BRANCH   1  29
HETATM   29  C   UNL     1      41.778 -15.730   1.525  1.00  0.00     0.236 C 
BRANCH  29  30
HETATM   30  C   UNL     1      41.739 -17.059   2.286  1.00  0.00     0.039 C 
BRANCH  30  31
HETATM   31  C   UNL     1      43.108 -17.552   2.798  1.00  0.00     0.040 C 
HETATM   32  C   UNL     1      43.461 -18.951   2.284  1.00  0.00     0.017 C 
BRANCH  31  33
HETATM   33  C   UNL     1      43.217 -17.479   4.280  1.00  0.00     0.057 A 
HETATM   34  O   UNL     1      42.550 -16.466   4.902  1.00  0.00    -0.319 OA
HETATM   35  C   UNL     1      42.762 -16.614   6.241  1.00  0.00     0.049 A 
HETATM   36  C   UNL     1      42.110 -15.636   7.137  1.00  0.00     0.076 C 
HETATM   37  C   UNL     1      43.567 -17.706   6.476  1.00  0.00     0.035 A 
HETATM   38  C   UNL     1      43.863 -18.265   5.211  1.00  0.00     0.035 A 
ENDBRANCH  31  33
ENDBRANCH  30  31
ENDBRANCH  29  30
ENDBRANCH   1  29
TORSDOF 8
ENDMDL
MODEL 5
REMARK VINA RESULT:      -9.2      4.398      8.812
REMARK  8 active torsions:
REMARK  status: ('A' for Active; 'I' for Inactive)
REMARK    1  A    between atoms: C_4  and  C_5 
REMARK    2  A    between atoms: C_5  and  C_6 
REMARK    3  A    between atoms: C_6  and  C_7 
REMARK    4  A    between atoms: C_7  and  N_8 
REMARK    5  A    between atoms: C_17  and  C_18 
REMARK    6  A    between atoms: C_18  and  N_19 
REMARK    7  A    between atoms: C_23  and  O_24 
REMARK    8  A    between atoms: C_23  and  C_25 
ROOT
HETATM    1  N   UNL     1      41.700 -15.159   4.635  1.00  0.00    -0.065 N 
HETATM    2  H   UNL     1      42.289 -15.991   4.776  1.00  0.00     0.280 HD
HETATM    3  C   UNL     1      42.651 -14.041   4.257  1.00  0.00     0.276 C 
HETATM    4  C   UNL     1      41.975 -12.779   3.795  1.00  0.00     0.001 A 
HETATM    5  C   UNL     1      41.205 -12.040   4.697  1.00  0.00     0.076 A 
HETATM    6  O   UNL     1      41.061 -12.457   5.990  1.00  0.00    -0.349 OA
HETATM    7  C   UNL     1      40.231 -13.627   6.070  1.00  0.00     0.203 C 
HETATM    8  C   UNL     1      41.062 -14.914   6.005  1.00  0.00     0.261 C 
HETATM    9  C   UNL     1      42.077 -12.322   2.469  1.00  0.00     0.020 A 
HETATM   10  C   UNL     1      41.419 -11.146   2.052  1.00  0.00    -0.032 A 
HETATM   11  C   UNL     1      40.693 -10.405   2.997  1.00  0.00     0.011 A 
HETATM   12  C   UNL     1      40.599 -10.847   4.318  1.00  0.00     0.038 A 
ENDROOT
BRANCH  10  13
HETATM   13  C   UNL     1      41.460 -10.712   0.606  1.00  0.00     0.273 C 
BRANCH  13  14
HETATM   14  N   UNL     1      40.983 -11.739  -0.405  1.00  0.00    -0.067 N 
HETATM   15  H   UNL     1      41.547 -12.588  -0.253  1.00  0.00     0.280 HD
HETATM   16  C   UNL     1      39.537 -12.125  -0.210  1.00  0.00     0.238 C 
HETATM   17  C   UNL     1      39.116 -13.122  -1.274  1.00  0.00     0.071 C 
HETATM   18  C   UNL     1      39.272 -12.544  -2.694  1.00  0.00     0.089 C 
HETATM   19  C   UNL     1      40.767 -12.212  -2.858  1.00  0.00     0.071 C 
HETATM   20  C   UNL     1      41.282 -11.244  -1.805  1.00  0.00     0.238 C 
BRANCH  18  21
HETATM   21  O   UNL     1      38.997 -13.614  -3.599  1.00  0.00    -0.385 OA
HETATM   22  H   UNL     1      39.145 -13.324  -4.519  1.00  0.00     0.211 HD
ENDBRANCH  18  21
BRANCH  18  23
HETATM   23  C   UNL     1      38.293 -11.410  -2.980  1.00  0.00    -0.006 A 
HETATM   24  C   UNL     1      36.935 -11.473  -2.672  1.00  0.00     0.126 A 
HETATM   25  N   UNL     1      36.030 -10.523  -2.989  1.00  0.00    -0.272 NA
HETATM   26  C   UNL     1      36.489  -9.394  -3.561  1.00  0.00     0.116 A 
HETATM   27  C   UNL     1      37.823  -9.186  -3.850  1.00  0.00     0.020 A 
HETATM   28  C   UNL     1      38.729 -10.203  -3.552  1.00  0.00     0.013 A 
ENDBRANCH  18  23
ENDBRANCH  13  14
ENDBRANCH  10  13
BRANCH   1  29
HETATM   29  C   UNL     1      40.679 -15.550   3.573  1.00  0.00     0.236 C 
BRANCH  29  30
HETATM   30  C   UNL     1      41.261 -16.583   2.602  1.00  0.00     0.039 C 
BRANCH  30  31
HETATM   31  C   UNL     1      42.790 -16.760   2.686  1.00  0.00     0.040 C 
HETATM   32  C   UNL     1      43.525 -16.104   1.513  1.00  0.00     0.017 C 
BRANCH  31  33
HETATM   33  C   UNL     1      43.187 -18.186   2.840  1.00  0.00     0.057 A 
HETATM   34  O   UNL     1      43.657 -18.569   4.061  1.00  0.00    -0.319 OA
HETATM   35  C   UNL     1      43.924 -19.904   3.982  1.00  0.00     0.049 A 
HETATM   36  C   UNL     1      44.427 -20.564   5.206  1.00  0.00     0.076 C 
HETATM   37  C   UNL     1      43.637 -20.371   2.719  1.00  0.00     0.035 A 
HETATM   38  C   UNL     1      43.162 -19.263   1.980  1.00  0.00     0.035 A 
ENDBRANCH  31  33
ENDBRANCH  30  31
ENDBRANCH  29  30
ENDBRANCH   1  29
TORSDOF 8
ENDMDL
MODEL 6
REMARK VINA RESULT:      -9.2      3.315      8.948
REMARK  8 active torsions:
REMARK  status: ('A' for Active; 'I' for Inactive)
REMARK    1  A    between atoms: C_4  and  C_5 
REMARK    2  A    between atoms: C_5  and  C_6 
REMARK    3  A    between atoms: C_6  and  C_7 
REMARK    4  A    between atoms: C_7  and  N_8 
REMARK    5  A    between atoms: C_17  and  C_18 
REMARK    6  A    between atoms: C_18  and  N_19 
REMARK    7  A    between atoms: C_23  and  O_24 
REMARK    8  A    between atoms: C_23  and  C_25 
ROOT
HETATM    1  N   UNL     1      42.379 -15.296   7.112  1.00  0.00    -0.065 N 
HETATM    2  H   UNL     1      42.037 -15.126   8.067  1.00  0.00     0.280 HD
HETATM    3  C   UNL     1      41.372 -16.233   6.475  1.00  0.00     0.276 C 
HETATM    4  C   UNL     1      41.565 -16.444   4.998  1.00  0.00     0.001 A 
HETATM    5  C   UNL     1      42.710 -17.101   4.541  1.00  0.00     0.076 A 
HETATM    6  O   UNL     1      43.653 -17.548   5.423  1.00  0.00    -0.349 OA
HETATM    7  C   UNL     1      44.380 -16.455   6.007  1.00  0.00     0.203 C 
HETATM    8  C   UNL     1      43.733 -15.982   7.315  1.00  0.00     0.261 C 
HETATM    9  C   UNL     1      40.634 -15.982   4.050  1.00  0.00     0.020 A 
HETATM   10  C   UNL     1      40.845 -16.174   2.669  1.00  0.00    -0.032 A 
HETATM   11  C   UNL     1      41.983 -16.879   2.250  1.00  0.00     0.011 A 
HETATM   12  C   UNL     1      42.905 -17.350   3.187  1.00  0.00     0.038 A 
ENDROOT
BRANCH  10  13
HETATM   13  C   UNL     1      39.885 -15.596   1.656  1.00  0.00     0.273 C 
BRANCH  13  14
HETATM   14  N   UNL     1      40.503 -14.698   0.600  1.00  0.00    -0.067 N 
HETATM   15  H   UNL     1      41.415 -15.112   0.356  1.00  0.00     0.280 HD
HETATM   16  C   UNL     1      39.688 -14.639  -0.669  1.00  0.00     0.238 C 
HETATM   17  C   UNL     1      40.340 -13.697  -1.664  1.00  0.00     0.071 C 
HETATM   18  C   UNL     1      40.461 -12.266  -1.104  1.00  0.00     0.089 C 
HETATM   19  C   UNL     1      41.338 -12.375   0.159  1.00  0.00     0.071 C 
HETATM   20  C   UNL     1      40.774 -13.332   1.196  1.00  0.00     0.238 C 
BRANCH  18  21
HETATM   21  O   UNL     1      41.220 -11.521  -2.056  1.00  0.00    -0.385 OA
HETATM   22  H   UNL     1      40.732 -10.719  -2.323  1.00  0.00     0.211 HD
ENDBRANCH  18  21
BRANCH  18  23
HETATM   23  C   UNL     1      39.108 -11.585  -0.929  1.00  0.00    -0.006 A 
HETATM   24  C   UNL     1      38.118 -11.585  -1.909  1.00  0.00     0.126 A 
HETATM   25  N   UNL     1      36.946 -10.921  -1.818  1.00  0.00    -0.272 NA
HETATM   26  C   UNL     1      36.678 -10.289  -0.659  1.00  0.00     0.116 A 
HETATM   27  C   UNL     1      37.551 -10.278   0.410  1.00  0.00     0.020 A 
HETATM   28  C   UNL     1      38.772 -10.936   0.271  1.00  0.00     0.013 A 
ENDBRANCH  18  23
ENDBRANCH  13  14
ENDBRANCH  10  13
BRANCH   1  29
HETATM   29  C   UNL     1      42.507 -13.922   6.467  1.00  0.00     0.236 C 
BRANCH  29  30
HETATM   30  C   UNL     1      43.612 -13.099   7.138  1.00  0.00     0.039 C 
BRANCH  30  31
HETATM   31  C   UNL     1      44.490 -12.282   6.168  1.00  0.00     0.040 C 
HETATM   32  C   UNL     1      45.368 -11.256   6.889  1.00  0.00     0.017 C 
BRANCH  31  33
HETATM   33  C   UNL     1      43.694 -11.643   5.086  1.00  0.00     0.057 A 
HETATM   34  O   UNL     1      42.894 -10.597   5.440  1.00  0.00    -0.319 OA
HETATM   35  C   UNL     1      42.293 -10.153   4.299  1.00  0.00     0.049 A 
HETATM   36  C   UNL     1      41.386  -8.992   4.424  1.00  0.00     0.076 C 
HETATM   37  C   UNL     1      42.695 -10.914   3.224  1.00  0.00     0.035 A 
HETATM   38  C   UNL     1      43.599 -11.876   3.731  1.00  0.00     0.035 A 
ENDBRANCH  31  33
ENDBRANCH  30  31
ENDBRANCH  29  30
ENDBRANCH   1  29
TORSDOF 8
ENDMDL
MODEL 7
REMARK VINA RESULT:      -9.2      2.413      7.443
REMARK  8 active torsions:
REMARK  status: ('A' for Active; 'I' for Inactive)
REMARK    1  A    between atoms: C_4  and  C_5 
REMARK    2  A    between atoms: C_5  and  C_6 
REMARK    3  A    between atoms: C_6  and  C_7 
REMARK    4  A    between atoms: C_7  and  N_8 
REMARK    5  A    between atoms: C_17  and  C_18 
REMARK    6  A    between atoms: C_18  and  N_19 
REMARK    7  A    between atoms: C_23  and  O_24 
REMARK    8  A    between atoms: C_23  and  C_25 
ROOT
HETATM    1  N   UNL     1      42.842 -15.375   6.745  1.00  0.00    -0.065 N 
HETATM    2  H   UNL     1      42.447 -15.143   7.665  1.00  0.00     0.280 HD
HETATM    3  C   UNL     1      41.722 -16.041   5.971  1.00  0.00     0.276 C 
HETATM    4  C   UNL     1      42.023 -16.270   4.514  1.00  0.00     0.001 A 
HETATM    5  C   UNL     1      43.027 -17.170   4.152  1.00  0.00     0.076 A 
HETATM    6  O   UNL     1      43.738 -17.838   5.109  1.00  0.00    -0.349 OA
HETATM    7  C   UNL     1      44.630 -16.955   5.808  1.00  0.00     0.203 C 
HETATM    8  C   UNL     1      43.970 -16.362   7.059  1.00  0.00     0.261 C 
HETATM    9  C   UNL     1      41.333 -15.590   3.495  1.00  0.00     0.020 A 
HETATM   10  C   UNL     1      41.644 -15.805   2.136  1.00  0.00    -0.032 A 
HETATM   11  C   UNL     1      42.627 -16.751   1.809  1.00  0.00     0.011 A 
HETATM   12  C   UNL     1      43.306 -17.439   2.817  1.00  0.00     0.038 A 
ENDROOT
BRANCH  10  13
HETATM   13  C   UNL     1      40.961 -15.005   1.053  1.00  0.00     0.273 C 
BRANCH  13  14
HETATM   14  N   UNL     1      41.202 -13.507   1.089  1.00  0.00    -0.067 N 
HETATM   15  H   UNL     1      41.664 -13.259   0.202  1.00  0.00     0.280 HD
HETATM   16  C   UNL     1      39.922 -12.709   1.161  1.00  0.00     0.238 C 
HETATM   17  C   UNL     1      40.235 -11.227   1.234  1.00  0.00     0.071 C 
HETATM   18  C   UNL     1      41.087 -10.881   2.471  1.00  0.00     0.089 C 
HETATM   19  C   UNL     1      42.396 -11.680   2.325  1.00  0.00     0.071 C 
HETATM   20  C   UNL     1      42.169 -13.179   2.208  1.00  0.00     0.238 C 
BRANCH  18  21
HETATM   21  O   UNL     1      41.443  -9.504   2.347  1.00  0.00    -0.385 OA
HETATM   22  H   UNL     1      41.701  -9.142   3.215  1.00  0.00     0.211 HD
ENDBRANCH  18  21
BRANCH  18  23
HETATM   23  C   UNL     1      40.327 -11.064   3.780  1.00  0.00    -0.006 A 
HETATM   24  C   UNL     1      39.210 -10.308   4.130  1.00  0.00     0.126 A 
HETATM   25  N   UNL     1      38.568 -10.387   5.316  1.00  0.00    -0.272 NA
HETATM   26  C   UNL     1      38.982 -11.329   6.184  1.00  0.00     0.116 A 
HETATM   27  C   UNL     1      40.033 -12.186   5.920  1.00  0.00     0.020 A 
HETATM   28  C   UNL     1      40.704 -12.051   4.706  1.00  0.00     0.013 A 
ENDBRANCH  18  23
ENDBRANCH  13  14
ENDBRANCH  10  13
BRANCH   1  29
HETATM   29  C   UNL     1      43.355 -14.060   6.171  1.00  0.00     0.236 C 
BRANCH  29  30
HETATM   30  C   UNL     1      43.586 -13.027   7.279  1.00  0.00     0.039 C 
BRANCH  30  31
HETATM   31  C   UNL     1      43.770 -11.578   6.785  1.00  0.00     0.040 C 
HETATM   32  C   UNL     1      44.459 -11.503   5.420  1.00  0.00     0.017 C 
BRANCH  31  33
HETATM   33  C   UNL     1      44.462 -10.722   7.786  1.00  0.00     0.057 A 
HETATM   34  O   UNL     1      43.808 -10.487   8.958  1.00  0.00    -0.319 OA
HETATM   35  C   UNL     1      44.632  -9.718   9.726  1.00  0.00     0.049 A 
HETATM   36  C   UNL     1      44.148  -9.349  11.072  1.00  0.00     0.076 C 
HETATM   37  C   UNL     1      45.802  -9.454   9.048  1.00  0.00     0.035 A 
HETATM   38  C   UNL     1      45.693 -10.101   7.795  1.00  0.00     0.035 A 
ENDBRANCH  31  33
ENDBRANCH  30  31
ENDBRANCH  29  30
ENDBRANCH   1  29
TORSDOF 8
ENDMDL
MODEL 8
REMARK VINA RESULT:      -8.9      3.356      6.292
REMARK  8 active torsions:
REMARK  status: ('A' for Active; 'I' for Inactive)
REMARK    1  A    between atoms: C_4  and  C_5 
REMARK    2  A    between atoms: C_5  and  C_6 
REMARK    3  A    between atoms: C_6  and  C_7 
REMARK    4  A    between atoms: C_7  and  N_8 
REMARK    5  A    between atoms: C_17  and  C_18 
REMARK    6  A    between atoms: C_18  and  N_19 
REMARK    7  A    between atoms: C_23  and  O_24 
REMARK    8  A    between atoms: C_23  and  C_25 
ROOT
HETATM    1  N   UNL     1      43.662 -11.286   6.405  1.00  0.00    -0.065 N 
HETATM    2  H   UNL     1      43.180 -11.332   5.497  1.00  0.00     0.280 HD
HETATM    3  C   UNL     1      43.193  -9.999   7.054  1.00  0.00     0.276 C 
HETATM    4  C   UNL     1      43.612  -9.837   8.490  1.00  0.00     0.001 A 
HETATM    5  C   UNL     1      44.966  -9.691   8.799  1.00  0.00     0.076 A 
HETATM    6  O   UNL     1      45.909  -9.698   7.810  1.00  0.00    -0.349 OA
HETATM    7  C   UNL     1      46.066 -11.010   7.248  1.00  0.00     0.203 C 
HETATM    8  C   UNL     1      45.147 -11.220   6.038  1.00  0.00     0.261 C 
HETATM    9  C   UNL     1      42.681  -9.847   9.544  1.00  0.00     0.020 A 
HETATM   10  C   UNL     1      43.097  -9.713  10.885  1.00  0.00    -0.032 A 
HETATM   11  C   UNL     1      44.461  -9.522  11.153  1.00  0.00     0.011 A 
HETATM   12  C   UNL     1      45.389  -9.499  10.110  1.00  0.00     0.038 A 
ENDROOT
BRANCH  10  13
HETATM   13  C   UNL     1      42.101  -9.815  12.015  1.00  0.00     0.273 C 
BRANCH  13  14
HETATM   14  N   UNL     1      42.455  -9.048  13.276  1.00  0.00    -0.067 N 
HETATM   15  H   UNL     1      43.224  -9.562  13.730  1.00  0.00     0.280 HD
HETATM   16  C   UNL     1      42.959  -7.653  12.992  1.00  0.00     0.238 C 
HETATM   17  C   UNL     1      43.256  -6.931  14.293  1.00  0.00     0.071 C 
HETATM   18  C   UNL     1      42.003  -6.817  15.184  1.00  0.00     0.089 C 
HETATM   19  C   UNL     1      41.559  -8.262  15.483  1.00  0.00     0.071 C 
HETATM   20  C   UNL     1      41.276  -9.070  14.227  1.00  0.00     0.238 C 
BRANCH  18  21
HETATM   21  O   UNL     1      42.439  -6.267  16.427  1.00  0.00    -0.385 OA
HETATM   22  H   UNL     1      43.144  -6.820  16.813  1.00  0.00     0.211 HD
ENDBRANCH  18  21
BRANCH  18  23
HETATM   23  C   UNL     1      40.943  -5.893  14.595  1.00  0.00    -0.006 A 
HETATM   24  C   UNL     1      41.245  -4.709  13.924  1.00  0.00     0.126 A 
HETATM   25  N   UNL     1      40.329  -3.829  13.467  1.00  0.00    -0.272 NA
HETATM   26  C   UNL     1      39.030  -4.166  13.587  1.00  0.00     0.116 A 
HETATM   27  C   UNL     1      38.610  -5.345  14.169  1.00  0.00     0.020 A 
HETATM   28  C   UNL     1      39.577  -6.214  14.671  1.00  0.00     0.013 A 
ENDBRANCH  18  23
ENDBRANCH  13  14
ENDBRANCH  10  13
BRANCH   1  29
HETATM   29  C   UNL     1      43.293 -12.571   7.136  1.00  0.00     0.236 C 
BRANCH  29  30
HETATM   30  C   UNL     1      43.769 -13.803   6.360  1.00  0.00     0.039 C 
BRANCH  30  31
HETATM   31  C   UNL     1      42.808 -15.008   6.407  1.00  0.00     0.040 C 
HETATM   32  C   UNL     1      42.889 -15.777   7.729  1.00  0.00     0.017 C 
BRANCH  31  33
HETATM   33  C   UNL     1      42.984 -15.918   5.243  1.00  0.00     0.057 A 
HETATM   34  O   UNL     1      43.036 -15.342   4.009  1.00  0.00    -0.319 OA
HETATM   35  C   UNL     1      43.232 -16.348   3.109  1.00  0.00     0.049 A 
HETATM   36  C   UNL     1      43.350 -15.965   1.686  1.00  0.00     0.076 C 
HETATM   37  C   UNL     1      43.295 -17.560   3.759  1.00  0.00     0.035 A 
HETATM   38  C   UNL     1      43.134 -17.284   5.137  1.00  0.00     0.035 A 
ENDBRANCH  31  33
ENDBRANCH  30  31
ENDBRANCH  29  30
ENDBRANCH   1  29
TORSDOF 8
ENDMDL
MODEL 9
REMARK VINA RESULT:      -8.9      2.662      9.799
REMARK  8 active torsions:
REMARK  status: ('A' for Active; 'I' for Inactive)
REMARK    1  A    between atoms: C_4  and  C_5 
REMARK    2  A    between atoms: C_5  and  C_6 
REMARK    3  A    between atoms: C_6  and  C_7 
REMARK    4  A    between atoms: C_7  and  N_8 
REMARK    5  A    between atoms: C_17  and  C_18 
REMARK    6  A    between atoms: C_18  and  N_19 
REMARK    7  A    between atoms: C_23  and  O_24 
REMARK    8  A    between atoms: C_23  and  C_25 
ROOT
HETATM    1  N   UNL     1      42.066  -8.626   9.822  1.00  0.00    -0.065 N 
HETATM    2  H   UNL     1      41.366  -8.606  10.575  1.00  0.00     0.280 HD
HETATM    3  C   UNL     1      42.979  -9.794  10.140  1.00  0.00     0.276 C 
HETATM    4  C   UNL     1      43.953 -10.138   9.046  1.00  0.00     0.001 A 
HETATM    5  C   UNL     1      44.961  -9.231   8.712  1.00  0.00     0.076 A 
HETATM    6  O   UNL     1      45.065  -8.036   9.367  1.00  0.00    -0.349 OA
HETATM    7  C   UNL     1      43.995  -7.149   9.005  1.00  0.00     0.203 C 
HETATM    8  C   UNL     1      42.800  -7.289   9.957  1.00  0.00     0.261 C 
HETATM    9  C   UNL     1      43.873 -11.346   8.329  1.00  0.00     0.020 A 
HETATM   10  C   UNL     1      44.785 -11.640   7.294  1.00  0.00    -0.032 A 
HETATM   11  C   UNL     1      45.812 -10.725   7.018  1.00  0.00     0.011 A 
HETATM   12  C   UNL     1      45.904  -9.531   7.735  1.00  0.00     0.038 A 
ENDROOT
BRANCH  10  13
HETATM   13  C   UNL     1      44.636 -12.897   6.470  1.00  0.00     0.273 C 
BRANCH  13  14
HETATM   14  N   UNL     1      43.245 -13.501   6.435  1.00  0.00    -0.067 N 
HETATM   15  H   UNL     1      42.644 -12.897   7.015  1.00  0.00     0.280 HD
HETATM   16  C   UNL     1      42.649 -13.520   5.048  1.00  0.00     0.238 C 
HETATM   17  C   UNL     1      41.279 -14.171   5.078  1.00  0.00     0.071 C 
HETATM   18  C   UNL     1      41.344 -15.622   5.593  1.00  0.00     0.089 C 
HETATM   19  C   UNL     1      41.912 -15.543   7.023  1.00  0.00     0.071 C 
HETATM   20  C   UNL     1      43.272 -14.868   7.087  1.00  0.00     0.238 C 
BRANCH  18  21
HETATM   21  O   UNL     1      39.994 -16.068   5.721  1.00  0.00    -0.385 OA
HETATM   22  H   UNL     1      39.394 -15.473   5.233  1.00  0.00     0.211 HD
ENDBRANCH  18  21
BRANCH  18  23
HETATM   23  C   UNL     1      42.069 -16.556   4.630  1.00  0.00    -0.006 A 
HETATM   24  C   UNL     1      43.081 -17.429   5.025  1.00  0.00     0.126 A 
HETATM   25  N   UNL     1      43.799 -18.205   4.184  1.00  0.00    -0.272 NA
HETATM   26  C   UNL     1      43.448 -18.202   2.884  1.00  0.00     0.116 A 
HETATM   27  C   UNL     1      42.416 -17.433   2.386  1.00  0.00     0.020 A 
HETATM   28  C   UNL     1      41.721 -16.608   3.269  1.00  0.00     0.013 A 
ENDBRANCH  18  23
ENDBRANCH  13  14
ENDBRANCH  10  13
BRANCH   1  29
HETATM   29  C   UNL     1      41.276  -8.735   8.524  1.00  0.00     0.236 C 
BRANCH  29  30
HETATM   30  C   UNL     1      39.981  -9.527   8.730  1.00  0.00     0.039 C 
BRANCH  30  31
HETATM   31  C   UNL     1      39.038  -8.955   9.808  1.00  0.00     0.040 C 
HETATM   32  C   UNL     1      38.784  -7.455   9.633  1.00  0.00     0.017 C 
BRANCH  31  33
HETATM   33  C   UNL     1      39.500  -9.266  11.187  1.00  0.00     0.057 A 
HETATM   34  O   UNL     1      39.985  -8.229  11.926  1.00  0.00    -0.319 OA
HETATM   35  C   UNL     1      40.314  -8.733  13.150  1.00  0.00     0.049 A 
HETATM   36  C   UNL     1      40.845  -7.782  14.150  1.00  0.00     0.076 C 
HETATM   37  C   UNL     1      40.051 -10.084  13.193  1.00  0.00     0.035 A 
HETATM   38  C   UNL     1      39.526 -10.429  11.926  1.00  0.00     0.035 A 
ENDBRANCH  31  33
ENDBRANCH  30  31
ENDBRANCH  29  30
ENDBRANCH   1  29
TORSDOF 8
ENDMDL
MODEL 10
REMARK VINA RESULT:      -8.9      4.158      8.335
REMARK  8 active torsions:
REMARK  status: ('A' for Active; 'I' for Inactive)
REMARK    1  A    between atoms: C_4  and  C_5 
REMARK    2  A    between atoms: C_5  and  C_6 
REMARK    3  A    between atoms: C_6  and  C_7 
REMARK    4  A    between atoms: C_7  and  N_8 
REMARK    5  A    between atoms: C_17  and  C_18 
REMARK    6  A    between atoms: C_18  and  N_19 
REMARK    7  A    between atoms: C_23  and  O_24 
REMARK    8  A    between atoms: C_23  and  C_25 
ROOT
HETATM    1  N   UNL     1      42.914 -13.873   4.984  1.00  0.00    -0.065 N 
HETATM    2  H   UNL     1      43.876 -13.911   5.345  1.00  0.00     0.280 HD
HETATM    3  C   UNL     1      42.973 -13.000   3.747  1.00  0.00     0.276 C 
HETATM    4  C   UNL     1      41.705 -12.984   2.935  1.00  0.00     0.001 A 
HETATM    5  C   UNL     1      40.548 -12.421   3.477  1.00  0.00     0.076 A 
HETATM    6  O   UNL     1      40.559 -11.888   4.736  1.00  0.00    -0.349 OA
HETATM    7  C   UNL     1      40.659 -12.915   5.735  1.00  0.00     0.203 C 
HETATM    8  C   UNL     1      42.119 -13.200   6.107  1.00  0.00     0.261 C 
HETATM    9  C   UNL     1      41.639 -13.540   1.645  1.00  0.00     0.020 A 
HETATM   10  C   UNL     1      40.436 -13.532   0.910  1.00  0.00    -0.032 A 
HETATM   11  C   UNL     1      39.306 -12.916   1.468  1.00  0.00     0.011 A 
HETATM   12  C   UNL     1      39.369 -12.351   2.743  1.00  0.00     0.038 A 
ENDROOT
BRANCH  10  13
HETATM   13  C   UNL     1      40.352 -14.211  -0.437  1.00  0.00     0.273 C 
BRANCH  13  14
HETATM   14  N   UNL     1      39.889 -13.336  -1.588  1.00  0.00    -0.067 N 
HETATM   15  H   UNL     1      40.258 -13.761  -2.451  1.00  0.00     0.280 HD
HETATM   16  C   UNL     1      38.386 -13.291  -1.722  1.00  0.00     0.238 C 
HETATM   17  C   UNL     1      37.992 -12.371  -2.862  1.00  0.00     0.071 C 
HETATM   18  C   UNL     1      38.497 -10.932  -2.639  1.00  0.00     0.089 C 
HETATM   19  C   UNL     1      40.033 -11.027  -2.557  1.00  0.00     0.071 C 
HETATM   20  C   UNL     1      40.514 -11.962  -1.459  1.00  0.00     0.238 C 
BRANCH  18  21
HETATM   21  O   UNL     1      38.203 -10.209  -3.834  1.00  0.00    -0.385 OA
HETATM   22  H   UNL     1      37.239 -10.175  -3.980  1.00  0.00     0.211 HD
ENDBRANCH  18  21
BRANCH  18  23
HETATM   23  C   UNL     1      37.801 -10.237  -1.474  1.00  0.00    -0.006 A 
HETATM   24  C   UNL     1      36.416 -10.117  -1.370  1.00  0.00     0.126 A 
HETATM   25  N   UNL     1      35.775  -9.435  -0.397  1.00  0.00    -0.272 NA
HETATM   26  C   UNL     1      36.523  -8.912   0.593  1.00  0.00     0.116 A 
HETATM   27  C   UNL     1      37.899  -9.027   0.636  1.00  0.00     0.020 A 
HETATM   28  C   UNL     1      38.538  -9.699  -0.405  1.00  0.00     0.013 A 
ENDBRANCH  18  23
ENDBRANCH  13  14
ENDBRANCH  10  13
BRANCH   1  29
HETATM   29  C   UNL     1      42.499 -15.321   4.757  1.00  0.00     0.236 C 
BRANCH  29  30
HETATM   30  C   UNL     1      43.540 -16.068   3.916  1.00  0.00     0.039 C 
BRANCH  30  31
HETATM   31  C   UNL     1      42.956 -16.937   2.784  1.00  0.00     0.040 C 
HETATM   32  C   UNL     1      41.446 -16.743   2.611  1.00  0.00     0.017 C 
BRANCH  31  33
HETATM   33  C   UNL     1      43.299 -18.376   2.941  1.00  0.00     0.057 A 
HETATM   34  O   UNL     1      43.737 -18.778   4.168  1.00  0.00    -0.319 OA
HETATM   35  C   UNL     1      43.958 -20.121   4.090  1.00  0.00     0.049 A 
HETATM   36  C   UNL     1      44.419 -20.801   5.319  1.00  0.00     0.076 C 
HETATM   37  C   UNL     1      43.674 -20.576   2.821  1.00  0.00     0.035 A 
HETATM   38  C   UNL     1      43.249 -19.450   2.078  1.00  0.00     0.035 A 
ENDBRANCH  31  33
ENDBRANCH  30  31
ENDBRANCH  29  30
ENDBRANCH   1  29
TORSDOF 8
ENDMDL
