MODEL 1
REMARK VINA RESULT:     -10.4      0.000      0.000
REMARK  6 active torsions:
REMARK  status: ('A' for Active; 'I' for Inactive)
REMARK    1  A    between atoms: C_8  and  C_9 
REMARK    2  A    between atoms: C_9  and  C_10 
REMARK    3  A    between atoms: C_10  and  N_11 
REMARK       I    between atoms: N_11  and  C_12 
REMARK    4  A    between atoms: C_12  and  C_13 
REMARK    5  A    between atoms: C_18  and  C_19 
REMARK    6  A    between atoms: C_29  and  C_30 
ROOT
HETATM    1  C   UNL     1      43.352 -11.918   6.886  1.00  0.00     0.148 A 
HETATM    2  N   UNL     1      44.313 -11.623   7.790  1.00  0.00    -0.165 NA
HETATM    3  N   UNL     1      44.065 -10.338   8.106  1.00  0.00    -0.240 N 
HETATM    4  C   UNL     1      43.018  -9.791   7.420  1.00  0.00     0.123 A 
HETATM    5  N   UNL     1      42.656  -8.501   7.577  1.00  0.00    -0.366 N 
HETATM    6  C   UNL     1      43.293  -7.623   8.547  1.00  0.00     0.118 C 
HETATM    7  C   UNL     1      44.728  -8.086   8.855  1.00  0.00     0.066 C 
HETATM    8  C   UNL     1      44.900  -9.607   9.039  1.00  0.00     0.221 C 
HETATM    9  C   UNL     1      42.522 -10.793   6.630  1.00  0.00     0.088 A 
HETATM   10  H   UNL     1      41.800  -8.143   7.156  1.00  0.00     0.161 HD
ENDROOT
BRANCH   1  11
HETATM   11  C   UNL     1      43.221 -13.247   6.267  1.00  0.00     0.272 C 
HETATM   12  N   UNL     1      43.165 -14.284   7.172  1.00  0.00    -0.355 N 
HETATM   13  H   UNL     1      43.022 -14.001   8.141  1.00  0.00     0.162 HD
HETATM   14  O   UNL     1      43.147 -13.405   5.051  1.00  0.00    -0.266 OA
BRANCH  12  15
HETATM   15  C   UNL     1      42.836 -15.627   6.746  1.00  0.00     0.127 C 
BRANCH  15  16
HETATM   16  C   UNL     1      44.040 -16.410   6.222  1.00  0.00     0.060 C 
BRANCH  16  17
HETATM   17  C   UNL     1      43.806 -17.016   4.872  1.00  0.00    -0.029 A 
HETATM   18  C   UNL     1      43.847 -18.405   4.528  1.00  0.00    -0.002 A 
HETATM   19  C   UNL     1      44.092 -19.590   5.251  1.00  0.00     0.014 A 
HETATM   20  C   UNL     1      43.576 -18.504   3.162  1.00  0.00     0.042 A 
HETATM   21  C   UNL     1      44.057 -20.822   4.587  1.00  0.00     0.001 A 
HETATM   22  C   UNL     1      43.784 -20.887   3.223  1.00  0.00     0.002 A 
HETATM   23  C   UNL     1      43.538 -19.728   2.482  1.00  0.00     0.030 A 
HETATM   24  N   UNL     1      43.375 -17.227   2.695  1.00  0.00    -0.365 N 
HETATM   25  H   UNL     1      43.156 -16.998   1.736  1.00  0.00     0.165 HD
HETATM   26  C   UNL     1      43.514 -16.323   3.712  1.00  0.00     0.096 A 
ENDBRANCH  16  17
ENDBRANCH  15  16
ENDBRANCH  12  15
ENDBRANCH   1  11
BRANCH   8  27
HETATM   27  C   UNL     1      44.662 -10.081  10.454  1.00  0.00     0.409 C 
HETATM   28  F   UNL     1      45.665 -10.871  10.901  1.00  0.00    -0.169 F 
HETATM   29  F   UNL     1      44.620  -9.016  11.299  1.00  0.00    -0.169 F 
HETATM   30  F   UNL     1      43.510 -10.757  10.616  1.00  0.00    -0.169 F 
ENDBRANCH   8  27
BRANCH   6  31
HETATM   31  C   UNL     1      42.417  -7.361   9.761  1.00  0.00    -0.033 A 
HETATM   32  C   UNL     1      41.369  -8.259  10.046  1.00  0.00     0.049 A 
HETATM   33  C   UNL     1      40.601  -8.046  11.173  1.00  0.00     0.105 A 
HETATM   34  C   UNL     1      40.823  -6.981  12.011  1.00  0.00     0.105 A 
HETATM   35  O   UNL     1      39.574  -8.831  11.593  1.00  0.00    -0.323 OA
HETATM   36  O   UNL     1      39.962  -6.957  13.062  1.00  0.00    -0.323 OA
HETATM   37  C   UNL     1      41.828  -6.073  11.770  1.00  0.00     0.040 A 
HETATM   38  C   UNL     1      39.185  -8.143  12.800  1.00  0.00     0.352 A 
HETATM   39  C   UNL     1      42.632  -6.273  10.641  1.00  0.00     0.012 A 
ENDBRANCH   6  31
TORSDOF 6
ENDMDL
MODEL 2
REMARK VINA RESULT:     -10.4      3.284     10.597
REMARK  6 active torsions:
REMARK  status: ('A' for Active; 'I' for Inactive)
REMARK    1  A    between atoms: C_8  and  C_9 
REMARK    2  A    between atoms: C_9  and  C_10 
REMARK    3  A    between atoms: C_10  and  N_11 
REMARK       I    between atoms: N_11  and  C_12 
REMARK    4  A    between atoms: C_12  and  C_13 
REMARK    5  A    between atoms: C_18  and  C_19 
REMARK    6  A    between atoms: C_29  and  C_30 
ROOT
HETATM    1  C   UNL     1      42.698 -11.551   6.239  1.00  0.00     0.148 A 
HETATM    2  N   UNL     1      41.544 -12.256   6.240  1.00  0.00    -0.165 NA
HETATM    3  N   UNL     1      41.705 -13.127   5.226  1.00  0.00    -0.240 N 
HETATM    4  C   UNL     1      42.889 -12.987   4.558  1.00  0.00     0.123 A 
HETATM    5  N   UNL     1      43.200 -13.745   3.487  1.00  0.00    -0.366 N 
HETATM    6  C   UNL     1      42.343 -14.824   3.018  1.00  0.00     0.118 C 
HETATM    7  C   UNL     1      40.877 -14.580   3.417  1.00  0.00     0.066 C 
HETATM    8  C   UNL     1      40.665 -14.067   4.855  1.00  0.00     0.221 C 
HETATM    9  C   UNL     1      43.564 -11.983   5.198  1.00  0.00     0.088 A 
HETATM   10  H   UNL     1      44.132 -13.716   3.078  1.00  0.00     0.161 HD
ENDROOT
BRANCH   1  11
HETATM   11  C   UNL     1      42.978 -10.480   7.208  1.00  0.00     0.272 C 
HETATM   12  N   UNL     1      44.302 -10.391   7.578  1.00  0.00    -0.355 N 
HETATM   13  H   UNL     1      44.946 -10.931   7.003  1.00  0.00     0.162 HD
HETATM   14  O   UNL     1      42.106  -9.724   7.626  1.00  0.00    -0.266 OA
BRANCH  12  15
HETATM   15  C   UNL     1      44.782  -9.273   8.362  1.00  0.00     0.127 C 
BRANCH  15  16
HETATM   16  C   UNL     1      45.346  -9.683   9.723  1.00  0.00     0.060 C 
BRANCH  16  17
HETATM   17  C   UNL     1      44.283  -9.940  10.747  1.00  0.00    -0.029 A 
HETATM   18  C   UNL     1      43.360  -8.991  11.293  1.00  0.00    -0.002 A 
HETATM   19  C   UNL     1      43.128  -7.616  11.089  1.00  0.00     0.014 A 
HETATM   20  C   UNL     1      42.561  -9.669  12.215  1.00  0.00     0.042 A 
HETATM   21  C   UNL     1      42.115  -6.973  11.810  1.00  0.00     0.001 A 
HETATM   22  C   UNL     1      41.336  -7.679  12.724  1.00  0.00     0.002 A 
HETATM   23  C   UNL     1      41.544  -9.042  12.945  1.00  0.00     0.030 A 
HETATM   24  N   UNL     1      42.980 -10.979  12.228  1.00  0.00    -0.365 N 
HETATM   25  H   UNL     1      42.575 -11.702  12.805  1.00  0.00     0.165 HD
HETATM   26  C   UNL     1      44.017 -11.154  11.353  1.00  0.00     0.096 A 
ENDBRANCH  16  17
ENDBRANCH  15  16
ENDBRANCH  12  15
ENDBRANCH   1  11
BRANCH   8  27
HETATM   27  C   UNL     1      40.549 -15.168   5.884  1.00  0.00     0.409 C 
HETATM   28  F   UNL     1      39.535 -14.947   6.752  1.00  0.00    -0.169 F 
HETATM   29  F   UNL     1      40.265 -16.348   5.270  1.00  0.00    -0.169 F 
HETATM   30  F   UNL     1      41.666 -15.360   6.607  1.00  0.00    -0.169 F 
ENDBRANCH   8  27
BRANCH   6  31
HETATM   31  C   UNL     1      42.893 -16.199   3.362  1.00  0.00    -0.033 A 
HETATM   32  C   UNL     1      42.619 -17.274   2.494  1.00  0.00     0.049 A 
HETATM   33  C   UNL     1      43.154 -18.513   2.784  1.00  0.00     0.105 A 
HETATM   34  C   UNL     1      43.932 -18.725   3.895  1.00  0.00     0.105 A 
HETATM   35  O   UNL     1      43.000 -19.638   2.037  1.00  0.00    -0.323 OA
HETATM   36  O   UNL     1      44.362 -20.010   3.993  1.00  0.00    -0.323 OA
HETATM   37  C   UNL     1      44.220 -17.708   4.776  1.00  0.00     0.040 A 
HETATM   38  C   UNL     1      43.782 -20.579   2.802  1.00  0.00     0.352 A 
HETATM   39  C   UNL     1      43.702 -16.437   4.500  1.00  0.00     0.012 A 
ENDBRANCH   6  31
TORSDOF 6
ENDMDL
MODEL 3
REMARK VINA RESULT:     -10.2      4.110     10.664
REMARK  6 active torsions:
REMARK  status: ('A' for Active; 'I' for Inactive)
REMARK    1  A    between atoms: C_8  and  C_9 
REMARK    2  A    between atoms: C_9  and  C_10 
REMARK    3  A    between atoms: C_10  and  N_11 
REMARK       I    between atoms: N_11  and  C_12 
REMARK    4  A    between atoms: C_12  and  C_13 
REMARK    5  A    between atoms: C_18  and  C_19 
REMARK    6  A    between atoms: C_29  and  C_30 
ROOT
HETATM    1  C   UNL     1      40.318 -12.426   5.447  1.00  0.00     0.148 A 
HETATM    2  N   UNL     1      39.872 -12.992   4.303  1.00  0.00    -0.165 NA
HETATM    3  N   UNL     1      40.949 -13.651   3.836  1.00  0.00    -0.240 N 
HETATM    4  C   UNL     1      42.067 -13.503   4.608  1.00  0.00     0.123 A 
HETATM    5  N   UNL     1      43.249 -14.057   4.269  1.00  0.00    -0.366 N 
HETATM    6  C   UNL     1      43.403 -14.923   3.109  1.00  0.00     0.118 C 
HETATM    7  C   UNL     1      42.337 -14.613   2.042  1.00  0.00     0.066 C 
HETATM    8  C   UNL     1      40.913 -14.383   2.585  1.00  0.00     0.221 C 
HETATM    9  C   UNL     1      41.690 -12.726   5.669  1.00  0.00     0.088 A 
HETATM   10  H   UNL     1      44.038 -14.043   4.913  1.00  0.00     0.161 HD
ENDROOT
BRANCH   1  11
HETATM   11  C   UNL     1      39.459 -11.609   6.318  1.00  0.00     0.272 C 
HETATM   12  N   UNL     1      40.147 -10.691   7.082  1.00  0.00    -0.355 N 
HETATM   13  H   UNL     1      41.120 -10.552   6.814  1.00  0.00     0.162 HD
HETATM   14  O   UNL     1      38.237 -11.726   6.340  1.00  0.00    -0.266 OA
BRANCH  12  15
HETATM   15  C   UNL     1      39.444  -9.676   7.838  1.00  0.00     0.127 C 
BRANCH  15  16
HETATM   16  C   UNL     1      40.369  -8.615   8.436  1.00  0.00     0.060 C 
BRANCH  16  17
HETATM   17  C   UNL     1      41.281  -9.158   9.492  1.00  0.00    -0.029 A 
HETATM   18  C   UNL     1      42.711  -9.224   9.452  1.00  0.00    -0.002 A 
HETATM   19  C   UNL     1      43.686  -8.842   8.509  1.00  0.00     0.014 A 
HETATM   20  C   UNL     1      43.136  -9.810  10.646  1.00  0.00     0.042 A 
HETATM   21  C   UNL     1      45.040  -9.057   8.791  1.00  0.00     0.001 A 
HETATM   22  C   UNL     1      45.431  -9.644   9.991  1.00  0.00     0.002 A 
HETATM   23  C   UNL     1      44.486 -10.033  10.944  1.00  0.00     0.030 A 
HETATM   24  N   UNL     1      42.010 -10.086  11.385  1.00  0.00    -0.365 N 
HETATM   25  H   UNL     1      42.018 -10.512  12.300  1.00  0.00     0.165 HD
HETATM   26  C   UNL     1      40.889  -9.703  10.701  1.00  0.00     0.096 A 
ENDBRANCH  16  17
ENDBRANCH  15  16
ENDBRANCH  12  15
ENDBRANCH   1  11
BRANCH   8  27
HETATM   27  C   UNL     1      40.104 -15.652   2.731  1.00  0.00     0.409 C 
HETATM   28  F   UNL     1      38.785 -15.440   2.519  1.00  0.00    -0.169 F 
HETATM   29  F   UNL     1      40.492 -16.559   1.796  1.00  0.00    -0.169 F 
HETATM   30  F   UNL     1      40.232 -16.245   3.931  1.00  0.00    -0.169 F 
ENDBRANCH   8  27
BRANCH   6  31
HETATM   31  C   UNL     1      43.540 -16.388   3.488  1.00  0.00    -0.033 A 
HETATM   32  C   UNL     1      43.436 -17.362   2.476  1.00  0.00     0.049 A 
HETATM   33  C   UNL     1      43.603 -18.690   2.813  1.00  0.00     0.105 A 
HETATM   34  C   UNL     1      43.855 -19.084   4.104  1.00  0.00     0.105 A 
HETATM   35  O   UNL     1      43.554 -19.740   1.951  1.00  0.00    -0.323 OA
HETATM   36  O   UNL     1      43.991 -20.431   4.221  1.00  0.00    -0.323 OA
HETATM   37  C   UNL     1      43.956 -18.171   5.128  1.00  0.00     0.040 A 
HETATM   38  C   UNL     1      43.817 -20.839   2.848  1.00  0.00     0.352 A 
HETATM   39  C   UNL     1      43.805 -16.816   4.812  1.00  0.00     0.012 A 
ENDBRANCH   6  31
TORSDOF 6
ENDMDL
MODEL 4
REMARK VINA RESULT:     -10.1      1.639      2.113
REMARK  6 active torsions:
REMARK  status: ('A' for Active; 'I' for Inactive)
REMARK    1  A    between atoms: C_8  and  C_9 
REMARK    2  A    between atoms: C_9  and  C_10 
REMARK    3  A    between atoms: C_10  and  N_11 
REMARK       I    between atoms: N_11  and  C_12 
REMARK    4  A    between atoms: C_12  and  C_13 
REMARK    5  A    between atoms: C_18  and  C_19 
REMARK    6  A    between atoms: C_29  and  C_30 
ROOT
HETATM    1  C   UNL     1      43.479 -10.804   5.679  1.00  0.00     0.148 A 
HETATM    2  N   UNL     1      44.531 -10.545   6.488  1.00  0.00    -0.165 NA
HETATM    3  N   UNL     1      44.045  -9.641   7.359  1.00  0.00    -0.240 N 
HETATM    4  C   UNL     1      42.747  -9.286   7.120  1.00  0.00     0.123 A 
HETATM    5  N   UNL     1      42.111  -8.359   7.866  1.00  0.00    -0.366 N 
HETATM    6  C   UNL     1      42.725  -7.735   9.029  1.00  0.00     0.118 C 
HETATM    7  C   UNL     1      44.260  -7.745   8.916  1.00  0.00     0.066 C 
HETATM    8  C   UNL     1      44.872  -9.062   8.399  1.00  0.00     0.221 C 
HETATM    9  C   UNL     1      42.344 -10.032   6.047  1.00  0.00     0.088 A 
HETATM   10  H   UNL     1      41.112  -8.196   7.758  1.00  0.00     0.161 HD
ENDROOT
BRANCH   1  11
HETATM   11  C   UNL     1      43.547 -11.767   4.568  1.00  0.00     0.272 C 
HETATM   12  N   UNL     1      43.021 -13.005   4.867  1.00  0.00    -0.355 N 
HETATM   13  H   UNL     1      42.481 -13.046   5.730  1.00  0.00     0.162 HD
HETATM   14  O   UNL     1      44.012 -11.477   3.470  1.00  0.00    -0.266 OA
BRANCH  12  15
HETATM   15  C   UNL     1      42.825 -13.999   3.834  1.00  0.00     0.127 C 
BRANCH  15  16
HETATM   16  C   UNL     1      41.921 -15.154   4.266  1.00  0.00     0.060 C 
BRANCH  16  17
HETATM   17  C   UNL     1      42.685 -16.371   4.691  1.00  0.00    -0.029 A 
HETATM   18  C   UNL     1      43.003 -17.516   3.892  1.00  0.00    -0.002 A 
HETATM   19  C   UNL     1      42.750 -17.883   2.555  1.00  0.00     0.014 A 
HETATM   20  C   UNL     1      43.717 -18.403   4.700  1.00  0.00     0.042 A 
HETATM   21  C   UNL     1      43.215 -19.114   2.078  1.00  0.00     0.001 A 
HETATM   22  C   UNL     1      43.924 -19.976   2.910  1.00  0.00     0.002 A 
HETATM   23  C   UNL     1      44.190 -19.638   4.239  1.00  0.00     0.030 A 
HETATM   24  N   UNL     1      43.832 -17.819   5.939  1.00  0.00    -0.365 N 
HETATM   25  H   UNL     1      44.306 -18.238   6.726  1.00  0.00     0.165 HD
HETATM   26  C   UNL     1      43.212 -16.600   5.948  1.00  0.00     0.096 A 
ENDBRANCH  16  17
ENDBRANCH  15  16
ENDBRANCH  12  15
ENDBRANCH   1  11
BRANCH   8  27
HETATM   27  C   UNL     1      45.150 -10.074   9.487  1.00  0.00     0.409 C 
HETATM   28  F   UNL     1      44.069 -10.843   9.753  1.00  0.00    -0.169 F 
HETATM   29  F   UNL     1      46.127 -10.929   9.085  1.00  0.00    -0.169 F 
HETATM   30  F   UNL     1      45.555  -9.529  10.647  1.00  0.00    -0.169 F 
ENDBRANCH   8  27
BRANCH   6  31
HETATM   31  C   UNL     1      42.164  -8.263  10.339  1.00  0.00    -0.033 A 
HETATM   32  C   UNL     1      41.033  -9.102  10.302  1.00  0.00     0.049 A 
HETATM   33  C   UNL     1      40.550  -9.616  11.488  1.00  0.00     0.105 A 
HETATM   34  C   UNL     1      41.132  -9.323  12.697  1.00  0.00     0.105 A 
HETATM   35  O   UNL     1      39.485 -10.453  11.615  1.00  0.00    -0.323 OA
HETATM   36  O   UNL     1      40.508  -9.934  13.738  1.00  0.00    -0.323 OA
HETATM   37  C   UNL     1      42.233  -8.503  12.784  1.00  0.00     0.040 A 
HETATM   38  C   UNL     1      39.476 -10.663  13.043  1.00  0.00     0.352 A 
HETATM   39  C   UNL     1      42.753  -7.978  11.596  1.00  0.00     0.012 A 
ENDBRANCH   6  31
TORSDOF 6
ENDMDL
MODEL 5
REMARK VINA RESULT:      -9.8      6.519     10.134
REMARK  6 active torsions:
REMARK  status: ('A' for Active; 'I' for Inactive)
REMARK    1  A    between atoms: C_8  and  C_9 
REMARK    2  A    between atoms: C_9  and  C_10 
REMARK    3  A    between atoms: C_10  and  N_11 
REMARK       I    between atoms: N_11  and  C_12 
REMARK    4  A    between atoms: C_12  and  C_13 
REMARK    5  A    between atoms: C_18  and  C_19 
REMARK    6  A    between atoms: C_29  and  C_30 
ROOT
HETATM    1  C   UNL     1      40.735 -10.881   1.015  1.00  0.00     0.148 A 
HETATM    2  N   UNL     1      41.369 -10.810   2.207  1.00  0.00    -0.165 NA
HETATM    3  N   UNL     1      41.156 -12.023   2.751  1.00  0.00    -0.240 N 
HETATM    4  C   UNL     1      40.388 -12.848   1.980  1.00  0.00     0.123 A 
HETATM    5  N   UNL     1      40.037 -14.085   2.388  1.00  0.00    -0.366 N 
HETATM    6  C   UNL     1      40.519 -14.665   3.633  1.00  0.00     0.118 C 
HETATM    7  C   UNL     1      40.881 -13.568   4.651  1.00  0.00     0.066 C 
HETATM    8  C   UNL     1      41.650 -12.364   4.071  1.00  0.00     0.221 C 
HETATM    9  C   UNL     1      40.109 -12.146   0.840  1.00  0.00     0.088 A 
HETATM   10  H   UNL     1      39.572 -14.733   1.754  1.00  0.00     0.161 HD
ENDROOT
BRANCH   1  11
HETATM   11  C   UNL     1      40.718  -9.768   0.054  1.00  0.00     0.272 C 
HETATM   12  N   UNL     1      41.519  -9.966  -1.049  1.00  0.00    -0.355 N 
HETATM   13  H   UNL     1      41.864 -10.918  -1.164  1.00  0.00     0.162 HD
HETATM   14  O   UNL     1      40.029  -8.764   0.218  1.00  0.00    -0.266 OA
BRANCH  12  15
HETATM   15  C   UNL     1      41.463  -9.066  -2.181  1.00  0.00     0.127 C 
BRANCH  15  16
HETATM   16  C   UNL     1      40.949  -9.729  -3.459  1.00  0.00     0.060 C 
BRANCH  16  17
HETATM   17  C   UNL     1      39.705 -10.536  -3.243  1.00  0.00    -0.029 A 
HETATM   18  C   UNL     1      39.621 -11.937  -2.962  1.00  0.00    -0.002 A 
HETATM   19  C   UNL     1      40.570 -12.966  -2.798  1.00  0.00     0.014 A 
HETATM   20  C   UNL     1      38.267 -12.258  -2.845  1.00  0.00     0.042 A 
HETATM   21  C   UNL     1      40.136 -14.268  -2.525  1.00  0.00     0.001 A 
HETATM   22  C   UNL     1      38.777 -14.555  -2.415  1.00  0.00     0.002 A 
HETATM   23  C   UNL     1      37.815 -13.555  -2.573  1.00  0.00     0.030 A 
HETATM   24  N   UNL     1      37.557 -11.098  -3.043  1.00  0.00    -0.365 N 
HETATM   25  H   UNL     1      36.549 -11.033  -3.013  1.00  0.00     0.165 HD
HETATM   26  C   UNL     1      38.409 -10.056  -3.288  1.00  0.00     0.096 A 
ENDBRANCH  16  17
ENDBRANCH  15  16
ENDBRANCH  12  15
ENDBRANCH   1  11
BRANCH   8  27
HETATM   27  C   UNL     1      43.149 -12.552   4.049  1.00  0.00     0.409 C 
HETATM   28  F   UNL     1      43.810 -11.390   4.258  1.00  0.00    -0.169 F 
HETATM   29  F   UNL     1      43.527 -13.383   5.057  1.00  0.00    -0.169 F 
HETATM   30  F   UNL     1      43.615 -13.084   2.905  1.00  0.00    -0.169 F 
ENDBRANCH   8  27
BRANCH   6  31
HETATM   31  C   UNL     1      41.585 -15.724   3.410  1.00  0.00    -0.033 A 
HETATM   32  C   UNL     1      42.120 -16.392   4.529  1.00  0.00     0.049 A 
HETATM   33  C   UNL     1      43.057 -17.385   4.323  1.00  0.00     0.105 A 
HETATM   34  C   UNL     1      43.487 -17.727   3.064  1.00  0.00     0.105 A 
HETATM   35  O   UNL     1      43.648 -18.132   5.293  1.00  0.00    -0.323 OA
HETATM   36  O   UNL     1      44.405 -18.729   3.082  1.00  0.00    -0.323 OA
HETATM   37  C   UNL     1      43.000 -17.097   1.943  1.00  0.00     0.040 A 
HETATM   38  C   UNL     1      44.488 -18.993   4.497  1.00  0.00     0.352 A 
HETATM   39  C   UNL     1      42.038 -16.096   2.120  1.00  0.00     0.012 A 
ENDBRANCH   6  31
TORSDOF 6
ENDMDL
MODEL 6
REMARK VINA RESULT:      -9.7      1.784      2.524
REMARK  6 active torsions:
REMARK  status: ('A' for Active; 'I' for Inactive)
REMARK    1  A    between atoms: C_8  and  C_9 
REMARK    2  A    between atoms: C_9  and  C_10 
REMARK    3  A    between atoms: C_10  and  N_11 
REMARK       I    between atoms: N_11  and  C_12 
REMARK    4  A    between atoms: C_12  and  C_13 
REMARK    5  A    between atoms: C_18  and  C_19 
REMARK    6  A    between atoms: C_29  and  C_30 
ROOT
HETATM    1  C   UNL     1      43.963 -10.851   8.274  1.00  0.00     0.148 A 
HETATM    2  N   UNL     1      44.155 -10.893   9.612  1.00  0.00    -0.165 NA
HETATM    3  N   UNL     1      43.669  -9.712  10.038  1.00  0.00    -0.240 N 
HETATM    4  C   UNL     1      43.212  -8.907   9.033  1.00  0.00     0.123 A 
HETATM    5  N   UNL     1      42.732  -7.669   9.271  1.00  0.00    -0.366 N 
HETATM    6  C   UNL     1      42.582  -7.133  10.616  1.00  0.00     0.118 C 
HETATM    7  C   UNL     1      43.569  -7.802  11.591  1.00  0.00     0.066 C 
HETATM    8  C   UNL     1      43.710  -9.329  11.435  1.00  0.00     0.221 C 
HETATM    9  C   UNL     1      43.374  -9.620   7.877  1.00  0.00     0.088 A 
HETATM   10  H   UNL     1      42.281  -7.131   8.533  1.00  0.00     0.161 HD
ENDROOT
BRANCH   1  11
HETATM   11  C   UNL     1      44.336 -11.960   7.381  1.00  0.00     0.272 C 
HETATM   12  N   UNL     1      43.423 -12.992   7.358  1.00  0.00    -0.355 N 
HETATM   13  H   UNL     1      42.527 -12.783   7.796  1.00  0.00     0.162 HD
HETATM   14  O   UNL     1      45.359 -11.946   6.704  1.00  0.00    -0.266 OA
BRANCH  12  15
HETATM   15  C   UNL     1      43.533 -14.061   6.389  1.00  0.00     0.127 C 
BRANCH  15  16
HETATM   16  C   UNL     1      42.314 -14.983   6.360  1.00  0.00     0.060 C 
BRANCH  16  17
HETATM   17  C   UNL     1      42.105 -15.640   5.031  1.00  0.00    -0.029 A 
HETATM   18  C   UNL     1      42.846 -16.734   4.480  1.00  0.00    -0.002 A 
HETATM   19  C   UNL     1      43.927 -17.517   4.934  1.00  0.00     0.014 A 
HETATM   20  C   UNL     1      42.310 -17.010   3.221  1.00  0.00     0.042 A 
HETATM   21  C   UNL     1      44.429 -18.539   4.119  1.00  0.00     0.001 A 
HETATM   22  C   UNL     1      43.871 -18.788   2.868  1.00  0.00     0.002 A 
HETATM   23  C   UNL     1      42.800 -18.027   2.393  1.00  0.00     0.030 A 
HETATM   24  N   UNL     1      41.282 -16.122   3.015  1.00  0.00    -0.365 N 
HETATM   25  H   UNL     1      40.710 -16.092   2.183  1.00  0.00     0.165 HD
HETATM   26  C   UNL     1      41.150 -15.290   4.094  1.00  0.00     0.096 A 
ENDBRANCH  16  17
ENDBRANCH  15  16
ENDBRANCH  12  15
ENDBRANCH   1  11
BRANCH   8  27
HETATM   27  C   UNL     1      42.701 -10.119  12.236  1.00  0.00     0.409 C 
HETATM   28  F   UNL     1      41.584 -10.388  11.521  1.00  0.00    -0.169 F 
HETATM   29  F   UNL     1      43.225 -11.326  12.580  1.00  0.00    -0.169 F 
HETATM   30  F   UNL     1      42.318  -9.517  13.376  1.00  0.00    -0.169 F 
ENDBRANCH   8  27
BRANCH   6  31
HETATM   31  C   UNL     1      41.134  -7.101  11.074  1.00  0.00    -0.033 A 
HETATM   32  C   UNL     1      40.817  -6.427  12.270  1.00  0.00     0.049 A 
HETATM   33  C   UNL     1      39.496  -6.360  12.663  1.00  0.00     0.105 A 
HETATM   34  C   UNL     1      38.490  -6.940  11.930  1.00  0.00     0.105 A 
HETATM   35  O   UNL     1      39.029  -5.731  13.775  1.00  0.00    -0.323 OA
HETATM   36  O   UNL     1      37.265  -6.755  12.487  1.00  0.00    -0.323 OA
HETATM   37  C   UNL     1      38.751  -7.616  10.761  1.00  0.00     0.040 A 
HETATM   38  C   UNL     1      37.613  -5.972  13.647  1.00  0.00     0.352 A 
HETATM   39  C   UNL     1      40.081  -7.688  10.330  1.00  0.00     0.012 A 
ENDBRANCH   6  31
TORSDOF 6
ENDMDL
MODEL 7
REMARK VINA RESULT:      -9.7      1.179      1.769
REMARK  6 active torsions:
REMARK  status: ('A' for Active; 'I' for Inactive)
REMARK    1  A    between atoms: C_8  and  C_9 
REMARK    2  A    between atoms: C_9  and  C_10 
REMARK    3  A    between atoms: C_10  and  N_11 
REMARK       I    between atoms: N_11  and  C_12 
REMARK    4  A    between atoms: C_12  and  C_13 
REMARK    5  A    between atoms: C_18  and  C_19 
REMARK    6  A    between atoms: C_29  and  C_30 
ROOT
HETATM    1  C   UNL     1      42.946 -11.352   6.725  1.00  0.00     0.148 A 
HETATM    2  N   UNL     1      43.937 -11.136   7.621  1.00  0.00    -0.165 NA
HETATM    3  N   UNL     1      43.728  -9.869   8.024  1.00  0.00    -0.240 N 
HETATM    4  C   UNL     1      42.677  -9.256   7.402  1.00  0.00     0.123 A 
HETATM    5  N   UNL     1      42.350  -7.971   7.650  1.00  0.00    -0.366 N 
HETATM    6  C   UNL     1      43.032  -7.171   8.656  1.00  0.00     0.118 C 
HETATM    7  C   UNL     1      44.463  -7.685   8.896  1.00  0.00     0.066 C 
HETATM    8  C   UNL     1      44.604  -9.218   8.979  1.00  0.00     0.221 C 
HETATM    9  C   UNL     1      42.138 -10.194   6.564  1.00  0.00     0.088 A 
HETATM   10  H   UNL     1      41.493  -7.567   7.275  1.00  0.00     0.161 HD
ENDROOT
BRANCH   1  11
HETATM   11  C   UNL     1      42.768 -12.635   6.028  1.00  0.00     0.272 C 
HETATM   12  N   UNL     1      41.459 -12.927   5.717  1.00  0.00    -0.355 N 
HETATM   13  H   UNL     1      40.808 -12.150   5.824  1.00  0.00     0.162 HD
HETATM   14  O   UNL     1      43.712 -13.363   5.733  1.00  0.00    -0.266 OA
BRANCH  12  15
HETATM   15  C   UNL     1      41.129 -14.044   4.858  1.00  0.00     0.127 C 
BRANCH  15  16
HETATM   16  C   UNL     1      40.786 -15.320   5.627  1.00  0.00     0.060 C 
BRANCH  16  17
HETATM   17  C   UNL     1      41.929 -16.286   5.703  1.00  0.00    -0.029 A 
HETATM   18  C   UNL     1      42.540 -16.992   4.618  1.00  0.00    -0.002 A 
HETATM   19  C   UNL     1      42.323 -17.034   3.226  1.00  0.00     0.014 A 
HETATM   20  C   UNL     1      43.558 -17.782   5.155  1.00  0.00     0.042 A 
HETATM   21  C   UNL     1      43.123 -17.859   2.427  1.00  0.00     0.001 A 
HETATM   22  C   UNL     1      44.130 -18.636   2.994  1.00  0.00     0.002 A 
HETATM   23  C   UNL     1      44.368 -18.613   4.371  1.00  0.00     0.030 A 
HETATM   24  N   UNL     1      43.568 -17.563   6.512  1.00  0.00    -0.365 N 
HETATM   25  H   UNL     1      44.208 -18.005   7.157  1.00  0.00     0.165 HD
HETATM   26  C   UNL     1      42.591 -16.669   6.855  1.00  0.00     0.096 A 
ENDBRANCH  16  17
ENDBRANCH  15  16
ENDBRANCH  12  15
ENDBRANCH   1  11
BRANCH   8  27
HETATM   27  C   UNL     1      44.389  -9.776  10.367  1.00  0.00     0.409 C 
HETATM   28  F   UNL     1      45.357 -10.654  10.716  1.00  0.00    -0.169 F 
HETATM   29  F   UNL     1      44.447  -8.772  11.283  1.00  0.00    -0.169 F 
HETATM   30  F   UNL     1      43.205 -10.391  10.531  1.00  0.00    -0.169 F 
ENDBRANCH   8  27
BRANCH   6  31
HETATM   31  C   UNL     1      42.194  -6.967   9.907  1.00  0.00    -0.033 A 
HETATM   32  C   UNL     1      41.073  -7.796  10.112  1.00  0.00     0.049 A 
HETATM   33  C   UNL     1      40.337  -7.640  11.270  1.00  0.00     0.105 A 
HETATM   34  C   UNL     1      40.660  -6.697  12.214  1.00  0.00     0.105 A 
HETATM   35  O   UNL     1      39.247  -8.373  11.621  1.00  0.00    -0.323 OA
HETATM   36  O   UNL     1      39.814  -6.713  13.277  1.00  0.00    -0.323 OA
HETATM   37  C   UNL     1      41.740  -5.860  12.054  1.00  0.00     0.040 A 
HETATM   38  C   UNL     1      38.931  -7.790  12.903  1.00  0.00     0.352 A 
HETATM   39  C   UNL     1      42.513  -6.005  10.896  1.00  0.00     0.012 A 
ENDBRANCH   6  31
TORSDOF 6
ENDMDL
MODEL 8
REMARK VINA RESULT:      -9.7      4.094     10.870
REMARK  6 active torsions:
REMARK  status: ('A' for Active; 'I' for Inactive)
REMARK    1  A    between atoms: C_8  and  C_9 
REMARK    2  A    between atoms: C_9  and  C_10 
REMARK    3  A    between atoms: C_10  and  N_11 
REMARK       I    between atoms: N_11  and  C_12 
REMARK    4  A    between atoms: C_12  and  C_13 
REMARK    5  A    between atoms: C_18  and  C_19 
REMARK    6  A    between atoms: C_29  and  C_30 
ROOT
HETATM    1  C   UNL     1      40.429 -12.342   5.411  1.00  0.00     0.148 A 
HETATM    2  N   UNL     1      39.892 -12.846   4.277  1.00  0.00    -0.165 NA
HETATM    3  N   UNL     1      40.923 -13.490   3.698  1.00  0.00    -0.240 N 
HETATM    4  C   UNL     1      42.097 -13.388   4.389  1.00  0.00     0.123 A 
HETATM    5  N   UNL     1      43.244 -13.934   3.935  1.00  0.00    -0.366 N 
HETATM    6  C   UNL     1      43.301 -14.742   2.725  1.00  0.00     0.118 C 
HETATM    7  C   UNL     1      42.161 -14.371   1.759  1.00  0.00     0.066 C 
HETATM    8  C   UNL     1      40.784 -14.158   2.419  1.00  0.00     0.221 C 
HETATM    9  C   UNL     1      41.810 -12.663   5.513  1.00  0.00     0.088 A 
HETATM   10  H   UNL     1      44.079 -13.958   4.517  1.00  0.00     0.161 HD
ENDROOT
BRANCH   1  11
HETATM   11  C   UNL     1      39.648 -11.563   6.384  1.00  0.00     0.272 C 
HETATM   12  N   UNL     1      40.401 -10.689   7.137  1.00  0.00    -0.355 N 
HETATM   13  H   UNL     1      41.353 -10.544   6.803  1.00  0.00     0.162 HD
HETATM   14  O   UNL     1      38.430 -11.673   6.493  1.00  0.00    -0.266 OA
BRANCH  12  15
HETATM   15  C   UNL     1      39.769  -9.709   7.994  1.00  0.00     0.127 C 
BRANCH  15  16
HETATM   16  C   UNL     1      40.727  -8.624   8.485  1.00  0.00     0.060 C 
BRANCH  16  17
HETATM   17  C   UNL     1      41.578  -9.068   9.635  1.00  0.00    -0.029 A 
HETATM   18  C   UNL     1      41.236  -9.046  11.025  1.00  0.00    -0.002 A 
HETATM   19  C   UNL     1      40.095  -8.647  11.750  1.00  0.00     0.014 A 
HETATM   20  C   UNL     1      42.332  -9.544  11.732  1.00  0.00     0.042 A 
HETATM   21  C   UNL     1      40.091  -8.759  13.145  1.00  0.00     0.001 A 
HETATM   22  C   UNL     1      41.201  -9.259  13.821  1.00  0.00     0.002 A 
HETATM   23  C   UNL     1      42.344  -9.662  13.128  1.00  0.00     0.030 A 
HETATM   24  N   UNL     1      43.300  -9.859  10.810  1.00  0.00    -0.365 N 
HETATM   25  H   UNL     1      44.205 -10.245  11.040  1.00  0.00     0.165 HD
HETATM   26  C   UNL     1      42.862  -9.574   9.546  1.00  0.00     0.096 A 
ENDBRANCH  16  17
ENDBRANCH  15  16
ENDBRANCH  12  15
ENDBRANCH   1  11
BRANCH   8  27
HETATM   27  C   UNL     1      39.975 -15.426   2.563  1.00  0.00     0.409 C 
HETATM   28  F   UNL     1      38.644 -15.181   2.568  1.00  0.00    -0.169 F 
HETATM   29  F   UNL     1      40.201 -16.244   1.500  1.00  0.00    -0.169 F 
HETATM   30  F   UNL     1      40.261 -16.133   3.671  1.00  0.00    -0.169 F 
ENDBRANCH   8  27
BRANCH   6  31
HETATM   31  C   UNL     1      43.449 -16.225   3.021  1.00  0.00    -0.033 A 
HETATM   32  C   UNL     1      43.667 -16.631   4.352  1.00  0.00     0.049 A 
HETATM   33  C   UNL     1      43.758 -17.981   4.626  1.00  0.00     0.105 A 
HETATM   34  C   UNL     1      43.655 -18.931   3.640  1.00  0.00     0.105 A 
HETATM   35  O   UNL     1      43.944 -18.530   5.856  1.00  0.00    -0.323 OA
HETATM   36  O   UNL     1      43.768 -20.196   4.121  1.00  0.00    -0.323 OA
HETATM   37  C   UNL     1      43.452 -18.582   2.325  1.00  0.00     0.040 A 
HETATM   38  C   UNL     1      43.933 -19.935   5.530  1.00  0.00     0.352 A 
HETATM   39  C   UNL     1      43.341 -17.221   2.019  1.00  0.00     0.012 A 
ENDBRANCH   6  31
TORSDOF 6
ENDMDL
MODEL 9
REMARK VINA RESULT:      -9.6      4.102     10.300
REMARK  6 active torsions:
REMARK  status: ('A' for Active; 'I' for Inactive)
REMARK    1  A    between atoms: C_8  and  C_9 
REMARK    2  A    between atoms: C_9  and  C_10 
REMARK    3  A    between atoms: C_10  and  N_11 
REMARK       I    between atoms: N_11  and  C_12 
REMARK    4  A    between atoms: C_12  and  C_13 
REMARK    5  A    between atoms: C_18  and  C_19 
REMARK    6  A    between atoms: C_29  and  C_30 
ROOT
HETATM    1  C   UNL     1      41.699 -11.159   3.867  1.00  0.00     0.148 A 
HETATM    2  N   UNL     1      40.764 -11.924   3.260  1.00  0.00    -0.165 NA
HETATM    3  N   UNL     1      41.477 -12.943   2.744  1.00  0.00    -0.240 N 
HETATM    4  C   UNL     1      42.822 -12.844   2.962  1.00  0.00     0.123 A 
HETATM    5  N   UNL     1      43.694 -13.753   2.479  1.00  0.00    -0.366 N 
HETATM    6  C   UNL     1      43.264 -14.948   1.768  1.00  0.00     0.118 C 
HETATM    7  C   UNL     1      41.893 -14.733   1.102  1.00  0.00     0.066 C 
HETATM    8  C   UNL     1      40.851 -13.997   1.969  1.00  0.00     0.221 C 
HETATM    9  C   UNL     1      43.000 -11.706   3.700  1.00  0.00     0.088 A 
HETATM   10  H   UNL     1      44.675 -13.735   2.753  1.00  0.00     0.161 HD
ENDROOT
BRANCH   1  11
HETATM   11  C   UNL     1      41.367  -9.923   4.593  1.00  0.00     0.272 C 
HETATM   12  N   UNL     1      40.675 -10.131   5.766  1.00  0.00    -0.355 N 
HETATM   13  H   UNL     1      40.650 -11.098   6.085  1.00  0.00     0.162 HD
HETATM   14  O   UNL     1      41.702  -8.812   4.193  1.00  0.00    -0.266 OA
BRANCH  12  15
HETATM   15  C   UNL     1      40.448  -9.047   6.698  1.00  0.00     0.127 C 
BRANCH  15  16
HETATM   16  C   UNL     1      40.976  -9.334   8.103  1.00  0.00     0.060 C 
BRANCH  16  17
HETATM   17  C   UNL     1      42.402  -8.915   8.292  1.00  0.00    -0.029 A 
HETATM   18  C   UNL     1      43.576  -9.671   7.972  1.00  0.00    -0.002 A 
HETATM   19  C   UNL     1      43.803 -10.947   7.418  1.00  0.00     0.014 A 
HETATM   20  C   UNL     1      44.681  -8.893   8.322  1.00  0.00     0.042 A 
HETATM   21  C   UNL     1      45.116 -11.396   7.235  1.00  0.00     0.001 A 
HETATM   22  C   UNL     1      46.197 -10.595   7.596  1.00  0.00     0.002 A 
HETATM   23  C   UNL     1      46.001  -9.326   8.147  1.00  0.00     0.030 A 
HETATM   24  N   UNL     1      44.200  -7.710   8.831  1.00  0.00    -0.365 N 
HETATM   25  H   UNL     1      44.780  -6.953   9.163  1.00  0.00     0.165 HD
HETATM   26  C   UNL     1      42.832  -7.712   8.822  1.00  0.00     0.096 A 
ENDBRANCH  16  17
ENDBRANCH  15  16
ENDBRANCH  12  15
ENDBRANCH   1  11
BRANCH   8  27
HETATM   27  C   UNL     1      40.046 -14.912   2.862  1.00  0.00     0.409 C 
HETATM   28  F   UNL     1      38.748 -14.537   2.935  1.00  0.00    -0.169 F 
HETATM   29  F   UNL     1      40.042 -16.172   2.352  1.00  0.00    -0.169 F 
HETATM   30  F   UNL     1      40.515 -14.997   4.120  1.00  0.00    -0.169 F 
ENDBRANCH   8  27
BRANCH   6  31
HETATM   31  C   UNL     1      43.390 -16.206   2.611  1.00  0.00    -0.033 A 
HETATM   32  C   UNL     1      43.389 -17.457   1.963  1.00  0.00     0.049 A 
HETATM   33  C   UNL     1      43.547 -18.598   2.725  1.00  0.00     0.105 A 
HETATM   34  C   UNL     1      43.691 -18.545   4.089  1.00  0.00     0.105 A 
HETATM   35  O   UNL     1      43.589 -19.870   2.248  1.00  0.00    -0.323 OA
HETATM   36  O   UNL     1      43.837 -19.775   4.646  1.00  0.00    -0.323 OA
HETATM   37  C   UNL     1      43.689 -17.347   4.767  1.00  0.00     0.040 A 
HETATM   38  C   UNL     1      43.790 -20.610   3.471  1.00  0.00     0.352 A 
HETATM   39  C   UNL     1      43.545 -16.173   4.018  1.00  0.00     0.012 A 
ENDBRANCH   6  31
TORSDOF 6
ENDMDL
MODEL 10
REMARK VINA RESULT:      -9.6      8.068     10.245
REMARK  6 active torsions:
REMARK  status: ('A' for Active; 'I' for Inactive)
REMARK    1  A    between atoms: C_8  and  C_9 
REMARK    2  A    between atoms: C_9  and  C_10 
REMARK    3  A    between atoms: C_10  and  N_11 
REMARK       I    between atoms: N_11  and  C_12 
REMARK    4  A    between atoms: C_12  and  C_13 
REMARK    5  A    between atoms: C_18  and  C_19 
REMARK    6  A    between atoms: C_29  and  C_30 
ROOT
HETATM    1  C   UNL     1      39.709 -12.928   1.011  1.00  0.00     0.148 A 
HETATM    2  N   UNL     1      39.879 -13.297  -0.279  1.00  0.00    -0.165 NA
HETATM    3  N   UNL     1      39.578 -12.181  -0.969  1.00  0.00    -0.240 N 
HETATM    4  C   UNL     1      39.190 -11.132  -0.183  1.00  0.00     0.123 A 
HETATM    5  N   UNL     1      38.809  -9.949  -0.707  1.00  0.00    -0.366 N 
HETATM    6  C   UNL     1      38.866  -9.671  -2.135  1.00  0.00     0.118 C 
HETATM    7  C   UNL     1      38.768 -10.970  -2.956  1.00  0.00     0.066 C 
HETATM    8  C   UNL     1      39.602 -12.150  -2.418  1.00  0.00     0.221 C 
HETATM    9  C   UNL     1      39.277 -11.577   1.108  1.00  0.00     0.088 A 
HETATM   10  H   UNL     1      38.644  -9.141  -0.110  1.00  0.00     0.161 HD
ENDROOT
BRANCH   1  11
HETATM   11  C   UNL     1      39.948 -13.842   2.139  1.00  0.00     0.272 C 
HETATM   12  N   UNL     1      40.689 -14.956   1.810  1.00  0.00    -0.355 N 
HETATM   13  H   UNL     1      41.142 -14.918   0.898  1.00  0.00     0.162 HD
HETATM   14  O   UNL     1      39.538 -13.613   3.273  1.00  0.00    -0.266 OA
BRANCH  12  15
HETATM   15  C   UNL     1      41.184 -15.850   2.836  1.00  0.00     0.127 C 
BRANCH  15  16
HETATM   16  C   UNL     1      42.679 -15.687   3.113  1.00  0.00     0.060 C 
BRANCH  16  17
HETATM   17  C   UNL     1      43.259 -16.827   3.893  1.00  0.00    -0.029 A 
HETATM   18  C   UNL     1      43.396 -18.187   3.468  1.00  0.00    -0.002 A 
HETATM   19  C   UNL     1      43.077 -18.884   2.285  1.00  0.00     0.014 A 
HETATM   20  C   UNL     1      43.980 -18.896   4.519  1.00  0.00     0.042 A 
HETATM   21  C   UNL     1      43.350 -20.254   2.196  1.00  0.00     0.001 A 
HETATM   22  C   UNL     1      43.933 -20.932   3.264  1.00  0.00     0.002 A 
HETATM   23  C   UNL     1      44.260 -20.266   4.447  1.00  0.00     0.030 A 
HETATM   24  N   UNL     1      44.193 -18.003   5.542  1.00  0.00    -0.365 N 
HETATM   25  H   UNL     1      44.609 -18.241   6.431  1.00  0.00     0.165 HD
HETATM   26  C   UNL     1      43.760 -16.756   5.180  1.00  0.00     0.096 A 
ENDBRANCH  16  17
ENDBRANCH  15  16
ENDBRANCH  12  15
ENDBRANCH   1  11
BRANCH   8  27
HETATM   27  C   UNL     1      41.024 -12.174  -2.930  1.00  0.00     0.409 C 
HETATM   28  F   UNL     1      41.411 -13.419  -3.293  1.00  0.00    -0.169 F 
HETATM   29  F   UNL     1      41.126 -11.410  -4.050  1.00  0.00    -0.169 F 
HETATM   30  F   UNL     1      41.928 -11.709  -2.051  1.00  0.00    -0.169 F 
ENDBRANCH   8  27
BRANCH   6  31
HETATM   31  C   UNL     1      40.017  -8.750  -2.505  1.00  0.00    -0.033 A 
HETATM   32  C   UNL     1      40.910  -8.344  -1.495  1.00  0.00     0.049 A 
HETATM   33  C   UNL     1      41.981  -7.543  -1.839  1.00  0.00     0.105 A 
HETATM   34  C   UNL     1      42.189  -7.126  -3.130  1.00  0.00     0.105 A 
HETATM   35  O   UNL     1      42.937  -7.087  -0.987  1.00  0.00    -0.323 OA
HETATM   36  O   UNL     1      43.298  -6.352  -3.256  1.00  0.00    -0.323 OA
HETATM   37  C   UNL     1      41.339  -7.489  -4.149  1.00  0.00     0.040 A 
HETATM   38  C   UNL     1      43.778  -6.347  -1.896  1.00  0.00     0.352 A 
HETATM   39  C   UNL     1      40.253  -8.313  -3.832  1.00  0.00     0.012 A 
ENDBRANCH   6  31
TORSDOF 6
ENDMDL
