MODEL 1
REMARK VINA RESULT:      -8.5      0.000      0.000
REMARK  3 active torsions:
REMARK  status: ('A' for Active; 'I' for Inactive)
REMARK    1  A    between atoms: C_3  and  O_4 
REMARK    2  A    between atoms: C_6  and  C_7 
REMARK    3  A    between atoms: N_8  and  N_9 
ROOT
HETATM    1  N   UNL     1      41.413 -13.545   5.526  1.00  0.00    -0.189 N 
HETATM    2  C   UNL     1      41.617 -13.886   4.181  1.00  0.00     0.298 A 
HETATM    3  O   UNL     1      41.305 -13.210   3.205  1.00  0.00    -0.264 OA
HETATM    4  C   UNL     1      42.209 -15.181   4.063  1.00  0.00     0.133 A 
HETATM    5  C   UNL     1      42.587 -15.943   5.129  1.00  0.00     0.103 A 
HETATM    6  N   UNL     1      42.464 -15.518   6.453  1.00  0.00    -0.239 NA
HETATM    7  C   UNL     1      41.904 -14.346   6.559  1.00  0.00     0.239 A 
HETATM    8  N   UNL     1      42.495 -15.884   2.926  1.00  0.00    -0.349 N 
HETATM    9  H   UNL     1      42.327 -15.554   1.984  1.00  0.00     0.166 HD
HETATM   10  C   UNL     1      43.032 -17.113   3.264  1.00  0.00     0.045 A 
HETATM   11  C   UNL     1      43.103 -17.170   4.663  1.00  0.00     0.024 A 
HETATM   12  C   UNL     1      43.458 -18.166   2.445  1.00  0.00     0.032 A 
HETATM   13  C   UNL     1      43.967 -19.308   3.075  1.00  0.00     0.026 A 
HETATM   14  C   UNL     1      44.047 -19.384   4.465  1.00  0.00     0.035 A 
HETATM   15 CL   UNL     1      44.677 -20.809   5.199  1.00  0.00    -0.084 Cl
HETATM   16  C   UNL     1      43.623 -18.326   5.275  1.00  0.00     0.040 A 
ENDROOT
BRANCH   1  17
HETATM   17  N   UNL     1      40.900 -12.297   5.803  1.00  0.00    -0.175 NA
HETATM   18  C   UNL     1      41.702 -11.310   6.079  1.00  0.00     0.150 C 
BRANCH  18  19
HETATM   19  C   UNL     1      43.162 -11.306   6.307  1.00  0.00    -0.014 A 
HETATM   20  C   UNL     1      43.991 -11.281   5.183  1.00  0.00     0.049 A 
HETATM   21  C   UNL     1      45.370 -11.263   5.354  1.00  0.00     0.066 A 
HETATM   22  C   UNL     1      45.936 -11.258   6.626  1.00  0.00     0.036 A 
HETATM   23  C   UNL     1      45.104 -11.258   7.746  1.00  0.00     0.004 A 
HETATM   24  C   UNL     1      43.716 -11.268   7.590  1.00  0.00     0.013 A 
BRANCH  21  25
HETATM   25  O   UNL     1      46.145 -11.247   4.232  1.00  0.00    -0.361 OA
HETATM   26  H   UNL     1      46.071 -12.107   3.787  1.00  0.00     0.217 HD
ENDBRANCH  21  25
ENDBRANCH  18  19
ENDBRANCH   1  17
TORSDOF 3
ENDMDL
MODEL 2
REMARK VINA RESULT:      -8.0      4.094      5.951
REMARK  3 active torsions:
REMARK  status: ('A' for Active; 'I' for Inactive)
REMARK    1  A    between atoms: C_3  and  O_4 
REMARK    2  A    between atoms: C_6  and  C_7 
REMARK    3  A    between atoms: N_8  and  N_9 
ROOT
HETATM    1  N   UNL     1      39.829 -13.542   2.092  1.00  0.00    -0.189 N 
HETATM    2  C   UNL     1      40.693 -13.556   3.197  1.00  0.00     0.298 A 
HETATM    3  O   UNL     1      40.842 -12.651   4.013  1.00  0.00    -0.264 OA
HETATM    4  C   UNL     1      41.447 -14.768   3.246  1.00  0.00     0.133 A 
HETATM    5  C   UNL     1      41.285 -15.798   2.367  1.00  0.00     0.103 A 
HETATM    6  N   UNL     1      40.335 -15.787   1.344  1.00  0.00    -0.239 NA
HETATM    7  C   UNL     1      39.664 -14.672   1.288  1.00  0.00     0.239 A 
HETATM    8  N   UNL     1      42.432 -15.121   4.125  1.00  0.00    -0.349 N 
HETATM    9  H   UNL     1      42.755 -14.547   4.893  1.00  0.00     0.166 HD
HETATM   10  C   UNL     1      42.924 -16.371   3.792  1.00  0.00     0.045 A 
HETATM   11  C   UNL     1      42.204 -16.822   2.677  1.00  0.00     0.024 A 
HETATM   12  C   UNL     1      43.939 -17.128   4.390  1.00  0.00     0.032 A 
HETATM   13  C   UNL     1      44.226 -18.378   3.830  1.00  0.00     0.026 A 
HETATM   14  C   UNL     1      43.521 -18.845   2.721  1.00  0.00     0.035 A 
HETATM   15 CL   UNL     1      43.909 -20.389   2.061  1.00  0.00    -0.084 Cl
HETATM   16  C   UNL     1      42.506 -18.085   2.133  1.00  0.00     0.040 A 
ENDROOT
BRANCH   1  17
HETATM   17  N   UNL     1      38.991 -12.458   1.942  1.00  0.00    -0.175 NA
HETATM   18  C   UNL     1      38.840 -11.909   0.772  1.00  0.00     0.150 C 
BRANCH  18  19
HETATM   19  C   UNL     1      39.559 -12.157  -0.494  1.00  0.00    -0.014 A 
HETATM   20  C   UNL     1      38.876 -12.843  -1.501  1.00  0.00     0.049 A 
HETATM   21  C   UNL     1      39.511 -13.085  -2.714  1.00  0.00     0.066 A 
HETATM   22  C   UNL     1      40.811 -12.645  -2.943  1.00  0.00     0.036 A 
HETATM   23  C   UNL     1      41.481 -11.937  -1.944  1.00  0.00     0.004 A 
HETATM   24  C   UNL     1      40.853 -11.680  -0.724  1.00  0.00     0.013 A 
BRANCH  21  25
HETATM   25  O   UNL     1      38.813 -13.766  -3.666  1.00  0.00    -0.361 OA
HETATM   26  H   UNL     1      38.561 -13.149  -4.373  1.00  0.00     0.217 HD
ENDBRANCH  21  25
ENDBRANCH  18  19
ENDBRANCH   1  17
TORSDOF 3
ENDMDL
MODEL 3
REMARK VINA RESULT:      -7.8      3.702      5.279
REMARK  3 active torsions:
REMARK  status: ('A' for Active; 'I' for Inactive)
REMARK    1  A    between atoms: C_3  and  O_4 
REMARK    2  A    between atoms: C_6  and  C_7 
REMARK    3  A    between atoms: N_8  and  N_9 
ROOT
HETATM    1  N   UNL     1      44.363  -9.919   7.620  1.00  0.00    -0.189 N 
HETATM    2  C   UNL     1      43.049 -10.026   7.144  1.00  0.00     0.298 A 
HETATM    3  O   UNL     1      42.218  -9.124   7.094  1.00  0.00    -0.264 OA
HETATM    4  C   UNL     1      42.753 -11.367   6.749  1.00  0.00     0.133 A 
HETATM    5  C   UNL     1      43.662 -12.383   6.772  1.00  0.00     0.103 A 
HETATM    6  N   UNL     1      44.993 -12.207   7.153  1.00  0.00    -0.239 NA
HETATM    7  C   UNL     1      45.255 -10.989   7.533  1.00  0.00     0.239 A 
HETATM    8  N   UNL     1      41.566 -11.880   6.302  1.00  0.00    -0.349 N 
HETATM    9  H   UNL     1      40.716 -11.345   6.177  1.00  0.00     0.166 HD
HETATM   10  C   UNL     1      41.708 -13.235   6.065  1.00  0.00     0.045 A 
HETATM   11  C   UNL     1      43.036 -13.576   6.354  1.00  0.00     0.024 A 
HETATM   12  C   UNL     1      40.770 -14.173   5.617  1.00  0.00     0.032 A 
HETATM   13  C   UNL     1      41.203 -15.495   5.465  1.00  0.00     0.026 A 
HETATM   14  C   UNL     1      42.520 -15.855   5.747  1.00  0.00     0.035 A 
HETATM   15 CL   UNL     1      43.010 -17.495   5.548  1.00  0.00    -0.084 Cl
HETATM   16  C   UNL     1      43.451 -14.911   6.189  1.00  0.00     0.040 A 
ENDROOT
BRANCH   1  17
HETATM   17  N   UNL     1      44.815  -8.669   7.986  1.00  0.00    -0.175 NA
HETATM   18  C   UNL     1      44.641  -8.245   9.204  1.00  0.00     0.150 C 
BRANCH  18  19
HETATM   19  C   UNL     1      43.867  -8.835  10.315  1.00  0.00    -0.014 A 
HETATM   20  C   UNL     1      44.208 -10.126  10.725  1.00  0.00     0.049 A 
HETATM   21  C   UNL     1      43.514 -10.713  11.777  1.00  0.00     0.066 A 
HETATM   22  C   UNL     1      42.493 -10.031  12.432  1.00  0.00     0.036 A 
HETATM   23  C   UNL     1      42.172  -8.732  12.036  1.00  0.00     0.004 A 
HETATM   24  C   UNL     1      42.866  -8.126  10.987  1.00  0.00     0.013 A 
BRANCH  21  25
HETATM   25  O   UNL     1      43.871 -11.978  12.141  1.00  0.00    -0.361 OA
HETATM   26  H   UNL     1      44.765 -12.160  11.807  1.00  0.00     0.217 HD
ENDBRANCH  21  25
ENDBRANCH  18  19
ENDBRANCH   1  17
TORSDOF 3
ENDMDL
MODEL 4
REMARK VINA RESULT:      -7.8      1.603      2.425
REMARK  3 active torsions:
REMARK  status: ('A' for Active; 'I' for Inactive)
REMARK    1  A    between atoms: C_3  and  O_4 
REMARK    2  A    between atoms: C_6  and  C_7 
REMARK    3  A    between atoms: N_8  and  N_9 
ROOT
HETATM    1  N   UNL     1      41.313 -13.828   4.953  1.00  0.00    -0.189 N 
HETATM    2  C   UNL     1      41.795 -14.692   5.947  1.00  0.00     0.298 A 
HETATM    3  O   UNL     1      41.832 -14.462   7.153  1.00  0.00    -0.264 OA
HETATM    4  C   UNL     1      42.302 -15.899   5.378  1.00  0.00     0.133 A 
HETATM    5  C   UNL     1      42.252 -16.190   4.046  1.00  0.00     0.103 A 
HETATM    6  N   UNL     1      41.664 -15.346   3.102  1.00  0.00    -0.239 NA
HETATM    7  C   UNL     1      41.222 -14.236   3.621  1.00  0.00     0.239 A 
HETATM    8  N   UNL     1      42.912 -16.947   6.010  1.00  0.00    -0.349 N 
HETATM    9  H   UNL     1      43.076 -17.004   7.007  1.00  0.00     0.166 HD
HETATM   10  C   UNL     1      43.281 -17.900   5.078  1.00  0.00     0.045 A 
HETATM   11  C   UNL     1      42.865 -17.440   3.820  1.00  0.00     0.024 A 
HETATM   12  C   UNL     1      43.941 -19.122   5.252  1.00  0.00     0.032 A 
HETATM   13  C   UNL     1      44.183 -19.892   4.109  1.00  0.00     0.026 A 
HETATM   14  C   UNL     1      43.778 -19.453   2.849  1.00  0.00     0.035 A 
HETATM   15 CL   UNL     1      44.100 -20.431   1.468  1.00  0.00    -0.084 Cl
HETATM   16  C   UNL     1      43.116 -18.233   2.685  1.00  0.00     0.040 A 
ENDROOT
BRANCH   1  17
HETATM   17  N   UNL     1      40.737 -12.641   5.354  1.00  0.00    -0.175 NA
HETATM   18  C   UNL     1      41.488 -11.617   5.636  1.00  0.00     0.150 C 
BRANCH  18  19
HETATM   19  C   UNL     1      42.957 -11.518   5.754  1.00  0.00    -0.014 A 
HETATM   20  C   UNL     1      43.496 -11.413   7.039  1.00  0.00     0.049 A 
HETATM   21  C   UNL     1      44.875 -11.332   7.195  1.00  0.00     0.066 A 
HETATM   22  C   UNL     1      45.725 -11.364   6.093  1.00  0.00     0.036 A 
HETATM   23  C   UNL     1      45.185 -11.495   4.814  1.00  0.00     0.004 A 
HETATM   24  C   UNL     1      43.802 -11.586   4.642  1.00  0.00     0.013 A 
BRANCH  21  25
HETATM   25  O   UNL     1      45.361 -11.221   8.465  1.00  0.00    -0.361 OA
HETATM   26  H   UNL     1      46.231 -11.651   8.507  1.00  0.00     0.217 HD
ENDBRANCH  21  25
ENDBRANCH  18  19
ENDBRANCH   1  17
TORSDOF 3
ENDMDL
MODEL 5
REMARK VINA RESULT:      -7.8      3.525      7.157
REMARK  3 active torsions:
REMARK  status: ('A' for Active; 'I' for Inactive)
REMARK    1  A    between atoms: C_3  and  O_4 
REMARK    2  A    between atoms: C_6  and  C_7 
REMARK    3  A    between atoms: N_8  and  N_9 
ROOT
HETATM    1  N   UNL     1      42.291 -11.516   4.272  1.00  0.00    -0.189 N 
HETATM    2  C   UNL     1      43.667 -11.376   4.504  1.00  0.00     0.298 A 
HETATM    3  O   UNL     1      44.566 -11.599   3.698  1.00  0.00    -0.264 OA
HETATM    4  C   UNL     1      43.923 -10.974   5.850  1.00  0.00     0.133 A 
HETATM    5  C   UNL     1      42.945 -10.698   6.759  1.00  0.00     0.103 A 
HETATM    6  N   UNL     1      41.583 -10.746   6.454  1.00  0.00    -0.239 NA
HETATM    7  C   UNL     1      41.352 -11.133   5.232  1.00  0.00     0.239 A 
HETATM    8  N   UNL     1      45.129 -10.802   6.472  1.00  0.00    -0.349 N 
HETATM    9  H   UNL     1      46.031 -10.931   6.030  1.00  0.00     0.166 HD
HETATM   10  C   UNL     1      44.924 -10.442   7.791  1.00  0.00     0.045 A 
HETATM   11  C   UNL     1      43.539 -10.365   7.995  1.00  0.00     0.024 A 
HETATM   12  C   UNL     1      45.850 -10.177   8.807  1.00  0.00     0.032 A 
HETATM   13  C   UNL     1      45.345  -9.828  10.065  1.00  0.00     0.026 A 
HETATM   14  C   UNL     1      43.971  -9.747  10.288  1.00  0.00     0.035 A 
HETATM   15 CL   UNL     1      43.392  -9.317  11.853  1.00  0.00    -0.084 Cl
HETATM   16  C   UNL     1      43.053 -10.008   9.267  1.00  0.00     0.040 A 
ENDROOT
BRANCH   1  17
HETATM   17  N   UNL     1      41.883 -11.845   2.997  1.00  0.00    -0.175 NA
HETATM   18  C   UNL     1      41.622 -13.083   2.697  1.00  0.00     0.150 C 
BRANCH  18  19
HETATM   19  C   UNL     1      41.833 -14.317   3.481  1.00  0.00    -0.014 A 
HETATM   20  C   UNL     1      40.742 -14.826   4.190  1.00  0.00     0.049 A 
HETATM   21  C   UNL     1      40.894 -15.993   4.930  1.00  0.00     0.066 A 
HETATM   22  C   UNL     1      42.112 -16.666   4.967  1.00  0.00     0.036 A 
HETATM   23  C   UNL     1      43.192 -16.169   4.237  1.00  0.00     0.004 A 
HETATM   24  C   UNL     1      43.052 -15.002   3.483  1.00  0.00     0.013 A 
BRANCH  21  25
HETATM   25  O   UNL     1      39.808 -16.451   5.615  1.00  0.00    -0.361 OA
HETATM   26  H   UNL     1      39.471 -15.739   6.183  1.00  0.00     0.217 HD
ENDBRANCH  21  25
ENDBRANCH  18  19
ENDBRANCH   1  17
TORSDOF 3
ENDMDL
MODEL 6
REMARK VINA RESULT:      -7.7      3.307      4.749
REMARK  3 active torsions:
REMARK  status: ('A' for Active; 'I' for Inactive)
REMARK    1  A    between atoms: C_3  and  O_4 
REMARK    2  A    between atoms: C_6  and  C_7 
REMARK    3  A    between atoms: N_8  and  N_9 
ROOT
HETATM    1  N   UNL     1      39.797 -13.710   3.161  1.00  0.00    -0.189 N 
HETATM    2  C   UNL     1      40.794 -13.825   4.141  1.00  0.00     0.298 A 
HETATM    3  O   UNL     1      41.033 -13.016   5.033  1.00  0.00    -0.264 OA
HETATM    4  C   UNL     1      41.566 -15.012   3.953  1.00  0.00     0.133 A 
HETATM    5  C   UNL     1      41.308 -15.939   2.985  1.00  0.00     0.103 A 
HETATM    6  N   UNL     1      40.236 -15.838   2.097  1.00  0.00    -0.239 NA
HETATM    7  C   UNL     1      39.547 -14.744   2.257  1.00  0.00     0.239 A 
HETATM    8  N   UNL     1      42.660 -15.436   4.654  1.00  0.00    -0.349 N 
HETATM    9  H   UNL     1      43.069 -14.945   5.439  1.00  0.00     0.166 HD
HETATM   10  C   UNL     1      43.123 -16.624   4.118  1.00  0.00     0.045 A 
HETATM   11  C   UNL     1      42.274 -16.965   3.056  1.00  0.00     0.024 A 
HETATM   12  C   UNL     1      44.217 -17.415   4.492  1.00  0.00     0.032 A 
HETATM   13  C   UNL     1      44.448 -18.583   3.757  1.00  0.00     0.026 A 
HETATM   14  C   UNL     1      43.615 -18.940   2.698  1.00  0.00     0.035 A 
HETATM   15 CL   UNL     1      43.938 -20.386   1.818  1.00  0.00    -0.084 Cl
HETATM   16  C   UNL     1      42.523 -18.147   2.334  1.00  0.00     0.040 A 
ENDROOT
BRANCH   1  17
HETATM   17  N   UNL     1      38.932 -12.641   3.246  1.00  0.00    -0.175 NA
HETATM   18  C   UNL     1      38.882 -11.767   2.283  1.00  0.00     0.150 C 
BRANCH  18  19
HETATM   19  C   UNL     1      39.742 -11.614   1.092  1.00  0.00    -0.014 A 
HETATM   20  C   UNL     1      40.676 -10.574   1.100  1.00  0.00     0.049 A 
HETATM   21  C   UNL     1      41.515 -10.403   0.004  1.00  0.00     0.066 A 
HETATM   22  C   UNL     1      41.446 -11.258  -1.092  1.00  0.00     0.036 A 
HETATM   23  C   UNL     1      40.530 -12.310  -1.085  1.00  0.00     0.004 A 
HETATM   24  C   UNL     1      39.686 -12.499   0.012  1.00  0.00     0.013 A 
BRANCH  21  25
HETATM   25  O   UNL     1      42.405  -9.372   0.047  1.00  0.00    -0.361 OA
HETATM   26  H   UNL     1      42.035  -8.617  -0.439  1.00  0.00     0.217 HD
ENDBRANCH  21  25
ENDBRANCH  18  19
ENDBRANCH   1  17
TORSDOF 3
ENDMDL
MODEL 7
REMARK VINA RESULT:      -7.7      4.665      6.824
REMARK  3 active torsions:
REMARK  status: ('A' for Active; 'I' for Inactive)
REMARK    1  A    between atoms: C_3  and  O_4 
REMARK    2  A    between atoms: C_6  and  C_7 
REMARK    3  A    between atoms: N_8  and  N_9 
ROOT
HETATM    1  N   UNL     1      41.072 -14.463   3.500  1.00  0.00    -0.189 N 
HETATM    2  C   UNL     1      41.688 -13.480   2.712  1.00  0.00     0.298 A 
HETATM    3  O   UNL     1      42.512 -12.654   3.093  1.00  0.00    -0.264 OA
HETATM    4  C   UNL     1      41.198 -13.515   1.370  1.00  0.00     0.133 A 
HETATM    5  C   UNL     1      40.302 -14.436   0.914  1.00  0.00     0.103 A 
HETATM    6  N   UNL     1      39.795 -15.466   1.708  1.00  0.00    -0.239 NA
HETATM    7  C   UNL     1      40.226 -15.419   2.936  1.00  0.00     0.239 A 
HETATM    8  N   UNL     1      41.502 -12.679   0.332  1.00  0.00    -0.349 N 
HETATM    9  H   UNL     1      42.151 -11.905   0.384  1.00  0.00     0.166 HD
HETATM   10  C   UNL     1      40.776 -13.047  -0.787  1.00  0.00     0.045 A 
HETATM   11  C   UNL     1      40.008 -14.167  -0.439  1.00  0.00     0.024 A 
HETATM   12  C   UNL     1      40.745 -12.481  -2.067  1.00  0.00     0.032 A 
HETATM   13  C   UNL     1      39.904 -13.075  -3.014  1.00  0.00     0.026 A 
HETATM   14  C   UNL     1      39.133 -14.189  -2.689  1.00  0.00     0.035 A 
HETATM   15 CL   UNL     1      38.108 -14.887  -3.886  1.00  0.00    -0.084 Cl
HETATM   16  C   UNL     1      39.172 -14.751  -1.410  1.00  0.00     0.040 A 
ENDROOT
BRANCH   1  17
HETATM   17  N   UNL     1      41.485 -14.591   4.809  1.00  0.00    -0.175 NA
HETATM   18  C   UNL     1      42.374 -15.486   5.126  1.00  0.00     0.150 C 
BRANCH  18  19
HETATM   19  C   UNL     1      42.966 -16.568   4.313  1.00  0.00    -0.014 A 
HETATM   20  C   UNL     1      43.378 -17.725   4.980  1.00  0.00     0.049 A 
HETATM   21  C   UNL     1      43.927 -18.773   4.251  1.00  0.00     0.066 A 
HETATM   22  C   UNL     1      44.062 -18.692   2.868  1.00  0.00     0.036 A 
HETATM   23  C   UNL     1      43.626 -17.546   2.203  1.00  0.00     0.004 A 
HETATM   24  C   UNL     1      43.065 -16.488   2.921  1.00  0.00     0.013 A 
BRANCH  21  25
HETATM   25  O   UNL     1      44.325 -19.880   4.940  1.00  0.00    -0.361 OA
HETATM   26  H   UNL     1      43.541 -20.326   5.299  1.00  0.00     0.217 HD
ENDBRANCH  21  25
ENDBRANCH  18  19
ENDBRANCH   1  17
TORSDOF 3
ENDMDL
MODEL 8
REMARK VINA RESULT:      -7.6      3.740      6.200
REMARK  3 active torsions:
REMARK  status: ('A' for Active; 'I' for Inactive)
REMARK    1  A    between atoms: C_3  and  O_4 
REMARK    2  A    between atoms: C_6  and  C_7 
REMARK    3  A    between atoms: N_8  and  N_9 
ROOT
HETATM    1  N   UNL     1      41.475 -15.371   5.597  1.00  0.00    -0.189 N 
HETATM    2  C   UNL     1      41.989 -14.195   5.030  1.00  0.00     0.298 A 
HETATM    3  O   UNL     1      42.669 -13.349   5.603  1.00  0.00    -0.264 OA
HETATM    4  C   UNL     1      41.580 -14.060   3.668  1.00  0.00     0.133 A 
HETATM    5  C   UNL     1      40.844 -14.995   3.000  1.00  0.00     0.103 A 
HETATM    6  N   UNL     1      40.445 -16.203   3.573  1.00  0.00    -0.239 NA
HETATM    7  C   UNL     1      40.801 -16.315   4.821  1.00  0.00     0.239 A 
HETATM    8  N   UNL     1      41.818 -13.025   2.807  1.00  0.00    -0.349 N 
HETATM    9  H   UNL     1      42.349 -12.194   3.035  1.00  0.00     0.166 HD
HETATM   10  C   UNL     1      41.210 -13.283   1.592  1.00  0.00     0.045 A 
HETATM   11  C   UNL     1      40.588 -14.535   1.691  1.00  0.00     0.024 A 
HETATM   12  C   UNL     1      41.168 -12.512   0.424  1.00  0.00     0.032 A 
HETATM   13  C   UNL     1      40.468 -13.035  -0.669  1.00  0.00     0.026 A 
HETATM   14  C   UNL     1      39.842 -14.278  -0.591  1.00  0.00     0.035 A 
HETATM   15 CL   UNL     1      38.988 -14.883  -1.960  1.00  0.00    -0.084 Cl
HETATM   16  C   UNL     1      39.893 -15.044   0.578  1.00  0.00     0.040 A 
ENDROOT
BRANCH   1  17
HETATM   17  N   UNL     1      41.833 -15.670   6.894  1.00  0.00    -0.175 NA
HETATM   18  C   UNL     1      42.757 -16.555   7.126  1.00  0.00     0.150 C 
BRANCH  18  19
HETATM   19  C   UNL     1      43.449 -17.474   6.199  1.00  0.00    -0.014 A 
HETATM   20  C   UNL     1      43.222 -18.843   6.357  1.00  0.00     0.049 A 
HETATM   21  C   UNL     1      43.842 -19.741   5.496  1.00  0.00     0.066 A 
HETATM   22  C   UNL     1      44.676 -19.297   4.474  1.00  0.00     0.036 A 
HETATM   23  C   UNL     1      44.879 -17.927   4.303  1.00  0.00     0.004 A 
HETATM   24  C   UNL     1      44.257 -17.012   5.155  1.00  0.00     0.013 A 
BRANCH  21  25
HETATM   25  O   UNL     1      43.602 -21.070   5.690  1.00  0.00    -0.361 OA
HETATM   26  H   UNL     1      42.950 -21.170   6.404  1.00  0.00     0.217 HD
ENDBRANCH  21  25
ENDBRANCH  18  19
ENDBRANCH   1  17
TORSDOF 3
ENDMDL
MODEL 9
REMARK VINA RESULT:      -7.6      3.086      6.600
REMARK  3 active torsions:
REMARK  status: ('A' for Active; 'I' for Inactive)
REMARK    1  A    between atoms: C_3  and  O_4 
REMARK    2  A    between atoms: C_6  and  C_7 
REMARK    3  A    between atoms: N_8  and  N_9 
ROOT
HETATM    1  N   UNL     1      41.657 -13.537   4.157  1.00  0.00    -0.189 N 
HETATM    2  C   UNL     1      42.894 -12.991   3.786  1.00  0.00     0.298 A 
HETATM    3  O   UNL     1      43.424 -13.076   2.682  1.00  0.00    -0.264 OA
HETATM    4  C   UNL     1      43.520 -12.337   4.891  1.00  0.00     0.133 A 
HETATM    5  C   UNL     1      42.944 -12.208   6.121  1.00  0.00     0.103 A 
HETATM    6  N   UNL     1      41.662 -12.673   6.416  1.00  0.00    -0.239 NA
HETATM    7  C   UNL     1      41.102 -13.288   5.413  1.00  0.00     0.239 A 
HETATM    8  N   UNL     1      44.753 -11.750   4.944  1.00  0.00    -0.349 N 
HETATM    9  H   UNL     1      45.399 -11.691   4.168  1.00  0.00     0.166 HD
HETATM   10  C   UNL     1      44.981 -11.266   6.220  1.00  0.00     0.045 A 
HETATM   11  C   UNL     1      43.840 -11.543   6.985  1.00  0.00     0.024 A 
HETATM   12  C   UNL     1      46.099 -10.608   6.747  1.00  0.00     0.032 A 
HETATM   13  C   UNL     1      46.048 -10.227   8.093  1.00  0.00     0.026 A 
HETATM   14  C   UNL     1      44.922 -10.494   8.870  1.00  0.00     0.035 A 
HETATM   15 CL   UNL     1      44.902 -10.010  10.524  1.00  0.00    -0.084 Cl
HETATM   16  C   UNL     1      43.808 -11.147   8.335  1.00  0.00     0.040 A 
ENDROOT
BRANCH   1  17
HETATM   17  N   UNL     1      40.905 -14.152   3.179  1.00  0.00    -0.175 NA
HETATM   18  C   UNL     1      41.053 -15.424   2.948  1.00  0.00     0.150 C 
BRANCH  18  19
HETATM   19  C   UNL     1      42.050 -16.377   3.479  1.00  0.00    -0.014 A 
HETATM   20  C   UNL     1      42.094 -16.561   4.863  1.00  0.00     0.049 A 
HETATM   21  C   UNL     1      43.008 -17.459   5.402  1.00  0.00     0.066 A 
HETATM   22  C   UNL     1      43.869 -18.184   4.584  1.00  0.00     0.036 A 
HETATM   23  C   UNL     1      43.804 -18.018   3.201  1.00  0.00     0.004 A 
HETATM   24  C   UNL     1      42.886 -17.125   2.644  1.00  0.00     0.013 A 
BRANCH  21  25
HETATM   25  O   UNL     1      43.026 -17.602   6.758  1.00  0.00    -0.361 OA
HETATM   26  H   UNL     1      42.254 -17.147   7.133  1.00  0.00     0.217 HD
ENDBRANCH  21  25
ENDBRANCH  18  19
ENDBRANCH   1  17
TORSDOF 3
ENDMDL
MODEL 10
REMARK VINA RESULT:      -7.2     15.514     17.148
REMARK  3 active torsions:
REMARK  status: ('A' for Active; 'I' for Inactive)
REMARK    1  A    between atoms: C_3  and  O_4 
REMARK    2  A    between atoms: C_6  and  C_7 
REMARK    3  A    between atoms: N_8  and  N_9 
ROOT
HETATM    1  N   UNL     1      45.726 -30.239   2.352  1.00  0.00    -0.189 N 
HETATM    2  C   UNL     1      46.030 -29.004   1.762  1.00  0.00     0.298 A 
HETATM    3  O   UNL     1      46.464 -28.010   2.339  1.00  0.00    -0.264 OA
HETATM    4  C   UNL     1      45.725 -29.011   0.366  1.00  0.00     0.133 A 
HETATM    5  C   UNL     1      45.265 -30.106  -0.304  1.00  0.00     0.103 A 
HETATM    6  N   UNL     1      45.078 -31.350   0.303  1.00  0.00    -0.239 NA
HETATM    7  C   UNL     1      45.337 -31.335   1.579  1.00  0.00     0.239 A 
HETATM    8  N   UNL     1      45.817 -27.983  -0.530  1.00  0.00    -0.349 N 
HETATM    9  H   UNL     1      46.140 -27.050  -0.308  1.00  0.00     0.166 HD
HETATM   10  C   UNL     1      45.388 -28.411  -1.773  1.00  0.00     0.045 A 
HETATM   11  C   UNL     1      45.036 -29.763  -1.653  1.00  0.00     0.024 A 
HETATM   12  C   UNL     1      45.289 -27.712  -2.982  1.00  0.00     0.032 A 
HETATM   13  C   UNL     1      44.816 -28.415  -4.096  1.00  0.00     0.026 A 
HETATM   14  C   UNL     1      44.461 -29.759  -3.998  1.00  0.00     0.035 A 
HETATM   15 CL   UNL     1      43.879 -30.585  -5.393  1.00  0.00    -0.084 Cl
HETATM   16  C   UNL     1      44.566 -30.451  -2.788  1.00  0.00     0.040 A 
ENDROOT
BRANCH   1  17
HETATM   17  N   UNL     1      46.020 -30.404   3.688  1.00  0.00    -0.175 NA
HETATM   18  C   UNL     1      47.239 -30.673   4.057  1.00  0.00     0.150 C 
BRANCH  18  19
HETATM   19  C   UNL     1      48.429 -31.000   3.244  1.00  0.00    -0.014 A 
HETATM   20  C   UNL     1      49.381 -29.994   3.061  1.00  0.00     0.049 A 
HETATM   21  C   UNL     1      50.522 -30.264   2.315  1.00  0.00     0.066 A 
HETATM   22  C   UNL     1      50.734 -31.521   1.757  1.00  0.00     0.036 A 
HETATM   23  C   UNL     1      49.794 -32.530   1.964  1.00  0.00     0.004 A 
HETATM   24  C   UNL     1      48.646 -32.277   2.718  1.00  0.00     0.013 A 
BRANCH  21  25
HETATM   25  O   UNL     1      51.423 -29.253   2.152  1.00  0.00    -0.361 OA
HETATM   26  H   UNL     1      52.145 -29.369   2.791  1.00  0.00     0.217 HD
ENDBRANCH  21  25
ENDBRANCH  18  19
ENDBRANCH   1  17
TORSDOF 3
ENDMDL
