MODEL 1
REMARK VINA RESULT:      -8.1      0.000      0.000
REMARK  5 active torsions:
REMARK  status: ('A' for Active; 'I' for Inactive)
REMARK    1  A    between atoms: C_2  and  C_3 
REMARK    2  A    between atoms: C_3  and  C_4 
REMARK    3  A    between atoms: C_3  and  C_29 
REMARK       I    between atoms: C_4  and  N_5 
REMARK    4  A    between atoms: N_5  and  C_6 
REMARK    5  A    between atoms: C_18  and  C_19 
ROOT
HETATM    1  C   UNL     1      42.919 -14.900   6.240  1.00  0.00     0.088 C 
HETATM    2  C   UNL     1      41.457 -14.519   6.099  1.00  0.00     0.060 C 
HETATM    3  C   UNL     1      41.149 -13.520   4.965  1.00  0.00     0.181 C 
HETATM    4  N   UNL     1      42.214 -12.557   4.642  1.00  0.00    -0.334 N 
HETATM    5  C   UNL     1      42.168 -11.791   3.470  1.00  0.00     0.256 C 
HETATM    6  O   UNL     1      43.154 -11.166   3.070  1.00  0.00    -0.267 OA
HETATM    7  C   UNL     1      40.953 -11.739   2.617  1.00  0.00     0.059 A 
HETATM    8  C   UNL     1      39.642 -11.724   3.093  1.00  0.00     0.050 A 
HETATM    9  N   UNL     1      39.258 -11.955   4.416  1.00  0.00    -0.324 N 
HETATM   10  C   UNL     1      39.862 -12.751   5.345  1.00  0.00     0.245 C 
HETATM   11  O   UNL     1      39.256 -12.923   6.406  1.00  0.00    -0.271 OA
HETATM   12  C   UNL     1      41.186 -11.544   1.239  1.00  0.00     0.031 A 
HETATM   13  C   UNL     1      40.137 -11.327   0.339  1.00  0.00    -0.024 A 
HETATM   14  C   UNL     1      38.836 -11.260   0.837  1.00  0.00     0.014 A 
HETATM   15  C   UNL     1      38.594 -11.444   2.200  1.00  0.00     0.031 A 
HETATM   16  C   UNL     1      43.579 -12.760   5.139  1.00  0.00     0.129 C 
HETATM   17  C   UNL     1      43.728 -13.619   6.377  1.00  0.00     0.045 C 
HETATM   18  H   UNL     1      38.326 -11.681   4.705  1.00  0.00     0.169 HD
ENDROOT
BRANCH   1  19
HETATM   19  N   UNL     1      43.380 -15.752   5.151  1.00  0.00    -0.356 N 
HETATM   20  C   UNL     1      43.309 -17.126   5.244  1.00  0.00     0.222 C 
HETATM   21  O   UNL     1      42.798 -17.706   6.197  1.00  0.00    -0.273 OA
HETATM   22  H   UNL     1      43.979 -15.355   4.441  1.00  0.00     0.162 HD
BRANCH  20  23
HETATM   23  C   UNL     1      43.918 -17.901   4.074  1.00  0.00     0.077 C 
BRANCH  23  24
HETATM   24  C   UNL     1      42.993 -17.891   2.844  1.00  0.00     0.009 C 
HETATM   25  C   UNL     1      43.267 -16.721   1.908  1.00  0.00     0.006 C 
ENDBRANCH  23  24
BRANCH  23  26
HETATM   26  C   UNL     1      44.270 -19.346   4.471  1.00  0.00     0.009 C 
HETATM   27  C   UNL     1      43.881 -20.360   3.403  1.00  0.00     0.006 C 
ENDBRANCH  23  26
ENDBRANCH  20  23
ENDBRANCH   1  19
BRANCH  13  28
HETATM   28  C   UNL     1      40.417 -11.154  -1.083  1.00  0.00    -0.019 A 
HETATM   29  C   UNL     1      40.248  -9.938  -1.721  1.00  0.00     0.061 A 
HETATM   30  S   UNL     1      40.614 -10.012  -3.392  1.00  0.00    -0.113 SA
HETATM   31  C   UNL     1      40.992 -11.674  -3.291  1.00  0.00     0.050 A 
HETATM   32  C   UNL     1      40.846 -12.160  -2.010  1.00  0.00     0.020 A 
ENDBRANCH  13  28
TORSDOF 5
ENDMDL
MODEL 2
REMARK VINA RESULT:      -8.0      3.062      7.602
REMARK  5 active torsions:
REMARK  status: ('A' for Active; 'I' for Inactive)
REMARK    1  A    between atoms: C_2  and  C_3 
REMARK    2  A    between atoms: C_3  and  C_4 
REMARK    3  A    between atoms: C_3  and  C_29 
REMARK       I    between atoms: C_4  and  N_5 
REMARK    4  A    between atoms: N_5  and  C_6 
REMARK    5  A    between atoms: C_18  and  C_19 
ROOT
HETATM    1  C   UNL     1      41.469 -10.052   3.533  1.00  0.00     0.088 C 
HETATM    2  C   UNL     1      42.508 -10.483   4.551  1.00  0.00     0.060 C 
HETATM    3  C   UNL     1      42.558 -11.999   4.832  1.00  0.00     0.181 C 
HETATM    4  N   UNL     1      41.285 -12.725   4.701  1.00  0.00    -0.334 N 
HETATM    5  C   UNL     1      41.249 -14.125   4.660  1.00  0.00     0.256 C 
HETATM    6  O   UNL     1      40.233 -14.733   4.314  1.00  0.00    -0.267 OA
HETATM    7  C   UNL     1      42.446 -14.947   4.971  1.00  0.00     0.059 A 
HETATM    8  C   UNL     1      43.382 -14.653   5.964  1.00  0.00     0.050 A 
HETATM    9  N   UNL     1      43.457 -13.454   6.676  1.00  0.00    -0.324 N 
HETATM   10  C   UNL     1      43.117 -12.201   6.260  1.00  0.00     0.245 C 
HETATM   11  O   UNL     1      43.413 -11.267   7.011  1.00  0.00    -0.271 OA
HETATM   12  C   UNL     1      42.528 -16.182   4.294  1.00  0.00     0.031 A 
HETATM   13  C   UNL     1      43.518 -17.123   4.597  1.00  0.00    -0.024 A 
HETATM   14  C   UNL     1      44.414 -16.839   5.628  1.00  0.00     0.014 A 
HETATM   15  C   UNL     1      44.337 -15.623   6.310  1.00  0.00     0.031 A 
HETATM   16  C   UNL     1      40.138 -12.104   4.030  1.00  0.00     0.129 C 
HETATM   17  C   UNL     1      40.119 -10.591   3.983  1.00  0.00     0.045 C 
HETATM   18  H   UNL     1      44.001 -13.432   7.531  1.00  0.00     0.169 HD
ENDROOT
BRANCH   1  19
HETATM   19  N   UNL     1      41.818 -10.452   2.177  1.00  0.00    -0.356 N 
HETATM   20  C   UNL     1      41.364  -9.740   1.085  1.00  0.00     0.222 C 
HETATM   21  O   UNL     1      40.710  -8.707   1.187  1.00  0.00    -0.273 OA
HETATM   22  H   UNL     1      42.178 -11.383   2.019  1.00  0.00     0.162 HD
BRANCH  20  23
HETATM   23  C   UNL     1      41.722 -10.325  -0.282  1.00  0.00     0.077 C 
BRANCH  23  24
HETATM   24  C   UNL     1      42.124  -9.226  -1.281  1.00  0.00     0.009 C 
HETATM   25  C   UNL     1      41.229  -9.192  -2.514  1.00  0.00     0.006 C 
ENDBRANCH  23  24
BRANCH  23  26
HETATM   26  C   UNL     1      40.575 -11.179  -0.853  1.00  0.00     0.009 C 
HETATM   27  C   UNL     1      40.690 -12.649  -0.470  1.00  0.00     0.006 C 
ENDBRANCH  23  26
ENDBRANCH  20  23
ENDBRANCH   1  19
BRANCH  13  28
HETATM   28  C   UNL     1      43.584 -18.379   3.857  1.00  0.00    -0.019 A 
HETATM   29  C   UNL     1      43.971 -19.564   4.455  1.00  0.00     0.061 A 
HETATM   30  S   UNL     1      43.996 -20.881   3.362  1.00  0.00    -0.113 SA
HETATM   31  C   UNL     1      43.501 -19.884   2.066  1.00  0.00     0.050 A 
HETATM   32  C   UNL     1      43.318 -18.577   2.461  1.00  0.00     0.020 A 
ENDBRANCH  13  28
TORSDOF 5
ENDMDL
MODEL 3
REMARK VINA RESULT:      -7.8      5.475      8.747
REMARK  5 active torsions:
REMARK  status: ('A' for Active; 'I' for Inactive)
REMARK    1  A    between atoms: C_2  and  C_3 
REMARK    2  A    between atoms: C_3  and  C_4 
REMARK    3  A    between atoms: C_3  and  C_29 
REMARK       I    between atoms: C_4  and  N_5 
REMARK    4  A    between atoms: N_5  and  C_6 
REMARK    5  A    between atoms: C_18  and  C_19 
ROOT
HETATM    1  C   UNL     1      42.685  -8.023   9.233  1.00  0.00     0.088 C 
HETATM    2  C   UNL     1      41.915  -8.293   7.954  1.00  0.00     0.060 C 
HETATM    3  C   UNL     1      42.357  -9.552   7.179  1.00  0.00     0.181 C 
HETATM    4  N   UNL     1      43.776  -9.921   7.298  1.00  0.00    -0.334 N 
HETATM    5  C   UNL     1      44.237 -11.175   6.875  1.00  0.00     0.256 C 
HETATM    6  O   UNL     1      45.359 -11.586   7.183  1.00  0.00    -0.267 OA
HETATM    7  C   UNL     1      43.380 -12.098   6.088  1.00  0.00     0.059 A 
HETATM    8  C   UNL     1      42.484 -11.705   5.094  1.00  0.00     0.050 A 
HETATM    9  N   UNL     1      42.103 -10.390   4.822  1.00  0.00    -0.324 N 
HETATM   10  C   UNL     1      42.006  -9.341   5.688  1.00  0.00     0.245 C 
HETATM   11  O   UNL     1      41.499  -8.304   5.249  1.00  0.00    -0.271 OA
HETATM   12  C   UNL     1      43.627 -13.473   6.287  1.00  0.00     0.031 A 
HETATM   13  C   UNL     1      43.002 -14.452   5.507  1.00  0.00    -0.024 A 
HETATM   14  C   UNL     1      42.150 -14.044   4.481  1.00  0.00     0.014 A 
HETATM   15  C   UNL     1      41.904 -12.685   4.271  1.00  0.00     0.031 A 
HETATM   16  C   UNL     1      44.618  -9.324   8.340  1.00  0.00     0.129 C 
HETATM   17  C   UNL     1      44.167  -7.988   8.892  1.00  0.00     0.045 C 
HETATM   18  H   UNL     1      41.649 -10.190   3.937  1.00  0.00     0.169 HD
ENDROOT
BRANCH   1  19
HETATM   19  N   UNL     1      42.365  -8.976  10.288  1.00  0.00    -0.356 N 
HETATM   20  C   UNL     1      41.484  -8.651  11.298  1.00  0.00     0.222 C 
HETATM   21  O   UNL     1      40.871  -7.588  11.334  1.00  0.00    -0.273 OA
HETATM   22  H   UNL     1      42.970  -9.774  10.425  1.00  0.00     0.162 HD
BRANCH  20  23
HETATM   23  C   UNL     1      41.314  -9.705  12.394  1.00  0.00     0.077 C 
BRANCH  23  24
HETATM   24  C   UNL     1      39.884  -9.708  12.961  1.00  0.00     0.009 C 
HETATM   25  C   UNL     1      39.208 -11.069  12.853  1.00  0.00     0.006 C 
ENDBRANCH  23  24
BRANCH  23  26
HETATM   26  C   UNL     1      42.342  -9.520  13.525  1.00  0.00     0.009 C 
HETATM   27  C   UNL     1      41.814  -8.655  14.663  1.00  0.00     0.006 C 
ENDBRANCH  23  26
ENDBRANCH  20  23
ENDBRANCH   1  19
BRANCH  13  28
HETATM   28  C   UNL     1      43.265 -15.866   5.759  1.00  0.00    -0.019 A 
HETATM   29  C   UNL     1      43.662 -16.729   4.755  1.00  0.00     0.061 A 
HETATM   30  S   UNL     1      43.871 -18.336   5.307  1.00  0.00    -0.113 SA
HETATM   31  C   UNL     1      43.423 -17.905   6.898  1.00  0.00     0.050 A 
HETATM   32  C   UNL     1      43.123 -16.564   7.004  1.00  0.00     0.020 A 
ENDBRANCH  13  28
TORSDOF 5
ENDMDL
MODEL 4
REMARK VINA RESULT:      -7.6      3.929      7.500
REMARK  5 active torsions:
REMARK  status: ('A' for Active; 'I' for Inactive)
REMARK    1  A    between atoms: C_2  and  C_3 
REMARK    2  A    between atoms: C_3  and  C_4 
REMARK    3  A    between atoms: C_3  and  C_29 
REMARK       I    between atoms: C_4  and  N_5 
REMARK    4  A    between atoms: N_5  and  C_6 
REMARK    5  A    between atoms: C_18  and  C_19 
ROOT
HETATM    1  C   UNL     1      39.548  -9.058   4.808  1.00  0.00     0.088 C 
HETATM    2  C   UNL     1      38.693 -10.053   4.044  1.00  0.00     0.060 C 
HETATM    3  C   UNL     1      39.450 -11.282   3.503  1.00  0.00     0.181 C 
HETATM    4  N   UNL     1      40.861 -11.070   3.146  1.00  0.00    -0.334 N 
HETATM    5  C   UNL     1      41.720 -12.152   2.908  1.00  0.00     0.256 C 
HETATM    6  O   UNL     1      42.943 -12.001   2.845  1.00  0.00    -0.267 OA
HETATM    7  C   UNL     1      41.210 -13.540   2.779  1.00  0.00     0.059 A 
HETATM    8  C   UNL     1      40.018 -13.900   2.150  1.00  0.00     0.050 A 
HETATM    9  N   UNL     1      39.027 -13.012   1.726  1.00  0.00    -0.324 N 
HETATM   10  C   UNL     1      38.683 -11.808   2.267  1.00  0.00     0.245 C 
HETATM   11  O   UNL     1      37.670 -11.266   1.816  1.00  0.00    -0.271 OA
HETATM   12  C   UNL     1      42.095 -14.554   3.205  1.00  0.00     0.031 A 
HETATM   13  C   UNL     1      41.811 -15.909   3.006  1.00  0.00    -0.024 A 
HETATM   14  C   UNL     1      40.642 -16.253   2.327  1.00  0.00     0.014 A 
HETATM   15  C   UNL     1      39.762 -15.257   1.895  1.00  0.00     0.031 A 
HETATM   16  C   UNL     1      41.570  -9.865   3.589  1.00  0.00     0.129 C 
HETATM   17  C   UNL     1      40.714  -8.659   3.918  1.00  0.00     0.045 C 
HETATM   18  H   UNL     1      38.328 -13.342   1.071  1.00  0.00     0.169 HD
ENDROOT
BRANCH   1  19
HETATM   19  N   UNL     1      39.969  -9.566   6.107  1.00  0.00    -0.356 N 
HETATM   20  C   UNL     1      39.503  -9.003   7.277  1.00  0.00     0.222 C 
HETATM   21  O   UNL     1      38.667  -8.105   7.300  1.00  0.00    -0.273 OA
HETATM   22  H   UNL     1      40.787 -10.157   6.158  1.00  0.00     0.162 HD
BRANCH  20  23
HETATM   23  C   UNL     1      40.101  -9.567   8.567  1.00  0.00     0.077 C 
BRANCH  23  24
HETATM   24  C   UNL     1      39.095  -9.514   9.729  1.00  0.00     0.009 C 
HETATM   25  C   UNL     1      39.709  -9.925  11.062  1.00  0.00     0.006 C 
ENDBRANCH  23  24
BRANCH  23  26
HETATM   26  C   UNL     1      41.406  -8.846   8.951  1.00  0.00     0.009 C 
HETATM   27  C   UNL     1      42.648  -9.574   8.453  1.00  0.00     0.006 C 
ENDBRANCH  23  26
ENDBRANCH  20  23
ENDBRANCH   1  19
BRANCH  13  28
HETATM   28  C   UNL     1      42.741 -16.929   3.482  1.00  0.00    -0.019 A 
HETATM   29  C   UNL     1      43.103 -17.028   4.813  1.00  0.00     0.061 A 
HETATM   30  S   UNL     1      44.229 -18.285   5.102  1.00  0.00    -0.113 SA
HETATM   31  C   UNL     1      44.260 -18.709   3.447  1.00  0.00     0.050 A 
HETATM   32  C   UNL     1      43.427 -17.911   2.694  1.00  0.00     0.020 A 
ENDBRANCH  13  28
TORSDOF 5
ENDMDL
MODEL 5
REMARK VINA RESULT:      -7.5      3.678      6.066
REMARK  5 active torsions:
REMARK  status: ('A' for Active; 'I' for Inactive)
REMARK    1  A    between atoms: C_2  and  C_3 
REMARK    2  A    between atoms: C_3  and  C_4 
REMARK    3  A    between atoms: C_3  and  C_29 
REMARK       I    between atoms: C_4  and  N_5 
REMARK    4  A    between atoms: N_5  and  C_6 
REMARK    5  A    between atoms: C_18  and  C_19 
ROOT
HETATM    1  C   UNL     1      41.930 -15.889   1.964  1.00  0.00     0.088 C 
HETATM    2  C   UNL     1      42.135 -14.460   1.496  1.00  0.00     0.060 C 
HETATM    3  C   UNL     1      41.709 -13.375   2.505  1.00  0.00     0.181 C 
HETATM    4  N   UNL     1      40.594 -13.723   3.400  1.00  0.00    -0.334 N 
HETATM    5  C   UNL     1      40.297 -12.944   4.526  1.00  0.00     0.256 C 
HETATM    6  O   UNL     1      39.532 -13.349   5.405  1.00  0.00    -0.267 OA
HETATM    7  C   UNL     1      40.932 -11.621   4.751  1.00  0.00     0.059 A 
HETATM    8  C   UNL     1      41.217 -10.690   3.751  1.00  0.00     0.050 A 
HETATM    9  N   UNL     1      41.139 -10.928   2.377  1.00  0.00    -0.324 N 
HETATM   10  C   UNL     1      41.348 -12.099   1.710  1.00  0.00     0.245 C 
HETATM   11  O   UNL     1      41.375 -12.037   0.477  1.00  0.00    -0.271 OA
HETATM   12  C   UNL     1      41.111 -11.254   6.102  1.00  0.00     0.031 A 
HETATM   13  C   UNL     1      41.558  -9.980   6.465  1.00  0.00    -0.024 A 
HETATM   14  C   UNL     1      41.786  -9.041   5.459  1.00  0.00     0.014 A 
HETATM   15  C   UNL     1      41.606  -9.391   4.118  1.00  0.00     0.031 A 
HETATM   16  C   UNL     1      40.153 -15.115   3.535  1.00  0.00     0.129 C 
HETATM   17  C   UNL     1      40.476 -16.042   2.382  1.00  0.00     0.045 C 
HETATM   18  H   UNL     1      41.124 -10.134   1.748  1.00  0.00     0.169 HD
ENDROOT
BRANCH   1  19
HETATM   19  N   UNL     1      42.869 -16.272   3.010  1.00  0.00    -0.356 N 
HETATM   20  C   UNL     1      43.271 -17.583   3.161  1.00  0.00     0.222 C 
HETATM   21  O   UNL     1      42.928 -18.479   2.396  1.00  0.00    -0.273 OA
HETATM   22  H   UNL     1      43.030 -15.635   3.779  1.00  0.00     0.162 HD
BRANCH  20  23
HETATM   23  C   UNL     1      44.179 -17.863   4.360  1.00  0.00     0.077 C 
BRANCH  23  24
HETATM   24  C   UNL     1      44.407 -19.372   4.558  1.00  0.00     0.009 C 
HETATM   25  C   UNL     1      43.713 -19.916   5.800  1.00  0.00     0.006 C 
ENDBRANCH  23  24
BRANCH  23  26
HETATM   26  C   UNL     1      43.630 -17.227   5.650  1.00  0.00     0.009 C 
HETATM   27  C   UNL     1      44.642 -16.317   6.333  1.00  0.00     0.006 C 
ENDBRANCH  23  26
ENDBRANCH  20  23
ENDBRANCH   1  19
BRANCH  13  28
HETATM   28  C   UNL     1      41.753  -9.647   7.873  1.00  0.00    -0.019 A 
HETATM   29  C   UNL     1      40.716  -9.202   8.673  1.00  0.00     0.061 A 
HETATM   30  S   UNL     1      41.217  -8.850  10.272  1.00  0.00    -0.113 SA
HETATM   31  C   UNL     1      42.833  -9.276   9.916  1.00  0.00     0.050 A 
HETATM   32  C   UNL     1      42.984  -9.680   8.608  1.00  0.00     0.020 A 
ENDBRANCH  13  28
TORSDOF 5
ENDMDL
MODEL 6
REMARK VINA RESULT:      -7.5      5.303      8.467
REMARK  5 active torsions:
REMARK  status: ('A' for Active; 'I' for Inactive)
REMARK    1  A    between atoms: C_2  and  C_3 
REMARK    2  A    between atoms: C_3  and  C_4 
REMARK    3  A    between atoms: C_3  and  C_29 
REMARK       I    between atoms: C_4  and  N_5 
REMARK    4  A    between atoms: N_5  and  C_6 
REMARK    5  A    between atoms: C_18  and  C_19 
ROOT
HETATM    1  C   UNL     1      41.178  -7.732   9.229  1.00  0.00     0.088 C 
HETATM    2  C   UNL     1      40.040  -8.402   8.482  1.00  0.00     0.060 C 
HETATM    3  C   UNL     1      40.455  -9.586   7.585  1.00  0.00     0.181 C 
HETATM    4  N   UNL     1      41.803  -9.514   7.000  1.00  0.00    -0.334 N 
HETATM    5  C   UNL     1      42.395 -10.634   6.402  1.00  0.00     0.256 C 
HETATM    6  O   UNL     1      43.597 -10.657   6.125  1.00  0.00    -0.267 OA
HETATM    7  C   UNL     1      41.622 -11.872   6.125  1.00  0.00     0.059 A 
HETATM    8  C   UNL     1      40.297 -11.907   5.691  1.00  0.00     0.050 A 
HETATM    9  N   UNL     1      39.431 -10.812   5.643  1.00  0.00    -0.324 N 
HETATM   10  C   UNL     1      39.411  -9.714   6.452  1.00  0.00     0.245 C 
HETATM   11  O   UNL     1      38.456  -8.944   6.318  1.00  0.00    -0.271 OA
HETATM   12  C   UNL     1      42.362 -13.073   6.173  1.00  0.00     0.031 A 
HETATM   13  C   UNL     1      41.802 -14.297   5.790  1.00  0.00    -0.024 A 
HETATM   14  C   UNL     1      40.494 -14.309   5.307  1.00  0.00     0.014 A 
HETATM   15  C   UNL     1      39.755 -13.125   5.247  1.00  0.00     0.031 A 
HETATM   16  C   UNL     1      42.786  -8.550   7.506  1.00  0.00     0.129 C 
HETATM   17  C   UNL     1      42.235  -7.330   8.213  1.00  0.00     0.045 C 
HETATM   18  H   UNL     1      38.585 -10.887   5.090  1.00  0.00     0.169 HD
ENDROOT
BRANCH   1  19
HETATM   19  N   UNL     1      41.705  -8.564  10.303  1.00  0.00    -0.356 N 
HETATM   20  C   UNL     1      42.490  -8.024  11.302  1.00  0.00     0.222 C 
HETATM   21  O   UNL     1      42.728  -6.823  11.389  1.00  0.00    -0.273 OA
HETATM   22  H   UNL     1      41.713  -9.567  10.184  1.00  0.00     0.162 HD
BRANCH  20  23
HETATM   23  C   UNL     1      43.059  -9.025  12.309  1.00  0.00     0.077 C 
BRANCH  23  24
HETATM   24  C   UNL     1      43.659 -10.256  11.608  1.00  0.00     0.009 C 
HETATM   25  C   UNL     1      44.805  -9.901  10.669  1.00  0.00     0.006 C 
ENDBRANCH  23  24
BRANCH  23  26
HETATM   26  C   UNL     1      42.003  -9.455  13.342  1.00  0.00     0.009 C 
HETATM   27  C   UNL     1      41.973  -8.547  14.565  1.00  0.00     0.006 C 
ENDBRANCH  23  26
ENDBRANCH  20  23
ENDBRANCH   1  19
BRANCH  13  28
HETATM   28  C   UNL     1      42.592 -15.521   5.877  1.00  0.00    -0.019 A 
HETATM   29  C   UNL     1      43.270 -16.037   4.787  1.00  0.00     0.061 A 
HETATM   30  S   UNL     1      44.091 -17.495   5.147  1.00  0.00    -0.113 SA
HETATM   31  C   UNL     1      43.542 -17.467   6.765  1.00  0.00     0.050 A 
HETATM   32  C   UNL     1      42.753 -16.367   7.023  1.00  0.00     0.020 A 
ENDBRANCH  13  28
TORSDOF 5
ENDMDL
MODEL 7
REMARK VINA RESULT:      -7.4      2.625      4.865
REMARK  5 active torsions:
REMARK  status: ('A' for Active; 'I' for Inactive)
REMARK    1  A    between atoms: C_2  and  C_3 
REMARK    2  A    between atoms: C_3  and  C_4 
REMARK    3  A    between atoms: C_3  and  C_29 
REMARK       I    between atoms: C_4  and  N_5 
REMARK    4  A    between atoms: N_5  and  C_6 
REMARK    5  A    between atoms: C_18  and  C_19 
ROOT
HETATM    1  C   UNL     1      42.594 -14.556   5.629  1.00  0.00     0.088 C 
HETATM    2  C   UNL     1      42.591 -15.329   4.323  1.00  0.00     0.060 C 
HETATM    3  C   UNL     1      41.638 -14.779   3.241  1.00  0.00     0.181 C 
HETATM    4  N   UNL     1      40.419 -14.115   3.728  1.00  0.00    -0.334 N 
HETATM    5  C   UNL     1      39.622 -13.343   2.872  1.00  0.00     0.256 C 
HETATM    6  O   UNL     1      38.744 -12.596   3.309  1.00  0.00    -0.267 OA
HETATM    7  C   UNL     1      39.832 -13.338   1.402  1.00  0.00     0.059 A 
HETATM    8  C   UNL     1      40.180 -14.454   0.639  1.00  0.00     0.050 A 
HETATM    9  N   UNL     1      40.579 -15.691   1.150  1.00  0.00    -0.324 N 
HETATM   10  C   UNL     1      41.247 -15.950   2.311  1.00  0.00     0.245 C 
HETATM   11  O   UNL     1      41.630 -17.111   2.483  1.00  0.00    -0.271 OA
HETATM   12  C   UNL     1      39.503 -12.133   0.745  1.00  0.00     0.031 A 
HETATM   13  C   UNL     1      39.509 -12.030  -0.650  1.00  0.00    -0.024 A 
HETATM   14  C   UNL     1      39.805 -13.168  -1.401  1.00  0.00     0.014 A 
HETATM   15  C   UNL     1      40.125 -14.368  -0.762  1.00  0.00     0.031 A 
HETATM   16  C   UNL     1      40.295 -13.720   5.134  1.00  0.00     0.129 C 
HETATM   17  C   UNL     1      41.159 -14.470   6.127  1.00  0.00     0.045 C 
HETATM   18  H   UNL     1      40.570 -16.496   0.534  1.00  0.00     0.169 HD
ENDROOT
BRANCH   1  19
HETATM   19  N   UNL     1      43.234 -13.253   5.504  1.00  0.00    -0.356 N 
HETATM   20  C   UNL     1      43.797 -12.629   6.598  1.00  0.00     0.222 C 
HETATM   21  O   UNL     1      43.858 -13.151   7.707  1.00  0.00    -0.273 OA
HETATM   22  H   UNL     1      43.048 -12.694   4.683  1.00  0.00     0.162 HD
BRANCH  20  23
HETATM   23  C   UNL     1      44.346 -11.223   6.348  1.00  0.00     0.077 C 
BRANCH  23  24
HETATM   24  C   UNL     1      45.862 -11.153   6.604  1.00  0.00     0.009 C 
HETATM   25  C   UNL     1      46.218 -10.294   7.810  1.00  0.00     0.006 C 
ENDBRANCH  23  24
BRANCH  23  26
HETATM   26  C   UNL     1      43.608 -10.167   7.191  1.00  0.00     0.009 C 
HETATM   27  C   UNL     1      42.168  -9.958   6.741  1.00  0.00     0.006 C 
ENDBRANCH  23  26
ENDBRANCH  20  23
ENDBRANCH   1  19
BRANCH  13  28
HETATM   28  C   UNL     1      39.186 -10.759  -1.291  1.00  0.00    -0.019 A 
HETATM   29  C   UNL     1      39.121  -9.575  -0.581  1.00  0.00     0.061 A 
HETATM   30  S   UNL     1      38.691  -8.238  -1.561  1.00  0.00    -0.113 SA
HETATM   31  C   UNL     1      38.574  -9.226  -2.949  1.00  0.00     0.050 A 
HETATM   32  C   UNL     1      38.859 -10.544  -2.671  1.00  0.00     0.020 A 
ENDBRANCH  13  28
TORSDOF 5
ENDMDL
MODEL 8
REMARK VINA RESULT:      -7.4      3.622      6.116
REMARK  5 active torsions:
REMARK  status: ('A' for Active; 'I' for Inactive)
REMARK    1  A    between atoms: C_2  and  C_3 
REMARK    2  A    between atoms: C_3  and  C_4 
REMARK    3  A    between atoms: C_3  and  C_29 
REMARK       I    between atoms: C_4  and  N_5 
REMARK    4  A    between atoms: N_5  and  C_6 
REMARK    5  A    between atoms: C_18  and  C_19 
ROOT
HETATM    1  C   UNL     1      41.673 -15.156   1.641  1.00  0.00     0.088 C 
HETATM    2  C   UNL     1      40.918 -14.996   2.948  1.00  0.00     0.060 C 
HETATM    3  C   UNL     1      41.221 -13.697   3.722  1.00  0.00     0.181 C 
HETATM    4  N   UNL     1      42.576 -13.147   3.561  1.00  0.00    -0.334 N 
HETATM    5  C   UNL     1      42.886 -11.847   3.982  1.00  0.00     0.256 C 
HETATM    6  O   UNL     1      43.935 -11.294   3.643  1.00  0.00    -0.267 OA
HETATM    7  C   UNL     1      41.945 -11.048   4.807  1.00  0.00     0.059 A 
HETATM    8  C   UNL     1      41.141 -11.559   5.826  1.00  0.00     0.050 A 
HETATM    9  N   UNL     1      40.941 -12.915   6.096  1.00  0.00    -0.324 N 
HETATM   10  C   UNL     1      40.950 -13.962   5.221  1.00  0.00     0.245 C 
HETATM   11  O   UNL     1      40.596 -15.058   5.664  1.00  0.00    -0.271 OA
HETATM   12  C   UNL     1      42.007  -9.651   4.617  1.00  0.00     0.031 A 
HETATM   13  C   UNL     1      41.288  -8.766   5.427  1.00  0.00    -0.024 A 
HETATM   14  C   UNL     1      40.531  -9.288   6.476  1.00  0.00     0.014 A 
HETATM   15  C   UNL     1      40.469 -10.668   6.679  1.00  0.00     0.031 A 
HETATM   16  C   UNL     1      43.452 -13.623   2.485  1.00  0.00     0.129 C 
HETATM   17  C   UNL     1      43.157 -15.002   1.933  1.00  0.00     0.045 C 
HETATM   18  H   UNL     1      40.547 -13.178   6.992  1.00  0.00     0.169 HD
ENDROOT
BRANCH   1  19
HETATM   19  N   UNL     1      41.197 -14.244   0.608  1.00  0.00    -0.356 N 
HETATM   20  C   UNL     1      40.133 -14.580  -0.203  1.00  0.00     0.222 C 
HETATM   21  O   UNL     1      39.486 -15.613  -0.063  1.00  0.00    -0.273 OA
HETATM   22  H   UNL     1      41.795 -13.484   0.316  1.00  0.00     0.162 HD
BRANCH  20  23
HETATM   23  C   UNL     1      39.802 -13.577  -1.309  1.00  0.00     0.077 C 
BRANCH  23  24
HETATM   24  C   UNL     1      39.820 -14.238  -2.698  1.00  0.00     0.009 C 
HETATM   25  C   UNL     1      38.424 -14.533  -3.231  1.00  0.00     0.006 C 
ENDBRANCH  23  24
BRANCH  23  26
HETATM   26  C   UNL     1      40.748 -12.363  -1.278  1.00  0.00     0.009 C 
HETATM   27  C   UNL     1      41.238 -11.964  -2.664  1.00  0.00     0.006 C 
ENDBRANCH  23  26
ENDBRANCH  20  23
ENDBRANCH   1  19
BRANCH  13  28
HETATM   28  C   UNL     1      41.359  -7.328   5.183  1.00  0.00    -0.019 A 
HETATM   29  C   UNL     1      41.106  -6.782   3.938  1.00  0.00     0.061 A 
HETATM   30  S   UNL     1      41.288  -5.080   3.912  1.00  0.00    -0.113 SA
HETATM   31  C   UNL     1      41.721  -5.048   5.564  1.00  0.00     0.050 A 
HETATM   32  C   UNL     1      41.723  -6.307   6.122  1.00  0.00     0.020 A 
ENDBRANCH  13  28
TORSDOF 5
ENDMDL
MODEL 9
REMARK VINA RESULT:      -7.2     16.469     19.293
REMARK  5 active torsions:
REMARK  status: ('A' for Active; 'I' for Inactive)
REMARK    1  A    between atoms: C_2  and  C_3 
REMARK    2  A    between atoms: C_3  and  C_4 
REMARK    3  A    between atoms: C_3  and  C_29 
REMARK       I    between atoms: C_4  and  N_5 
REMARK    4  A    between atoms: N_5  and  C_6 
REMARK    5  A    between atoms: C_18  and  C_19 
ROOT
HETATM    1  C   UNL     1      47.759 -29.102  -2.197  1.00  0.00     0.088 C 
HETATM    2  C   UNL     1      48.826 -29.838  -1.407  1.00  0.00     0.060 C 
HETATM    3  C   UNL     1      48.533 -29.992   0.099  1.00  0.00     0.181 C 
HETATM    4  N   UNL     1      47.743 -28.917   0.719  1.00  0.00    -0.334 N 
HETATM    5  C   UNL     1      47.184 -29.071   1.995  1.00  0.00     0.256 C 
HETATM    6  O   UNL     1      46.332 -28.289   2.424  1.00  0.00    -0.267 OA
HETATM    7  C   UNL     1      47.542 -30.215   2.872  1.00  0.00     0.059 A 
HETATM    8  C   UNL     1      48.817 -30.769   2.983  1.00  0.00     0.050 A 
HETATM    9  N   UNL     1      49.902 -30.478   2.152  1.00  0.00    -0.324 N 
HETATM   10  C   UNL     1      49.887 -30.122   0.836  1.00  0.00     0.245 C 
HETATM   11  O   UNL     1      50.979 -30.062   0.265  1.00  0.00    -0.271 OA
HETATM   12  C   UNL     1      46.525 -30.649   3.749  1.00  0.00     0.031 A 
HETATM   13  C   UNL     1      46.765 -31.615   4.733  1.00  0.00    -0.024 A 
HETATM   14  C   UNL     1      48.058 -32.121   4.868  1.00  0.00     0.014 A 
HETATM   15  C   UNL     1      49.074 -31.693   4.010  1.00  0.00     0.031 A 
HETATM   16  C   UNL     1      47.014 -27.952  -0.111  1.00  0.00     0.129 C 
HETATM   17  C   UNL     1      47.520 -27.758  -1.525  1.00  0.00     0.045 C 
HETATM   18  H   UNL     1      50.832 -30.737   2.461  1.00  0.00     0.169 HD
ENDROOT
BRANCH   1  19
HETATM   19  N   UNL     1      46.541 -29.886  -2.353  1.00  0.00    -0.356 N 
HETATM   20  C   UNL     1      45.511 -29.449  -3.160  1.00  0.00     0.222 C 
HETATM   21  O   UNL     1      45.582 -28.429  -3.840  1.00  0.00    -0.273 OA
HETATM   22  H   UNL     1      46.341 -30.616  -1.684  1.00  0.00     0.162 HD
BRANCH  20  23
HETATM   23  C   UNL     1      44.252 -30.318  -3.156  1.00  0.00     0.077 C 
BRANCH  23  24
HETATM   24  C   UNL     1      44.035 -30.995  -1.792  1.00  0.00     0.009 C 
HETATM   25  C   UNL     1      43.963 -32.513  -1.890  1.00  0.00     0.006 C 
ENDBRANCH  23  24
BRANCH  23  26
HETATM   26  C   UNL     1      44.284 -31.369  -4.280  1.00  0.00     0.009 C 
HETATM   27  C   UNL     1      43.974 -30.776  -5.649  1.00  0.00     0.006 C 
ENDBRANCH  23  26
ENDBRANCH  20  23
ENDBRANCH   1  19
BRANCH  13  28
HETATM   28  C   UNL     1      45.681 -32.055   5.606  1.00  0.00    -0.019 A 
HETATM   29  C   UNL     1      44.406 -32.297   5.128  1.00  0.00     0.061 A 
HETATM   30  S   UNL     1      43.316 -32.770   6.360  1.00  0.00    -0.113 SA
HETATM   31  C   UNL     1      44.530 -32.646   7.555  1.00  0.00     0.050 A 
HETATM   32  C   UNL     1      45.740 -32.257   7.024  1.00  0.00     0.020 A 
ENDBRANCH  13  28
TORSDOF 5
ENDMDL
MODEL 10
REMARK VINA RESULT:      -7.0      3.567      8.000
REMARK  5 active torsions:
REMARK  status: ('A' for Active; 'I' for Inactive)
REMARK    1  A    between atoms: C_2  and  C_3 
REMARK    2  A    between atoms: C_3  and  C_4 
REMARK    3  A    between atoms: C_3  and  C_29 
REMARK       I    between atoms: C_4  and  N_5 
REMARK    4  A    between atoms: N_5  and  C_6 
REMARK    5  A    between atoms: C_18  and  C_19 
ROOT
HETATM    1  C   UNL     1      39.608 -13.816   1.121  1.00  0.00     0.088 C 
HETATM    2  C   UNL     1      39.905 -14.700   2.318  1.00  0.00     0.060 C 
HETATM    3  C   UNL     1      41.040 -14.200   3.234  1.00  0.00     0.181 C 
HETATM    4  N   UNL     1      42.111 -13.433   2.580  1.00  0.00    -0.334 N 
HETATM    5  C   UNL     1      43.041 -12.700   3.329  1.00  0.00     0.256 C 
HETATM    6  O   UNL     1      43.786 -11.872   2.799  1.00  0.00    -0.267 OA
HETATM    7  C   UNL     1      43.137 -12.837   4.805  1.00  0.00     0.059 A 
HETATM    8  C   UNL     1      42.990 -14.033   5.509  1.00  0.00     0.050 A 
HETATM    9  N   UNL     1      42.535 -15.239   4.970  1.00  0.00    -0.324 N 
HETATM   10  C   UNL     1      41.652 -15.428   3.948  1.00  0.00     0.245 C 
HETATM   11  O   UNL     1      41.280 -16.587   3.744  1.00  0.00    -0.271 OA
HETATM   12  C   UNL     1      43.554 -11.680   5.496  1.00  0.00     0.031 A 
HETATM   13  C   UNL     1      43.831 -11.702   6.867  1.00  0.00    -0.024 A 
HETATM   14  C   UNL     1      43.733 -12.916   7.547  1.00  0.00     0.014 A 
HETATM   15  C   UNL     1      43.328 -14.070   6.872  1.00  0.00     0.031 A 
HETATM   16  C   UNL     1      41.930 -12.909   1.222  1.00  0.00     0.129 C 
HETATM   17  C   UNL     1      40.906 -13.611   0.356  1.00  0.00     0.045 C 
HETATM   18  H   UNL     1      42.697 -16.094   5.490  1.00  0.00     0.169 HD
ENDROOT
BRANCH   1  19
HETATM   19  N   UNL     1      38.965 -12.565   1.499  1.00  0.00    -0.356 N 
HETATM   20  C   UNL     1      38.326 -11.781   0.560  1.00  0.00     0.222 C 
HETATM   21  O   UNL     1      38.200 -12.114  -0.614  1.00  0.00    -0.273 OA
HETATM   22  H   UNL     1      39.198 -12.144   2.388  1.00  0.00     0.162 HD
BRANCH  20  23
HETATM   23  C   UNL     1      37.781 -10.447   1.072  1.00  0.00     0.077 C 
BRANCH  23  24
HETATM   24  C   UNL     1      38.159 -10.207   2.545  1.00  0.00     0.009 C 
HETATM   25  C   UNL     1      38.217  -8.729   2.907  1.00  0.00     0.006 C 
ENDBRANCH  23  24
BRANCH  23  26
HETATM   26  C   UNL     1      36.256 -10.347   0.885  1.00  0.00     0.009 C 
HETATM   27  C   UNL     1      35.857  -9.275  -0.121  1.00  0.00     0.006 C 
ENDBRANCH  23  26
ENDBRANCH  20  23
ENDBRANCH   1  19
BRANCH  13  28
HETATM   28  C   UNL     1      44.237 -10.478   7.551  1.00  0.00    -0.019 A 
HETATM   29  C   UNL     1      43.322  -9.517   7.941  1.00  0.00     0.061 A 
HETATM   30  S   UNL     1      44.059  -8.167   8.693  1.00  0.00    -0.113 SA
HETATM   31  C   UNL     1      45.616  -8.841   8.497  1.00  0.00     0.050 A 
HETATM   32  C   UNL     1      45.573 -10.070   7.876  1.00  0.00     0.020 A 
ENDBRANCH  13  28
TORSDOF 5
ENDMDL
