MODEL 1
REMARK VINA RESULT:      -8.9      0.000      0.000
REMARK  3 active torsions:
REMARK  status: ('A' for Active; 'I' for Inactive)
REMARK    1  A    between atoms: O_2  and  C_3 
REMARK    2  A    between atoms: C_7  and  C_8 
REMARK       I    between atoms: C_8  and  N_9 
REMARK    3  A    between atoms: C_15  and  C_16 
ROOT
HETATM    1  C   UNL     1      40.084 -12.279  -0.173  1.00  0.00     0.254 C 
HETATM    2  N   UNL     1      40.763 -12.998   0.815  1.00  0.00    -0.342 N 
HETATM    3  C   UNL     1      40.427 -14.413   1.127  1.00  0.00     0.187 C 
HETATM    4  C   UNL     1      41.469 -14.998   2.017  1.00  0.00     0.077 A 
HETATM    5  C   UNL     1      42.450 -14.272   2.642  1.00  0.00     0.039 A 
HETATM    6  N   UNL     1      43.173 -15.165   3.369  1.00  0.00    -0.342 N 
HETATM    7  H   UNL     1      43.975 -14.975   3.956  1.00  0.00     0.167 HD
HETATM    8  C   UNL     1      42.626 -16.418   3.154  1.00  0.00     0.141 A 
HETATM    9  N   UNL     1      41.587 -16.326   2.334  1.00  0.00    -0.231 NA
HETATM   10  C   UNL     1      42.655 -12.817   2.494  1.00  0.00     0.079 C 
HETATM   11  C   UNL     1      41.366 -12.197   1.908  1.00  0.00     0.132 C 
HETATM   12  O   UNL     1      40.047 -11.051  -0.213  1.00  0.00    -0.267 OA
ENDROOT
BRANCH   1  13
HETATM   13  C   UNL     1      39.357 -13.000  -1.235  1.00  0.00     0.037 A 
HETATM   14  C   UNL     1      39.930 -14.088  -1.888  1.00  0.00     0.036 A 
HETATM   15  C   UNL     1      39.199 -14.675  -2.904  1.00  0.00     0.120 A 
HETATM   16  N   UNL     1      37.983 -14.242  -3.302  1.00  0.00    -0.237 NA
HETATM   17  C   UNL     1      37.477 -13.159  -2.670  1.00  0.00     0.164 A 
HETATM   18  C   UNL     1      38.121 -12.506  -1.638  1.00  0.00     0.075 A 
BRANCH  17  19
HETATM   19  O   UNL     1      36.252 -12.647  -3.045  1.00  0.00    -0.339 OA
HETATM   20  C   UNL     1      36.221 -11.224  -3.063  1.00  0.00     0.211 C 
ENDBRANCH  17  19
ENDBRANCH   1  13
BRANCH   8  21
HETATM   21  C   UNL     1      43.153 -17.650   3.748  1.00  0.00     0.049 A 
HETATM   22  C   UNL     1      43.468 -18.780   2.979  1.00  0.00     0.133 A 
HETATM   23  F   UNL     1      43.293 -18.766   1.647  1.00  0.00    -0.205 F 
HETATM   24  C   UNL     1      43.964 -19.944   3.560  1.00  0.00     0.085 A 
HETATM   25  C   UNL     1      44.147 -19.985   4.934  1.00  0.00     0.119 A 
HETATM   26  F   UNL     1      44.620 -21.100   5.503  1.00  0.00    -0.206 F 
HETATM   27  C   UNL     1      43.846 -18.885   5.730  1.00  0.00     0.043 A 
HETATM   28  C   UNL     1      43.353 -17.719   5.137  1.00  0.00     0.021 A 
ENDBRANCH   8  21
TORSDOF 3
ENDMDL
MODEL 2
REMARK VINA RESULT:      -8.7      1.307      1.617
REMARK  3 active torsions:
REMARK  status: ('A' for Active; 'I' for Inactive)
REMARK    1  A    between atoms: O_2  and  C_3 
REMARK    2  A    between atoms: C_7  and  C_8 
REMARK       I    between atoms: C_8  and  N_9 
REMARK    3  A    between atoms: C_15  and  C_16 
ROOT
HETATM    1  C   UNL     1      40.915 -11.436   0.571  1.00  0.00     0.254 C 
HETATM    2  N   UNL     1      41.330 -12.312   1.577  1.00  0.00    -0.342 N 
HETATM    3  C   UNL     1      41.078 -13.776   1.498  1.00  0.00     0.187 C 
HETATM    4  C   UNL     1      41.852 -14.482   2.558  1.00  0.00     0.077 A 
HETATM    5  C   UNL     1      42.500 -13.856   3.592  1.00  0.00     0.039 A 
HETATM    6  N   UNL     1      43.058 -14.845   4.339  1.00  0.00    -0.342 N 
HETATM    7  H   UNL     1      43.610 -14.743   5.182  1.00  0.00     0.167 HD
HETATM    8  C   UNL     1      42.753 -16.050   3.732  1.00  0.00     0.141 A 
HETATM    9  N   UNL     1      42.017 -15.839   2.648  1.00  0.00    -0.231 NA
HETATM   10  C   UNL     1      42.572 -12.394   3.788  1.00  0.00     0.079 C 
HETATM   11  C   UNL     1      41.467 -11.729   2.935  1.00  0.00     0.132 C 
HETATM   12  O   UNL     1      40.752 -10.230   0.745  1.00  0.00    -0.267 OA
ENDROOT
BRANCH   1  13
HETATM   13  C   UNL     1      40.642 -11.953  -0.784  1.00  0.00     0.037 A 
HETATM   14  C   UNL     1      41.475 -11.641  -1.855  1.00  0.00     0.036 A 
HETATM   15  C   UNL     1      41.119 -12.127  -3.098  1.00  0.00     0.120 A 
HETATM   16  N   UNL     1      40.009 -12.863  -3.329  1.00  0.00    -0.237 NA
HETATM   17  C   UNL     1      39.205 -13.111  -2.271  1.00  0.00     0.164 A 
HETATM   18  C   UNL     1      39.474 -12.681  -0.987  1.00  0.00     0.075 A 
BRANCH  17  19
HETATM   19  O   UNL     1      38.041 -13.834  -2.439  1.00  0.00    -0.339 OA
HETATM   20  C   UNL     1      38.155 -14.857  -3.422  1.00  0.00     0.211 C 
ENDBRANCH  17  19
ENDBRANCH   1  13
BRANCH   8  21
HETATM   21  C   UNL     1      43.206 -17.352   4.231  1.00  0.00     0.049 A 
HETATM   22  C   UNL     1      43.647 -18.372   3.375  1.00  0.00     0.133 A 
HETATM   23  F   UNL     1      43.668 -18.181   2.045  1.00  0.00    -0.205 F 
HETATM   24  C   UNL     1      44.071 -19.604   3.864  1.00  0.00     0.085 A 
HETATM   25  C   UNL     1      44.054 -19.826   5.233  1.00  0.00     0.119 A 
HETATM   26  F   UNL     1      44.456 -21.008   5.714  1.00  0.00    -0.206 F 
HETATM   27  C   UNL     1      43.623 -18.839   6.113  1.00  0.00     0.043 A 
HETATM   28  C   UNL     1      43.204 -17.604   5.612  1.00  0.00     0.021 A 
ENDBRANCH   8  21
TORSDOF 3
ENDMDL
MODEL 3
REMARK VINA RESULT:      -8.7      5.537      8.596
REMARK  3 active torsions:
REMARK  status: ('A' for Active; 'I' for Inactive)
REMARK    1  A    between atoms: O_2  and  C_3 
REMARK    2  A    between atoms: C_7  and  C_8 
REMARK       I    between atoms: C_8  and  N_9 
REMARK    3  A    between atoms: C_15  and  C_16 
ROOT
HETATM    1  C   UNL     1      42.786 -10.106   7.111  1.00  0.00     0.254 C 
HETATM    2  N   UNL     1      42.685 -11.351   6.485  1.00  0.00    -0.342 N 
HETATM    3  C   UNL     1      43.751 -12.381   6.606  1.00  0.00     0.187 C 
HETATM    4  C   UNL     1      43.264 -13.683   6.069  1.00  0.00     0.077 A 
HETATM    5  C   UNL     1      42.104 -13.840   5.354  1.00  0.00     0.039 A 
HETATM    6  N   UNL     1      42.037 -15.159   5.034  1.00  0.00    -0.342 N 
HETATM    7  H   UNL     1      41.311 -15.629   4.507  1.00  0.00     0.167 HD
HETATM    8  C   UNL     1      43.148 -15.778   5.578  1.00  0.00     0.141 A 
HETATM    9  N   UNL     1      43.902 -14.887   6.208  1.00  0.00    -0.231 NA
HETATM   10  C   UNL     1      41.141 -12.763   5.050  1.00  0.00     0.079 C 
HETATM   11  C   UNL     1      41.843 -11.402   5.264  1.00  0.00     0.132 C 
HETATM   12  O   UNL     1      42.157  -9.113   6.752  1.00  0.00    -0.267 OA
ENDROOT
BRANCH   1  13
HETATM   13  C   UNL     1      43.693  -9.937   8.262  1.00  0.00     0.037 A 
HETATM   14  C   UNL     1      44.953  -9.364   8.108  1.00  0.00     0.036 A 
HETATM   15  C   UNL     1      45.756  -9.289   9.230  1.00  0.00     0.120 A 
HETATM   16  N   UNL     1      45.396  -9.753  10.446  1.00  0.00    -0.237 NA
HETATM   17  C   UNL     1      44.181 -10.338  10.547  1.00  0.00     0.164 A 
HETATM   18  C   UNL     1      43.299 -10.455   9.491  1.00  0.00     0.075 A 
BRANCH  17  19
HETATM   19  O   UNL     1      43.760 -10.858  11.754  1.00  0.00    -0.339 OA
HETATM   20  C   UNL     1      42.687 -10.125  12.335  1.00  0.00     0.211 C 
ENDBRANCH  17  19
ENDBRANCH   1  13
BRANCH   8  21
HETATM   21  C   UNL     1      43.415 -17.216   5.469  1.00  0.00     0.049 A 
HETATM   22  C   UNL     1      43.793 -17.821   4.262  1.00  0.00     0.133 A 
HETATM   23  F   UNL     1      43.925 -17.085   3.145  1.00  0.00    -0.205 F 
HETATM   24  C   UNL     1      44.040 -19.188   4.175  1.00  0.00     0.085 A 
HETATM   25  C   UNL     1      43.905 -19.969   5.313  1.00  0.00     0.119 A 
HETATM   26  F   UNL     1      44.137 -21.285   5.240  1.00  0.00    -0.206 F 
HETATM   27  C   UNL     1      43.532 -19.406   6.529  1.00  0.00     0.043 A 
HETATM   28  C   UNL     1      43.291 -18.031   6.606  1.00  0.00     0.021 A 
ENDBRANCH   8  21
TORSDOF 3
ENDMDL
MODEL 4
REMARK VINA RESULT:      -8.5      4.572      6.007
REMARK  3 active torsions:
REMARK  status: ('A' for Active; 'I' for Inactive)
REMARK    1  A    between atoms: O_2  and  C_3 
REMARK    2  A    between atoms: C_7  and  C_8 
REMARK       I    between atoms: C_8  and  N_9 
REMARK    3  A    between atoms: C_15  and  C_16 
ROOT
HETATM    1  C   UNL     1      40.165 -15.107   1.354  1.00  0.00     0.254 C 
HETATM    2  N   UNL     1      40.943 -14.795   2.471  1.00  0.00    -0.342 N 
HETATM    3  C   UNL     1      41.876 -13.637   2.481  1.00  0.00     0.187 C 
HETATM    4  C   UNL     1      42.365 -13.389   3.867  1.00  0.00     0.077 A 
HETATM    5  C   UNL     1      42.172 -14.246   4.920  1.00  0.00     0.039 A 
HETATM    6  N   UNL     1      42.784 -13.670   5.989  1.00  0.00    -0.342 N 
HETATM    7  H   UNL     1      42.840 -14.030   6.934  1.00  0.00     0.167 HD
HETATM    8  C   UNL     1      43.318 -12.466   5.565  1.00  0.00     0.141 A 
HETATM    9  N   UNL     1      43.070 -12.288   4.275  1.00  0.00    -0.231 NA
HETATM   10  C   UNL     1      41.416 -15.513   4.858  1.00  0.00     0.079 C 
HETATM   11  C   UNL     1      41.271 -15.925   3.375  1.00  0.00     0.132 C 
HETATM   12  O   UNL     1      39.687 -16.221   1.148  1.00  0.00    -0.267 OA
ENDROOT
BRANCH   1  13
HETATM   13  C   UNL     1      39.887 -14.069   0.342  1.00  0.00     0.037 A 
HETATM   14  C   UNL     1      39.593 -12.760   0.715  1.00  0.00     0.036 A 
HETATM   15  C   UNL     1      39.297 -11.864  -0.295  1.00  0.00     0.120 A 
HETATM   16  N   UNL     1      39.261 -12.192  -1.605  1.00  0.00    -0.237 NA
HETATM   17  C   UNL     1      39.514 -13.481  -1.924  1.00  0.00     0.164 A 
HETATM   18  C   UNL     1      39.829 -14.452  -0.994  1.00  0.00     0.075 A 
BRANCH  17  19
HETATM   19  O   UNL     1      39.467 -13.891  -3.241  1.00  0.00    -0.339 OA
HETATM   20  C   UNL     1      38.302 -14.648  -3.551  1.00  0.00     0.211 C 
ENDBRANCH  17  19
ENDBRANCH   1  13
BRANCH   8  21
HETATM   21  C   UNL     1      44.034 -11.537   6.445  1.00  0.00     0.049 A 
HETATM   22  C   UNL     1      43.375 -10.550   7.192  1.00  0.00     0.133 A 
HETATM   23  F   UNL     1      42.039 -10.424   7.121  1.00  0.00    -0.205 F 
HETATM   24  C   UNL     1      44.070  -9.674   8.020  1.00  0.00     0.085 A 
HETATM   25  C   UNL     1      45.450  -9.781   8.105  1.00  0.00     0.119 A 
HETATM   26  F   UNL     1      46.130  -8.941   8.895  1.00  0.00    -0.206 F 
HETATM   27  C   UNL     1      46.140 -10.747   7.380  1.00  0.00     0.043 A 
HETATM   28  C   UNL     1      45.432 -11.625   6.554  1.00  0.00     0.021 A 
ENDBRANCH   8  21
TORSDOF 3
ENDMDL
MODEL 5
REMARK VINA RESULT:      -8.4      5.730      8.728
REMARK  3 active torsions:
REMARK  status: ('A' for Active; 'I' for Inactive)
REMARK    1  A    between atoms: O_2  and  C_3 
REMARK    2  A    between atoms: C_7  and  C_8 
REMARK       I    between atoms: C_8  and  N_9 
REMARK    3  A    between atoms: C_15  and  C_16 
ROOT
HETATM    1  C   UNL     1      43.197 -15.974   2.774  1.00  0.00     0.254 C 
HETATM    2  N   UNL     1      43.152 -14.742   3.431  1.00  0.00    -0.342 N 
HETATM    3  C   UNL     1      42.897 -14.639   4.893  1.00  0.00     0.187 C 
HETATM    4  C   UNL     1      43.167 -13.250   5.360  1.00  0.00     0.077 A 
HETATM    5  C   UNL     1      43.382 -12.181   4.527  1.00  0.00     0.039 A 
HETATM    6  N   UNL     1      43.565 -11.105   5.338  1.00  0.00    -0.342 N 
HETATM    7  H   UNL     1      43.747 -10.149   5.060  1.00  0.00     0.167 HD
HETATM    8  C   UNL     1      43.478 -11.548   6.645  1.00  0.00     0.141 A 
HETATM    9  N   UNL     1      43.234 -12.852   6.669  1.00  0.00    -0.231 NA
HETATM   10  C   UNL     1      43.425 -12.248   3.053  1.00  0.00     0.079 C 
HETATM   11  C   UNL     1      42.768 -13.573   2.602  1.00  0.00     0.132 C 
HETATM   12  O   UNL     1      43.024 -16.105   1.564  1.00  0.00    -0.267 OA
ENDROOT
BRANCH   1  13
HETATM   13  C   UNL     1      43.457 -17.206   3.544  1.00  0.00     0.037 A 
HETATM   14  C   UNL     1      43.755 -17.155   4.903  1.00  0.00     0.036 A 
HETATM   15  C   UNL     1      44.033 -18.351   5.536  1.00  0.00     0.120 A 
HETATM   16  N   UNL     1      44.050 -19.548   4.909  1.00  0.00    -0.237 NA
HETATM   17  C   UNL     1      43.794 -19.551   3.582  1.00  0.00     0.164 A 
HETATM   18  C   UNL     1      43.495 -18.415   2.857  1.00  0.00     0.075 A 
BRANCH  17  19
HETATM   19  O   UNL     1      43.821 -20.735   2.873  1.00  0.00    -0.339 OA
HETATM   20  C   UNL     1      43.532 -20.567   1.490  1.00  0.00     0.211 C 
ENDBRANCH  17  19
ENDBRANCH   1  13
BRANCH   8  21
HETATM   21  C   UNL     1      43.651 -10.679   7.814  1.00  0.00     0.049 A 
HETATM   22  C   UNL     1      44.879 -10.550   8.479  1.00  0.00     0.133 A 
HETATM   23  F   UNL     1      45.956 -11.233   8.054  1.00  0.00    -0.205 F 
HETATM   24  C   UNL     1      45.026  -9.724   9.589  1.00  0.00     0.085 A 
HETATM   25  C   UNL     1      43.928  -9.013  10.048  1.00  0.00     0.119 A 
HETATM   26  F   UNL     1      44.057  -8.218  11.117  1.00  0.00    -0.206 F 
HETATM   27  C   UNL     1      42.693  -9.115   9.416  1.00  0.00     0.043 A 
HETATM   28  C   UNL     1      42.557  -9.945   8.299  1.00  0.00     0.021 A 
ENDBRANCH   8  21
TORSDOF 3
ENDMDL
MODEL 6
REMARK VINA RESULT:      -8.4      5.449      8.443
REMARK  3 active torsions:
REMARK  status: ('A' for Active; 'I' for Inactive)
REMARK    1  A    between atoms: O_2  and  C_3 
REMARK    2  A    between atoms: C_7  and  C_8 
REMARK       I    between atoms: C_8  and  N_9 
REMARK    3  A    between atoms: C_15  and  C_16 
ROOT
HETATM    1  C   UNL     1      40.997  -9.554   7.408  1.00  0.00     0.254 C 
HETATM    2  N   UNL     1      41.030 -10.652   6.544  1.00  0.00    -0.342 N 
HETATM    3  C   UNL     1      42.297 -11.364   6.226  1.00  0.00     0.187 C 
HETATM    4  C   UNL     1      41.999 -12.634   5.506  1.00  0.00     0.077 A 
HETATM    5  C   UNL     1      40.767 -12.969   5.005  1.00  0.00     0.039 A 
HETATM    6  N   UNL     1      40.921 -14.182   4.411  1.00  0.00    -0.342 N 
HETATM    7  H   UNL     1      40.214 -14.730   3.936  1.00  0.00     0.167 HD
HETATM    8  C   UNL     1      42.239 -14.566   4.581  1.00  0.00     0.141 A 
HETATM    9  N   UNL     1      42.904 -13.629   5.245  1.00  0.00    -0.231 NA
HETATM   10  C   UNL     1      39.544 -12.154   5.141  1.00  0.00     0.079 C 
HETATM   11  C   UNL     1      39.954 -10.714   5.524  1.00  0.00     0.132 C 
HETATM   12  O   UNL     1      40.095  -8.719   7.410  1.00  0.00    -0.267 OA
ENDROOT
BRANCH   1  13
HETATM   13  C   UNL     1      42.091  -9.351   8.377  1.00  0.00     0.037 A 
HETATM   14  C   UNL     1      41.892  -9.553   9.740  1.00  0.00     0.036 A 
HETATM   15  C   UNL     1      42.956  -9.293  10.582  1.00  0.00     0.120 A 
HETATM   16  N   UNL     1      44.158  -8.841  10.159  1.00  0.00    -0.237 NA
HETATM   17  C   UNL     1      44.300  -8.620   8.833  1.00  0.00     0.164 A 
HETATM   18  C   UNL     1      43.303  -8.857   7.907  1.00  0.00     0.075 A 
BRANCH  17  19
HETATM   19  O   UNL     1      45.491  -8.134   8.335  1.00  0.00    -0.339 OA
HETATM   20  C   UNL     1      46.403  -9.161   7.961  1.00  0.00     0.211 C 
ENDBRANCH  17  19
ENDBRANCH   1  13
BRANCH   8  21
HETATM   21  C   UNL     1      42.787 -15.838   4.099  1.00  0.00     0.049 A 
HETATM   22  C   UNL     1      43.514 -16.705   4.928  1.00  0.00     0.133 A 
HETATM   23  F   UNL     1      43.733 -16.389   6.215  1.00  0.00    -0.205 F 
HETATM   24  C   UNL     1      44.030 -17.907   4.453  1.00  0.00     0.085 A 
HETATM   25  C   UNL     1      43.821 -18.253   3.127  1.00  0.00     0.119 A 
HETATM   26  F   UNL     1      44.316 -19.405   2.659  1.00  0.00    -0.206 F 
HETATM   27  C   UNL     1      43.106 -17.419   2.274  1.00  0.00     0.043 A 
HETATM   28  C   UNL     1      42.587 -16.216   2.761  1.00  0.00     0.021 A 
ENDBRANCH   8  21
TORSDOF 3
ENDMDL
MODEL 7
REMARK VINA RESULT:      -8.3      8.917     10.850
REMARK  3 active torsions:
REMARK  status: ('A' for Active; 'I' for Inactive)
REMARK    1  A    between atoms: O_2  and  C_3 
REMARK    2  A    between atoms: C_7  and  C_8 
REMARK       I    between atoms: C_8  and  N_9 
REMARK    3  A    between atoms: C_15  and  C_16 
ROOT
HETATM    1  C   UNL     1      43.651 -11.374   5.797  1.00  0.00     0.254 C 
HETATM    2  N   UNL     1      43.888 -10.771   7.034  1.00  0.00    -0.342 N 
HETATM    3  C   UNL     1      42.816 -10.057   7.779  1.00  0.00     0.187 C 
HETATM    4  C   UNL     1      43.276  -9.752   9.163  1.00  0.00     0.077 A 
HETATM    5  C   UNL     1      44.569  -9.892   9.598  1.00  0.00     0.039 A 
HETATM    6  N   UNL     1      44.573  -9.493  10.898  1.00  0.00    -0.342 N 
HETATM    7  H   UNL     1      45.363  -9.464  11.531  1.00  0.00     0.167 HD
HETATM    8  C   UNL     1      43.277  -9.138  11.229  1.00  0.00     0.141 A 
HETATM    9  N   UNL     1      42.481  -9.290  10.180  1.00  0.00    -0.231 NA
HETATM   10  C   UNL     1      45.688 -10.407   8.785  1.00  0.00     0.079 C 
HETATM   11  C   UNL     1      45.283 -10.339   7.294  1.00  0.00     0.132 C 
HETATM   12  O   UNL     1      44.538 -11.630   4.985  1.00  0.00    -0.267 OA
ENDROOT
BRANCH   1  13
HETATM   13  C   UNL     1      42.273 -11.731   5.408  1.00  0.00     0.037 A 
HETATM   14  C   UNL     1      41.573 -10.978   4.469  1.00  0.00     0.036 A 
HETATM   15  C   UNL     1      40.270 -11.352   4.199  1.00  0.00     0.120 A 
HETATM   16  N   UNL     1      39.644 -12.385   4.805  1.00  0.00    -0.237 NA
HETATM   17  C   UNL     1      40.343 -13.066   5.739  1.00  0.00     0.164 A 
HETATM   18  C   UNL     1      41.651 -12.780   6.075  1.00  0.00     0.075 A 
BRANCH  17  19
HETATM   19  O   UNL     1      39.756 -14.116   6.416  1.00  0.00    -0.339 OA
HETATM   20  C   UNL     1      40.569 -15.283   6.454  1.00  0.00     0.211 C 
ENDBRANCH  17  19
ENDBRANCH   1  13
BRANCH   8  21
HETATM   21  C   UNL     1      42.873  -8.679  12.563  1.00  0.00     0.049 A 
HETATM   22  C   UNL     1      41.886  -9.333  13.314  1.00  0.00     0.133 A 
HETATM   23  F   UNL     1      41.270 -10.422  12.825  1.00  0.00    -0.205 F 
HETATM   24  C   UNL     1      41.512  -8.883  14.577  1.00  0.00     0.085 A 
HETATM   25  C   UNL     1      42.130  -7.758  15.101  1.00  0.00     0.119 A 
HETATM   26  F   UNL     1      41.776  -7.314  16.312  1.00  0.00    -0.206 F 
HETATM   27  C   UNL     1      43.114  -7.082  14.385  1.00  0.00     0.043 A 
HETATM   28  C   UNL     1      43.486  -7.545  13.120  1.00  0.00     0.021 A 
ENDBRANCH   8  21
TORSDOF 3
ENDMDL
MODEL 8
REMARK VINA RESULT:      -8.3      5.838      8.760
REMARK  3 active torsions:
REMARK  status: ('A' for Active; 'I' for Inactive)
REMARK    1  A    between atoms: O_2  and  C_3 
REMARK    2  A    between atoms: C_7  and  C_8 
REMARK       I    between atoms: C_8  and  N_9 
REMARK    3  A    between atoms: C_15  and  C_16 
ROOT
HETATM    1  C   UNL     1      43.048 -15.403   2.688  1.00  0.00     0.254 C 
HETATM    2  N   UNL     1      43.031 -14.238   3.460  1.00  0.00    -0.342 N 
HETATM    3  C   UNL     1      42.872 -14.277   4.938  1.00  0.00     0.187 C 
HETATM    4  C   UNL     1      43.155 -12.932   5.515  1.00  0.00     0.077 A 
HETATM    5  C   UNL     1      43.301 -11.787   4.775  1.00  0.00     0.039 A 
HETATM    6  N   UNL     1      43.524 -10.788   5.669  1.00  0.00    -0.342 N 
HETATM    7  H   UNL     1      43.675  -9.807   5.471  1.00  0.00     0.167 HD
HETATM    8  C   UNL     1      43.529 -11.352   6.932  1.00  0.00     0.141 A 
HETATM    9  N   UNL     1      43.303 -12.657   6.849  1.00  0.00    -0.231 NA
HETATM   10  C   UNL     1      43.248 -11.716   3.301  1.00  0.00     0.079 C 
HETATM   11  C   UNL     1      42.579 -13.005   2.771  1.00  0.00     0.132 C 
HETATM   12  O   UNL     1      42.796 -15.424   1.485  1.00  0.00    -0.267 OA
ENDROOT
BRANCH   1  13
HETATM   13  C   UNL     1      43.374 -16.696   3.320  1.00  0.00     0.037 A 
HETATM   14  C   UNL     1      43.621 -17.831   2.552  1.00  0.00     0.036 A 
HETATM   15  C   UNL     1      43.870 -19.011   3.226  1.00  0.00     0.120 A 
HETATM   16  N   UNL     1      43.867 -19.123   4.573  1.00  0.00    -0.237 NA
HETATM   17  C   UNL     1      43.584 -18.009   5.283  1.00  0.00     0.164 A 
HETATM   18  C   UNL     1      43.331 -16.779   4.708  1.00  0.00     0.075 A 
BRANCH  17  19
HETATM   19  O   UNL     1      43.538 -18.057   6.661  1.00  0.00    -0.339 OA
HETATM   20  C   UNL     1      43.941 -16.840   7.279  1.00  0.00     0.211 C 
ENDBRANCH  17  19
ENDBRANCH   1  13
BRANCH   8  21
HETATM   21  C   UNL     1      43.768 -10.593   8.164  1.00  0.00     0.049 A 
HETATM   22  C   UNL     1      45.034 -10.512   8.763  1.00  0.00     0.133 A 
HETATM   23  F   UNL     1      46.086 -11.142   8.213  1.00  0.00    -0.205 F 
HETATM   24  C   UNL     1      45.244  -9.790   9.933  1.00  0.00     0.085 A 
HETATM   25  C   UNL     1      44.171  -9.136  10.522  1.00  0.00     0.119 A 
HETATM   26  F   UNL     1      44.361  -8.442  11.650  1.00  0.00    -0.206 F 
HETATM   27  C   UNL     1      42.901  -9.193   9.958  1.00  0.00     0.043 A 
HETATM   28  C   UNL     1      42.702  -9.917   8.779  1.00  0.00     0.021 A 
ENDBRANCH   8  21
TORSDOF 3
ENDMDL
MODEL 9
REMARK VINA RESULT:      -8.1      3.367      4.481
REMARK  3 active torsions:
REMARK  status: ('A' for Active; 'I' for Inactive)
REMARK    1  A    between atoms: O_2  and  C_3 
REMARK    2  A    between atoms: C_7  and  C_8 
REMARK       I    between atoms: C_8  and  N_9 
REMARK    3  A    between atoms: C_15  and  C_16 
ROOT
HETATM    1  C   UNL     1      41.693 -10.645   4.770  1.00  0.00     0.254 C 
HETATM    2  N   UNL     1      42.128 -11.935   5.085  1.00  0.00    -0.342 N 
HETATM    3  C   UNL     1      41.578 -13.138   4.406  1.00  0.00     0.187 C 
HETATM    4  C   UNL     1      42.400 -14.334   4.745  1.00  0.00     0.077 A 
HETATM    5  C   UNL     1      43.364 -14.360   5.720  1.00  0.00     0.039 A 
HETATM    6  N   UNL     1      43.858 -15.626   5.726  1.00  0.00    -0.342 N 
HETATM    7  H   UNL     1      44.585 -16.001   6.324  1.00  0.00     0.167 HD
HETATM    8  C   UNL     1      43.197 -16.337   4.740  1.00  0.00     0.141 A 
HETATM    9  N   UNL     1      42.306 -15.559   4.138  1.00  0.00    -0.231 NA
HETATM   10  C   UNL     1      43.766 -13.205   6.548  1.00  0.00     0.079 C 
HETATM   11  C   UNL     1      42.662 -12.127   6.457  1.00  0.00     0.132 C 
HETATM   12  O   UNL     1      41.815  -9.683   5.526  1.00  0.00    -0.267 OA
ENDROOT
BRANCH   1  13
HETATM   13  C   UNL     1      41.043 -10.389   3.470  1.00  0.00     0.037 A 
HETATM   14  C   UNL     1      39.656 -10.361   3.353  1.00  0.00     0.036 A 
HETATM   15  C   UNL     1      39.130 -10.164   2.091  1.00  0.00     0.120 A 
HETATM   16  N   UNL     1      39.881 -10.018   0.977  1.00  0.00    -0.237 NA
HETATM   17  C   UNL     1      41.222 -10.090   1.126  1.00  0.00     0.164 A 
HETATM   18  C   UNL     1      41.848 -10.275   2.342  1.00  0.00     0.075 A 
BRANCH  17  19
HETATM   19  O   UNL     1      42.049  -9.976   0.027  1.00  0.00    -0.339 OA
HETATM   20  C   UNL     1      41.377 -10.210  -1.206  1.00  0.00     0.211 C 
ENDBRANCH  17  19
ENDBRANCH   1  13
BRANCH   8  21
HETATM   21  C   UNL     1      43.476 -17.740   4.420  1.00  0.00     0.049 A 
HETATM   22  C   UNL     1      43.687 -18.709   5.413  1.00  0.00     0.133 A 
HETATM   23  F   UNL     1      43.639 -18.372   6.712  1.00  0.00    -0.205 F 
HETATM   24  C   UNL     1      43.954 -20.037   5.092  1.00  0.00     0.085 A 
HETATM   25  C   UNL     1      44.015 -20.407   3.757  1.00  0.00     0.119 A 
HETATM   26  F   UNL     1      44.275 -21.681   3.438  1.00  0.00    -0.206 F 
HETATM   27  C   UNL     1      43.811 -19.476   2.745  1.00  0.00     0.043 A 
HETATM   28  C   UNL     1      43.539 -18.145   3.077  1.00  0.00     0.021 A 
ENDBRANCH   8  21
TORSDOF 3
ENDMDL
MODEL 10
REMARK VINA RESULT:      -8.1      3.516      5.067
REMARK  3 active torsions:
REMARK  status: ('A' for Active; 'I' for Inactive)
REMARK    1  A    between atoms: O_2  and  C_3 
REMARK    2  A    between atoms: C_7  and  C_8 
REMARK       I    between atoms: C_8  and  N_9 
REMARK    3  A    between atoms: C_15  and  C_16 
ROOT
HETATM    1  C   UNL     1      39.602 -10.327  -2.834  1.00  0.00     0.254 C 
HETATM    2  N   UNL     1      39.760 -11.526  -2.134  1.00  0.00    -0.342 N 
HETATM    3  C   UNL     1      40.916 -11.761  -1.228  1.00  0.00     0.187 C 
HETATM    4  C   UNL     1      40.689 -12.996  -0.425  1.00  0.00     0.077 A 
HETATM    5  C   UNL     1      39.686 -13.900  -0.662  1.00  0.00     0.039 A 
HETATM    6  N   UNL     1      39.838 -14.882   0.267  1.00  0.00    -0.342 N 
HETATM    7  H   UNL     1      39.270 -15.711   0.384  1.00  0.00     0.167 HD
HETATM    8  C   UNL     1      40.919 -14.542   1.060  1.00  0.00     0.141 A 
HETATM    9  N   UNL     1      41.445 -13.396   0.645  1.00  0.00    -0.231 NA
HETATM   10  C   UNL     1      38.654 -13.769  -1.710  1.00  0.00     0.079 C 
HETATM   11  C   UNL     1      39.134 -12.725  -2.744  1.00  0.00     0.132 C 
HETATM   12  O   UNL     1      38.916 -10.218  -3.848  1.00  0.00    -0.267 OA
ENDROOT
BRANCH   1  13
HETATM   13  C   UNL     1      40.287  -9.108  -2.362  1.00  0.00     0.037 A 
HETATM   14  C   UNL     1      39.771  -8.353  -1.312  1.00  0.00     0.036 A 
HETATM   15  C   UNL     1      40.449  -7.200  -0.966  1.00  0.00     0.120 A 
HETATM   16  N   UNL     1      41.561  -6.764  -1.598  1.00  0.00    -0.237 NA
HETATM   17  C   UNL     1      42.009  -7.502  -2.637  1.00  0.00     0.164 A 
HETATM   18  C   UNL     1      41.411  -8.674  -3.057  1.00  0.00     0.075 A 
BRANCH  17  19
HETATM   19  O   UNL     1      43.123  -7.100  -3.344  1.00  0.00    -0.339 OA
HETATM   20  C   UNL     1      42.848  -6.820  -4.712  1.00  0.00     0.211 C 
ENDBRANCH  17  19
ENDBRANCH   1  13
BRANCH   8  21
HETATM   21  C   UNL     1      41.381 -15.344   2.197  1.00  0.00     0.049 A 
HETATM   22  C   UNL     1      42.566 -16.093   2.155  1.00  0.00     0.133 A 
HETATM   23  F   UNL     1      43.330 -16.096   1.050  1.00  0.00    -0.205 F 
HETATM   24  C   UNL     1      42.989 -16.853   3.243  1.00  0.00     0.085 A 
HETATM   25  C   UNL     1      42.214 -16.870   4.393  1.00  0.00     0.119 A 
HETATM   26  F   UNL     1      42.609 -17.600   5.443  1.00  0.00    -0.206 F 
HETATM   27  C   UNL     1      41.033 -16.141   4.472  1.00  0.00     0.043 A 
HETATM   28  C   UNL     1      40.619 -15.377   3.376  1.00  0.00     0.021 A 
ENDBRANCH   8  21
TORSDOF 3
ENDMDL
