MODEL 1
REMARK VINA RESULT:      -8.1      0.000      0.000
REMARK  6 active torsions:
REMARK  status: ('A' for Active; 'I' for Inactive)
REMARK    1  A    between atoms: C_2  and  C_3 
REMARK    2  A    between atoms: C_3  and  O_4 
REMARK    3  A    between atoms: O_4  and  C_5 
REMARK    4  A    between atoms: C_8  and  C_9 
REMARK    5  A    between atoms: C_9  and  N_10 
REMARK       I    between atoms: N_10  and  C_11 
REMARK       I    between atoms: C_11  and  N_12 
REMARK    6  A    between atoms: N_12  and  C_13 
ROOT
HETATM    1  N   UNL     1      43.381 -11.174   7.740  1.00  0.00    -0.339 N 
HETATM    2  C   UNL     1      44.064 -10.891   8.891  1.00  0.00     0.316 C 
HETATM    3  N   UNL     1      43.225 -10.557   9.924  1.00  0.00    -0.338 N 
HETATM    4  O   UNL     1      45.284 -10.892   8.975  1.00  0.00    -0.247 OA
HETATM    5  H   UNL     1      42.374 -11.224   7.768  1.00  0.00     0.164 HD
HETATM    6  H   UNL     1      42.321 -11.007   9.918  1.00  0.00     0.164 HD
ENDROOT
BRANCH   1   7
HETATM    7  C   UNL     1      44.073 -11.615   6.553  1.00  0.00     0.164 C 
BRANCH   7   8
HETATM    8  C   UNL     1      43.596 -12.964   6.099  1.00  0.00    -0.021 A 
HETATM    9  C   UNL     1      42.775 -13.088   4.982  1.00  0.00     0.128 A 
HETATM   10  N   UNL     1      42.337 -14.268   4.484  1.00  0.00    -0.235 NA
HETATM   11  C   UNL     1      42.743 -15.393   5.124  1.00  0.00     0.186 A 
HETATM   12  C   UNL     1      43.554 -15.374   6.257  1.00  0.00     0.087 A 
HETATM   13  C   UNL     1      43.982 -14.140   6.747  1.00  0.00     0.038 A 
HETATM   14 CL   UNL     1      44.056 -16.813   7.062  1.00  0.00    -0.080 Cl
BRANCH  11  15
HETATM   15  O   UNL     1      42.348 -16.622   4.632  1.00  0.00    -0.333 OA
BRANCH  15  16
HETATM   16  C   UNL     1      41.654 -16.556   3.385  1.00  0.00     0.181 C 
BRANCH  16  17
HETATM   17  C   UNL     1      42.546 -17.163   2.289  1.00  0.00     0.002 C 
HETATM   18  C   UNL     1      43.519 -18.173   2.892  1.00  0.00     0.011 C 
HETATM   19  C   UNL     1      43.310 -16.081   1.522  1.00  0.00     0.011 C 
ENDBRANCH  16  17
ENDBRANCH  15  16
ENDBRANCH  11  15
ENDBRANCH   7   8
ENDBRANCH   1   7
BRANCH   3  20
HETATM   20  C   UNL     1      43.781 -10.230  11.241  1.00  0.00     0.090 C 
HETATM   21  C   UNL     1      42.833 -10.662  12.397  1.00  0.00     0.067 C 
HETATM   22  C   UNL     1      41.810  -9.617  12.673  1.00  0.00    -0.013 A 
HETATM   23  C   UNL     1      41.894  -8.329  12.198  1.00  0.00     0.035 A 
HETATM   24  C   UNL     1      40.636  -9.631  13.444  1.00  0.00     0.148 A 
HETATM   25  N   UNL     1      40.815  -7.661  12.692  1.00  0.00    -0.282 N 
HETATM   26  C   UNL     1      42.948  -7.776  11.318  1.00  0.00     0.061 C 
HETATM   27  H   UNL     1      40.553  -6.689  12.563  1.00  0.00     0.189 HD
HETATM   28  N   UNL     1      40.022  -8.442  13.448  1.00  0.00    -0.187 NA
HETATM   29  C   UNL     1      44.160  -8.728  11.312  1.00  0.00     0.031 C 
ENDBRANCH   3  20
TORSDOF 6
ENDMDL
MODEL 2
REMARK VINA RESULT:      -7.7      1.821      2.421
REMARK  6 active torsions:
REMARK  status: ('A' for Active; 'I' for Inactive)
REMARK    1  A    between atoms: C_2  and  C_3 
REMARK    2  A    between atoms: C_3  and  O_4 
REMARK    3  A    between atoms: O_4  and  C_5 
REMARK    4  A    between atoms: C_8  and  C_9 
REMARK    5  A    between atoms: C_9  and  N_10 
REMARK       I    between atoms: N_10  and  C_11 
REMARK       I    between atoms: C_11  and  N_12 
REMARK    6  A    between atoms: N_12  and  C_13 
ROOT
HETATM    1  N   UNL     1      42.616 -11.460   6.672  1.00  0.00    -0.339 N 
HETATM    2  C   UNL     1      43.673 -10.966   7.385  1.00  0.00     0.316 C 
HETATM    3  N   UNL     1      43.384 -10.836   8.720  1.00  0.00    -0.338 N 
HETATM    4  O   UNL     1      44.738 -10.637   6.883  1.00  0.00    -0.247 OA
HETATM    5  H   UNL     1      41.797 -11.777   7.167  1.00  0.00     0.164 HD
HETATM    6  H   UNL     1      42.735 -11.511   9.096  1.00  0.00     0.164 HD
ENDROOT
BRANCH   1   7
HETATM    7  C   UNL     1      42.736 -11.739   5.261  1.00  0.00     0.164 C 
BRANCH   7   8
HETATM    8  C   UNL     1      42.832 -13.212   4.990  1.00  0.00    -0.021 A 
HETATM    9  C   UNL     1      42.738 -14.133   6.029  1.00  0.00     0.128 A 
HETATM   10  N   UNL     1      42.773 -15.476   5.864  1.00  0.00    -0.235 NA
HETATM   11  C   UNL     1      42.899 -15.935   4.594  1.00  0.00     0.186 A 
HETATM   12  C   UNL     1      43.014 -15.095   3.489  1.00  0.00     0.087 A 
HETATM   13  C   UNL     1      42.980 -13.716   3.695  1.00  0.00     0.038 A 
HETATM   14 CL   UNL     1      43.179 -15.696   1.881  1.00  0.00    -0.080 Cl
BRANCH  11  15
HETATM   15  O   UNL     1      42.906 -17.299   4.374  1.00  0.00    -0.333 OA
BRANCH  15  16
HETATM   16  C   UNL     1      43.818 -18.020   5.205  1.00  0.00     0.181 C 
BRANCH  16  17
HETATM   17  C   UNL     1      44.400 -19.194   4.399  1.00  0.00     0.002 C 
HETATM   18  C   UNL     1      43.832 -19.203   2.982  1.00  0.00     0.011 C 
HETATM   19  C   UNL     1      44.134 -20.535   5.088  1.00  0.00     0.011 C 
ENDBRANCH  16  17
ENDBRANCH  15  16
ENDBRANCH  11  15
ENDBRANCH   7   8
ENDBRANCH   1   7
BRANCH   3  20
HETATM   20  C   UNL     1      44.403 -10.328   9.644  1.00  0.00     0.090 C 
HETATM   21  C   UNL     1      44.092 -10.705  11.121  1.00  0.00     0.067 C 
HETATM   22  C   UNL     1      43.168  -9.719  11.745  1.00  0.00    -0.013 A 
HETATM   23  C   UNL     1      42.894  -8.486  11.199  1.00  0.00     0.035 A 
HETATM   24  C   UNL     1      42.442  -9.741  12.947  1.00  0.00     0.148 A 
HETATM   25  N   UNL     1      42.057  -7.854  12.068  1.00  0.00    -0.282 N 
HETATM   26  C   UNL     1      43.404  -7.951   9.917  1.00  0.00     0.061 C 
HETATM   27  H   UNL     1      41.655  -6.924  12.004  1.00  0.00     0.189 HD
HETATM   28  N   UNL     1      41.755  -8.609  13.141  1.00  0.00    -0.187 NA
HETATM   29  C   UNL     1      44.601  -8.802   9.449  1.00  0.00     0.031 C 
ENDBRANCH   3  20
TORSDOF 6
ENDMDL
MODEL 3
REMARK VINA RESULT:      -7.6      1.609      1.995
REMARK  6 active torsions:
REMARK  status: ('A' for Active; 'I' for Inactive)
REMARK    1  A    between atoms: C_2  and  C_3 
REMARK    2  A    between atoms: C_3  and  O_4 
REMARK    3  A    between atoms: O_4  and  C_5 
REMARK    4  A    between atoms: C_8  and  C_9 
REMARK    5  A    between atoms: C_9  and  N_10 
REMARK       I    between atoms: N_10  and  C_11 
REMARK       I    between atoms: C_11  and  N_12 
REMARK    6  A    between atoms: N_12  and  C_13 
ROOT
HETATM    1  N   UNL     1      43.742 -11.136   7.957  1.00  0.00    -0.339 N 
HETATM    2  C   UNL     1      44.107 -10.608   9.164  1.00  0.00     0.316 C 
HETATM    3  N   UNL     1      43.081  -9.922   9.763  1.00  0.00    -0.338 N 
HETATM    4  O   UNL     1      45.233 -10.699   9.633  1.00  0.00    -0.247 OA
HETATM    5  H   UNL     1      42.776 -11.082   7.671  1.00  0.00     0.164 HD
HETATM    6  H   UNL     1      42.153 -10.269   9.574  1.00  0.00     0.164 HD
ENDROOT
BRANCH   1   7
HETATM    7  C   UNL     1      44.655 -11.955   7.195  1.00  0.00     0.164 C 
BRANCH   7   8
HETATM    8  C   UNL     1      43.935 -12.805   6.189  1.00  0.00    -0.021 A 
HETATM    9  C   UNL     1      43.598 -14.123   6.484  1.00  0.00     0.128 A 
HETATM   10  N   UNL     1      42.914 -14.940   5.651  1.00  0.00    -0.235 NA
HETATM   11  C   UNL     1      42.532 -14.421   4.458  1.00  0.00     0.186 A 
HETATM   12  C   UNL     1      42.832 -13.119   4.063  1.00  0.00     0.087 A 
HETATM   13  C   UNL     1      43.544 -12.305   4.944  1.00  0.00     0.038 A 
HETATM   14 CL   UNL     1      42.345 -12.476   2.540  1.00  0.00    -0.080 Cl
BRANCH  11  15
HETATM   15  O   UNL     1      41.803 -15.209   3.588  1.00  0.00    -0.333 OA
BRANCH  15  16
HETATM   16  C   UNL     1      42.065 -16.609   3.708  1.00  0.00     0.181 C 
BRANCH  16  17
HETATM   17  C   UNL     1      43.209 -16.982   2.751  1.00  0.00     0.002 C 
HETATM   18  C   UNL     1      43.193 -16.079   1.521  1.00  0.00     0.011 C 
HETATM   19  C   UNL     1      43.133 -18.453   2.332  1.00  0.00     0.011 C 
ENDBRANCH  16  17
ENDBRANCH  15  16
ENDBRANCH  11  15
ENDBRANCH   7   8
ENDBRANCH   1   7
BRANCH   3  20
HETATM   20  C   UNL     1      43.288  -9.293  11.071  1.00  0.00     0.090 C 
HETATM   21  C   UNL     1      42.671 -10.134  12.227  1.00  0.00     0.067 C 
HETATM   22  C   UNL     1      41.227  -9.822  12.408  1.00  0.00    -0.013 A 
HETATM   23  C   UNL     1      40.614  -8.721  11.856  1.00  0.00     0.035 A 
HETATM   24  C   UNL     1      40.214 -10.455  13.146  1.00  0.00     0.148 A 
HETATM   25  N   UNL     1      39.320  -8.745  12.277  1.00  0.00    -0.282 N 
HETATM   26  C   UNL     1      41.237  -7.710  10.972  1.00  0.00     0.061 C 
HETATM   27  H   UNL     1      38.573  -8.086  12.081  1.00  0.00     0.189 HD
HETATM   28  N   UNL     1      39.048  -9.805  13.059  1.00  0.00    -0.187 NA
HETATM   29  C   UNL     1      42.771  -7.831  11.059  1.00  0.00     0.031 C 
ENDBRANCH   3  20
TORSDOF 6
ENDMDL
MODEL 4
REMARK VINA RESULT:      -7.4      5.972      9.306
REMARK  6 active torsions:
REMARK  status: ('A' for Active; 'I' for Inactive)
REMARK    1  A    between atoms: C_2  and  C_3 
REMARK    2  A    between atoms: C_3  and  O_4 
REMARK    3  A    between atoms: O_4  and  C_5 
REMARK    4  A    between atoms: C_8  and  C_9 
REMARK    5  A    between atoms: C_9  and  N_10 
REMARK       I    between atoms: N_10  and  C_11 
REMARK       I    between atoms: C_11  and  N_12 
REMARK    6  A    between atoms: N_12  and  C_13 
ROOT
HETATM    1  N   UNL     1      42.509 -11.609   3.129  1.00  0.00    -0.339 N 
HETATM    2  C   UNL     1      41.307 -11.426   2.504  1.00  0.00     0.316 C 
HETATM    3  N   UNL     1      41.453 -10.944   1.228  1.00  0.00    -0.338 N 
HETATM    4  O   UNL     1      40.225 -11.627   3.039  1.00  0.00    -0.247 OA
HETATM    5  H   UNL     1      43.359 -11.492   2.600  1.00  0.00     0.164 HD
HETATM    6  H   UNL     1      42.286 -11.238   0.741  1.00  0.00     0.164 HD
ENDROOT
BRANCH   1   7
HETATM    7  C   UNL     1      42.581 -12.175   4.455  1.00  0.00     0.164 C 
BRANCH   7   8
HETATM    8  C   UNL     1      42.772 -13.663   4.416  1.00  0.00    -0.021 A 
HETATM    9  C   UNL     1      42.710 -14.418   5.584  1.00  0.00     0.128 A 
HETATM   10  N   UNL     1      42.830 -15.766   5.628  1.00  0.00    -0.235 NA
HETATM   11  C   UNL     1      43.012 -16.405   4.446  1.00  0.00     0.186 A 
HETATM   12  C   UNL     1      43.102 -15.739   3.226  1.00  0.00     0.087 A 
HETATM   13  C   UNL     1      42.980 -14.349   3.216  1.00  0.00     0.038 A 
HETATM   14 CL   UNL     1      43.340 -16.566   1.733  1.00  0.00    -0.080 Cl
BRANCH  11  15
HETATM   15  O   UNL     1      43.107 -17.783   4.439  1.00  0.00    -0.333 OA
BRANCH  15  16
HETATM   16  C   UNL     1      44.420 -18.280   4.707  1.00  0.00     0.181 C 
BRANCH  16  17
HETATM   17  C   UNL     1      44.459 -19.781   4.376  1.00  0.00     0.002 C 
HETATM   18  C   UNL     1      43.754 -20.054   3.049  1.00  0.00     0.011 C 
HETATM   19  C   UNL     1      43.833 -20.619   5.493  1.00  0.00     0.011 C 
ENDBRANCH  16  17
ENDBRANCH  15  16
ENDBRANCH  11  15
ENDBRANCH   7   8
ENDBRANCH   1   7
BRANCH   3  20
HETATM   20  C   UNL     1      40.268 -10.694   0.401  1.00  0.00     0.090 C 
HETATM   21  C   UNL     1      39.621 -12.015  -0.106  1.00  0.00     0.067 C 
HETATM   22  C   UNL     1      40.277 -12.491  -1.354  1.00  0.00    -0.013 A 
HETATM   23  C   UNL     1      41.110 -11.709  -2.119  1.00  0.00     0.035 A 
HETATM   24  C   UNL     1      40.203 -13.710  -2.049  1.00  0.00     0.148 A 
HETATM   25  N   UNL     1      41.473 -12.463  -3.193  1.00  0.00    -0.282 N 
HETATM   26  C   UNL     1      41.533 -10.319  -1.831  1.00  0.00     0.061 C 
HETATM   27  H   UNL     1      42.070 -12.212  -3.976  1.00  0.00     0.189 HD
HETATM   28  N   UNL     1      40.940 -13.697  -3.165  1.00  0.00    -0.187 NA
HETATM   29  C   UNL     1      40.609  -9.717  -0.755  1.00  0.00     0.031 C 
ENDBRANCH   3  20
TORSDOF 6
ENDMDL
MODEL 5
REMARK VINA RESULT:      -7.3      2.514      3.122
REMARK  6 active torsions:
REMARK  status: ('A' for Active; 'I' for Inactive)
REMARK    1  A    between atoms: C_2  and  C_3 
REMARK    2  A    between atoms: C_3  and  O_4 
REMARK    3  A    between atoms: O_4  and  C_5 
REMARK    4  A    between atoms: C_8  and  C_9 
REMARK    5  A    between atoms: C_9  and  N_10 
REMARK       I    between atoms: N_10  and  C_11 
REMARK       I    between atoms: C_11  and  N_12 
REMARK    6  A    between atoms: N_12  and  C_13 
ROOT
HETATM    1  N   UNL     1      43.432 -12.720   7.445  1.00  0.00    -0.339 N 
HETATM    2  C   UNL     1      44.348 -11.742   7.717  1.00  0.00     0.316 C 
HETATM    3  N   UNL     1      43.900 -10.860   8.668  1.00  0.00    -0.338 N 
HETATM    4  O   UNL     1      45.424 -11.640   7.145  1.00  0.00    -0.247 OA
HETATM    5  H   UNL     1      42.599 -12.781   8.009  1.00  0.00     0.164 HD
HETATM    6  H   UNL     1      43.284 -11.247   9.368  1.00  0.00     0.164 HD
ENDROOT
BRANCH   1   7
HETATM    7  C   UNL     1      43.735 -13.788   6.523  1.00  0.00     0.164 C 
BRANCH   7   8
HETATM    8  C   UNL     1      42.642 -13.979   5.512  1.00  0.00    -0.021 A 
HETATM    9  C   UNL     1      41.636 -13.029   5.366  1.00  0.00     0.128 A 
HETATM   10  N   UNL     1      40.641 -13.106   4.451  1.00  0.00    -0.235 NA
HETATM   11  C   UNL     1      40.647 -14.183   3.627  1.00  0.00     0.186 A 
HETATM   12  C   UNL     1      41.601 -15.195   3.703  1.00  0.00     0.087 A 
HETATM   13  C   UNL     1      42.610 -15.088   4.660  1.00  0.00     0.038 A 
HETATM   14 CL   UNL     1      41.591 -16.561   2.652  1.00  0.00    -0.080 Cl
BRANCH  11  15
HETATM   15  O   UNL     1      39.669 -14.288   2.657  1.00  0.00    -0.333 OA
BRANCH  15  16
HETATM   16  C   UNL     1      39.672 -13.220   1.707  1.00  0.00     0.181 C 
BRANCH  16  17
HETATM   17  C   UNL     1      40.537 -13.630   0.504  1.00  0.00     0.002 C 
HETATM   18  C   UNL     1      40.934 -12.403  -0.313  1.00  0.00     0.011 C 
HETATM   19  C   UNL     1      39.818 -14.650  -0.384  1.00  0.00     0.011 C 
ENDBRANCH  16  17
ENDBRANCH  15  16
ENDBRANCH  11  15
ENDBRANCH   7   8
ENDBRANCH   1   7
BRANCH   3  20
HETATM   20  C   UNL     1      44.754  -9.747   9.094  1.00  0.00     0.090 C 
HETATM   21  C   UNL     1      44.833  -9.633  10.644  1.00  0.00     0.067 C 
HETATM   22  C   UNL     1      43.693  -8.843  11.184  1.00  0.00    -0.013 A 
HETATM   23  C   UNL     1      42.876  -8.059  10.403  1.00  0.00     0.035 A 
HETATM   24  C   UNL     1      43.215  -8.655  12.492  1.00  0.00     0.148 A 
HETATM   25  N   UNL     1      41.991  -7.460  11.246  1.00  0.00    -0.282 N 
HETATM   26  C   UNL     1      42.943  -7.899   8.933  1.00  0.00     0.061 C 
HETATM   27  H   UNL     1      41.248  -6.803  11.029  1.00  0.00     0.189 HD
HETATM   28  N   UNL     1      42.171  -7.820  12.530  1.00  0.00    -0.187 NA
HETATM   29  C   UNL     1      44.299  -8.425   8.423  1.00  0.00     0.031 C 
ENDBRANCH   3  20
TORSDOF 6
ENDMDL
MODEL 6
REMARK VINA RESULT:      -7.3      2.897      9.544
REMARK  6 active torsions:
REMARK  status: ('A' for Active; 'I' for Inactive)
REMARK    1  A    between atoms: C_2  and  C_3 
REMARK    2  A    between atoms: C_3  and  O_4 
REMARK    3  A    between atoms: O_4  and  C_5 
REMARK    4  A    between atoms: C_8  and  C_9 
REMARK    5  A    between atoms: C_9  and  N_10 
REMARK       I    between atoms: N_10  and  C_11 
REMARK       I    between atoms: C_11  and  N_12 
REMARK    6  A    between atoms: N_12  and  C_13 
ROOT
HETATM    1  N   UNL     1      42.037 -11.980   4.619  1.00  0.00    -0.339 N 
HETATM    2  C   UNL     1      41.215 -13.055   4.816  1.00  0.00     0.316 C 
HETATM    3  N   UNL     1      41.871 -14.248   4.651  1.00  0.00    -0.338 N 
HETATM    4  O   UNL     1      40.022 -12.961   5.067  1.00  0.00    -0.247 OA
HETATM    5  H   UNL     1      43.024 -12.137   4.489  1.00  0.00     0.164 HD
HETATM    6  H   UNL     1      42.848 -14.250   4.905  1.00  0.00     0.164 HD
ENDROOT
BRANCH   1   7
HETATM    7  C   UNL     1      41.560 -10.632   4.813  1.00  0.00     0.164 C 
BRANCH   7   8
HETATM    8  C   UNL     1      42.231  -9.965   5.977  1.00  0.00    -0.021 A 
HETATM    9  C   UNL     1      41.776  -8.738   6.453  1.00  0.00     0.128 A 
HETATM   10  N   UNL     1      42.299  -8.093   7.522  1.00  0.00    -0.235 NA
HETATM   11  C   UNL     1      43.327  -8.700   8.163  1.00  0.00     0.186 A 
HETATM   12  C   UNL     1      43.863  -9.921   7.757  1.00  0.00     0.087 A 
HETATM   13  C   UNL     1      43.305 -10.557   6.648  1.00  0.00     0.038 A 
HETATM   14 CL   UNL     1      45.175 -10.677   8.580  1.00  0.00    -0.080 Cl
BRANCH  11  15
HETATM   15  O   UNL     1      43.871  -8.094   9.279  1.00  0.00    -0.333 OA
BRANCH  15  16
HETATM   16  C   UNL     1      42.986  -8.030  10.399  1.00  0.00     0.181 C 
BRANCH  16  17
HETATM   17  C   UNL     1      43.644  -8.742  11.592  1.00  0.00     0.002 C 
HETATM   18  C   UNL     1      43.228 -10.210  11.634  1.00  0.00     0.011 C 
HETATM   19  C   UNL     1      43.302  -8.054  12.916  1.00  0.00     0.011 C 
ENDBRANCH  16  17
ENDBRANCH  15  16
ENDBRANCH  11  15
ENDBRANCH   7   8
ENDBRANCH   1   7
BRANCH   3  20
HETATM   20  C   UNL     1      41.149 -15.512   4.832  1.00  0.00     0.090 C 
HETATM   21  C   UNL     1      41.948 -16.520   5.707  1.00  0.00     0.067 C 
HETATM   22  C   UNL     1      42.915 -17.298   4.885  1.00  0.00    -0.013 A 
HETATM   23  C   UNL     1      42.874 -17.347   3.511  1.00  0.00     0.035 A 
HETATM   24  C   UNL     1      43.982 -18.141   5.235  1.00  0.00     0.148 A 
HETATM   25  N   UNL     1      43.873 -18.187   3.123  1.00  0.00    -0.282 N 
HETATM   26  C   UNL     1      41.932 -16.625   2.626  1.00  0.00     0.061 C 
HETATM   27  H   UNL     1      44.135 -18.474   2.185  1.00  0.00     0.189 HD
HETATM   28  N   UNL     1      44.574 -18.677   4.161  1.00  0.00    -0.187 NA
HETATM   29  C   UNL     1      40.743 -16.107   3.459  1.00  0.00     0.031 C 
ENDBRANCH   3  20
TORSDOF 6
ENDMDL
MODEL 7
REMARK VINA RESULT:      -7.3      6.751      9.832
REMARK  6 active torsions:
REMARK  status: ('A' for Active; 'I' for Inactive)
REMARK    1  A    between atoms: C_2  and  C_3 
REMARK    2  A    between atoms: C_3  and  O_4 
REMARK    3  A    between atoms: O_4  and  C_5 
REMARK    4  A    between atoms: C_8  and  C_9 
REMARK    5  A    between atoms: C_9  and  N_10 
REMARK       I    between atoms: N_10  and  C_11 
REMARK       I    between atoms: C_11  and  N_12 
REMARK    6  A    between atoms: N_12  and  C_13 
ROOT
HETATM    1  N   UNL     1      40.534 -15.060   4.487  1.00  0.00    -0.339 N 
HETATM    2  C   UNL     1      41.894 -15.132   4.364  1.00  0.00     0.316 C 
HETATM    3  N   UNL     1      42.335 -16.423   4.219  1.00  0.00    -0.338 N 
HETATM    4  O   UNL     1      42.635 -14.160   4.422  1.00  0.00    -0.247 OA
HETATM    5  H   UNL     1      39.986 -15.895   4.355  1.00  0.00     0.164 HD
HETATM    6  H   UNL     1      41.706 -17.049   3.739  1.00  0.00     0.164 HD
ENDROOT
BRANCH   1   7
HETATM    7  C   UNL     1      39.861 -13.786   4.580  1.00  0.00     0.164 C 
BRANCH   7   8
HETATM    8  C   UNL     1      39.598 -13.194   3.226  1.00  0.00    -0.021 A 
HETATM    9  C   UNL     1      39.083 -11.907   3.101  1.00  0.00     0.128 A 
HETATM   10  N   UNL     1      38.858 -11.287   1.919  1.00  0.00    -0.235 NA
HETATM   11  C   UNL     1      39.168 -11.978   0.794  1.00  0.00     0.186 A 
HETATM   12  C   UNL     1      39.675 -13.276   0.813  1.00  0.00     0.087 A 
HETATM   13  C   UNL     1      39.890 -13.888   2.048  1.00  0.00     0.038 A 
HETATM   14 CL   UNL     1      40.058 -14.142  -0.626  1.00  0.00    -0.080 Cl
BRANCH  11  15
HETATM   15  O   UNL     1      38.985 -11.373  -0.434  1.00  0.00    -0.333 OA
BRANCH  15  16
HETATM   16  C   UNL     1      37.639 -11.420  -0.914  1.00  0.00     0.181 C 
BRANCH  16  17
HETATM   17  C   UNL     1      37.660 -11.758  -2.414  1.00  0.00     0.002 C 
HETATM   18  C   UNL     1      37.247 -13.210  -2.641  1.00  0.00     0.011 C 
HETATM   19  C   UNL     1      39.036 -11.493  -3.030  1.00  0.00     0.011 C 
ENDBRANCH  16  17
ENDBRANCH  15  16
ENDBRANCH  11  15
ENDBRANCH   7   8
ENDBRANCH   1   7
BRANCH   3  20
HETATM   20  C   UNL     1      43.768 -16.694   4.065  1.00  0.00     0.090 C 
HETATM   21  C   UNL     1      44.068 -17.541   2.795  1.00  0.00     0.067 C 
HETATM   22  C   UNL     1      43.918 -18.996   3.071  1.00  0.00    -0.013 A 
HETATM   23  C   UNL     1      43.845 -19.524   4.340  1.00  0.00     0.035 A 
HETATM   24  C   UNL     1      43.865 -20.114   2.222  1.00  0.00     0.148 A 
HETATM   25  N   UNL     1      43.762 -20.875   4.194  1.00  0.00    -0.282 N 
HETATM   26  C   UNL     1      43.851 -18.770   5.614  1.00  0.00     0.061 C 
HETATM   27  H   UNL     1      43.706 -21.591   4.912  1.00  0.00     0.189 HD
HETATM   28  N   UNL     1      43.760 -21.260   2.905  1.00  0.00    -0.187 NA
HETATM   29  C   UNL     1      44.342 -17.332   5.355  1.00  0.00     0.031 C 
ENDBRANCH   3  20
TORSDOF 6
ENDMDL
MODEL 8
REMARK VINA RESULT:      -7.2      3.153      9.835
REMARK  6 active torsions:
REMARK  status: ('A' for Active; 'I' for Inactive)
REMARK    1  A    between atoms: C_2  and  C_3 
REMARK    2  A    between atoms: C_3  and  O_4 
REMARK    3  A    between atoms: O_4  and  C_5 
REMARK    4  A    between atoms: C_8  and  C_9 
REMARK    5  A    between atoms: C_9  and  N_10 
REMARK       I    between atoms: N_10  and  C_11 
REMARK       I    between atoms: C_11  and  N_12 
REMARK    6  A    between atoms: N_12  and  C_13 
ROOT
HETATM    1  N   UNL     1      42.952 -11.410   7.278  1.00  0.00    -0.339 N 
HETATM    2  C   UNL     1      43.502 -12.617   6.944  1.00  0.00     0.316 C 
HETATM    3  N   UNL     1      42.549 -13.581   6.733  1.00  0.00    -0.338 N 
HETATM    4  O   UNL     1      44.706 -12.823   6.885  1.00  0.00    -0.247 OA
HETATM    5  H   UNL     1      41.951 -11.300   7.234  1.00  0.00     0.164 HD
HETATM    6  H   UNL     1      41.671 -13.255   6.358  1.00  0.00     0.164 HD
ENDROOT
BRANCH   1   7
HETATM    7  C   UNL     1      43.780 -10.244   7.473  1.00  0.00     0.164 C 
BRANCH   7   8
HETATM    8  C   UNL     1      43.655  -9.698   8.866  1.00  0.00    -0.021 A 
HETATM    9  C   UNL     1      44.043 -10.459   9.965  1.00  0.00     0.128 A 
HETATM   10  N   UNL     1      44.002 -10.025  11.246  1.00  0.00    -0.235 NA
HETATM   11  C   UNL     1      43.557  -8.761  11.452  1.00  0.00     0.186 A 
HETATM   12  C   UNL     1      43.132  -7.926  10.421  1.00  0.00     0.087 A 
HETATM   13  C   UNL     1      43.183  -8.406   9.113  1.00  0.00     0.038 A 
HETATM   14 CL   UNL     1      42.563  -6.323  10.701  1.00  0.00    -0.080 Cl
BRANCH  11  15
HETATM   15  O   UNL     1      43.527  -8.264  12.741  1.00  0.00    -0.333 OA
BRANCH  15  16
HETATM   16  C   UNL     1      42.411  -8.711  13.513  1.00  0.00     0.181 C 
BRANCH  16  17
HETATM   17  C   UNL     1      41.794  -7.501  14.236  1.00  0.00     0.002 C 
HETATM   18  C   UNL     1      41.605  -7.805  15.720  1.00  0.00     0.011 C 
HETATM   19  C   UNL     1      40.463  -7.087  13.603  1.00  0.00     0.011 C 
ENDBRANCH  16  17
ENDBRANCH  15  16
ENDBRANCH  11  15
ENDBRANCH   7   8
ENDBRANCH   1   7
BRANCH   3  20
HETATM   20  C   UNL     1      42.953 -14.940   6.358  1.00  0.00     0.090 C 
HETATM   21  C   UNL     1      43.188 -15.076   4.825  1.00  0.00     0.067 C 
HETATM   22  C   UNL     1      41.914 -15.357   4.109  1.00  0.00    -0.013 A 
HETATM   23  C   UNL     1      40.760 -15.760   4.742  1.00  0.00     0.035 A 
HETATM   24  C   UNL     1      41.579 -15.343   2.745  1.00  0.00     0.148 A 
HETATM   25  N   UNL     1      39.833 -15.965   3.766  1.00  0.00    -0.282 N 
HETATM   26  C   UNL     1      40.564 -15.933   6.199  1.00  0.00     0.061 C 
HETATM   27  H   UNL     1      38.872 -16.278   3.857  1.00  0.00     0.189 HD
HETATM   28  N   UNL     1      40.308 -15.704   2.535  1.00  0.00    -0.187 NA
HETATM   29  C   UNL     1      41.937 -15.979   6.898  1.00  0.00     0.031 C 
ENDBRANCH   3  20
TORSDOF 6
ENDMDL
MODEL 9
REMARK VINA RESULT:      -7.2      6.169      9.897
REMARK  6 active torsions:
REMARK  status: ('A' for Active; 'I' for Inactive)
REMARK    1  A    between atoms: C_2  and  C_3 
REMARK    2  A    between atoms: C_3  and  O_4 
REMARK    3  A    between atoms: O_4  and  C_5 
REMARK    4  A    between atoms: C_8  and  C_9 
REMARK    5  A    between atoms: C_9  and  N_10 
REMARK       I    between atoms: N_10  and  C_11 
REMARK       I    between atoms: C_11  and  N_12 
REMARK    6  A    between atoms: N_12  and  C_13 
ROOT
HETATM    1  N   UNL     1      39.192 -13.317   3.285  1.00  0.00    -0.339 N 
HETATM    2  C   UNL     1      39.500 -12.405   2.314  1.00  0.00     0.316 C 
HETATM    3  N   UNL     1      38.627 -12.456   1.257  1.00  0.00    -0.338 N 
HETATM    4  O   UNL     1      40.469 -11.660   2.363  1.00  0.00    -0.247 OA
HETATM    5  H   UNL     1      38.337 -13.844   3.207  1.00  0.00     0.164 HD
HETATM    6  H   UNL     1      37.679 -12.719   1.484  1.00  0.00     0.164 HD
ENDROOT
BRANCH   1   7
HETATM    7  C   UNL     1      39.946 -13.379   4.515  1.00  0.00     0.164 C 
BRANCH   7   8
HETATM    8  C   UNL     1      41.048 -14.396   4.442  1.00  0.00    -0.021 A 
HETATM    9  C   UNL     1      42.039 -14.441   5.418  1.00  0.00     0.128 A 
HETATM   10  N   UNL     1      43.040 -15.352   5.448  1.00  0.00    -0.235 NA
HETATM   11  C   UNL     1      43.057 -16.278   4.458  1.00  0.00     0.186 A 
HETATM   12  C   UNL     1      42.119 -16.309   3.428  1.00  0.00     0.087 A 
HETATM   13  C   UNL     1      41.103 -15.353   3.425  1.00  0.00     0.038 A 
HETATM   14 CL   UNL     1      42.158 -17.490   2.174  1.00  0.00    -0.080 Cl
BRANCH  11  15
HETATM   15  O   UNL     1      44.041 -17.247   4.466  1.00  0.00    -0.333 OA
BRANCH  15  16
HETATM   16  C   UNL     1      43.761 -18.357   5.322  1.00  0.00     0.181 C 
BRANCH  16  17
HETATM   17  C   UNL     1      44.381 -19.624   4.709  1.00  0.00     0.002 C 
HETATM   18  C   UNL     1      43.904 -19.809   3.270  1.00  0.00     0.011 C 
HETATM   19  C   UNL     1      44.057 -20.867   5.541  1.00  0.00     0.011 C 
ENDBRANCH  16  17
ENDBRANCH  15  16
ENDBRANCH  11  15
ENDBRANCH   7   8
ENDBRANCH   1   7
BRANCH   3  20
HETATM   20  C   UNL     1      38.796 -11.543   0.123  1.00  0.00     0.090 C 
HETATM   21  C   UNL     1      37.660 -11.701  -0.928  1.00  0.00     0.067 C 
HETATM   22  C   UNL     1      37.963 -12.798  -1.887  1.00  0.00    -0.013 A 
HETATM   23  C   UNL     1      39.208 -13.367  -2.020  1.00  0.00     0.035 A 
HETATM   24  C   UNL     1      37.173 -13.452  -2.847  1.00  0.00     0.148 A 
HETATM   25  N   UNL     1      39.109 -14.290  -3.016  1.00  0.00    -0.282 N 
HETATM   26  C   UNL     1      40.419 -13.042  -1.233  1.00  0.00     0.061 C 
HETATM   27  H   UNL     1      39.830 -14.894  -3.399  1.00  0.00     0.189 HD
HETATM   28  N   UNL     1      37.869 -14.369  -3.530  1.00  0.00    -0.187 NA
HETATM   29  C   UNL     1      40.208 -11.704  -0.499  1.00  0.00     0.031 C 
ENDBRANCH   3  20
TORSDOF 6
ENDMDL
MODEL 10
REMARK VINA RESULT:      -7.1      3.495      9.941
REMARK  6 active torsions:
REMARK  status: ('A' for Active; 'I' for Inactive)
REMARK    1  A    between atoms: C_2  and  C_3 
REMARK    2  A    between atoms: C_3  and  O_4 
REMARK    3  A    between atoms: O_4  and  C_5 
REMARK    4  A    between atoms: C_8  and  C_9 
REMARK    5  A    between atoms: C_9  and  N_10 
REMARK       I    between atoms: N_10  and  C_11 
REMARK       I    between atoms: C_11  and  N_12 
REMARK    6  A    between atoms: N_12  and  C_13 
ROOT
HETATM    1  N   UNL     1      43.454 -10.773   9.316  1.00  0.00    -0.339 N 
HETATM    2  C   UNL     1      44.136 -11.385   8.300  1.00  0.00     0.316 C 
HETATM    3  N   UNL     1      43.329 -12.207   7.555  1.00  0.00    -0.338 N 
HETATM    4  O   UNL     1      45.335 -11.248   8.107  1.00  0.00    -0.247 OA
HETATM    5  H   UNL     1      42.453 -10.878   9.365  1.00  0.00     0.164 HD
HETATM    6  H   UNL     1      42.365 -11.921   7.475  1.00  0.00     0.164 HD
ENDROOT
BRANCH   1   7
HETATM    7  C   UNL     1      44.104  -9.813  10.176  1.00  0.00     0.164 C 
BRANCH   7   8
HETATM    8  C   UNL     1      43.145  -9.206  11.157  1.00  0.00    -0.021 A 
HETATM    9  C   UNL     1      41.774  -9.415  11.034  1.00  0.00     0.128 A 
HETATM   10  N   UNL     1      40.849  -8.939  11.900  1.00  0.00    -0.235 NA
HETATM   11  C   UNL     1      41.307  -8.220  12.954  1.00  0.00     0.186 A 
HETATM   12  C   UNL     1      42.657  -7.943  13.158  1.00  0.00     0.087 A 
HETATM   13  C   UNL     1      43.584  -8.444  12.244  1.00  0.00     0.038 A 
HETATM   14 CL   UNL     1      43.222  -7.022  14.501  1.00  0.00    -0.080 Cl
BRANCH  11  15
HETATM   15  O   UNL     1      40.401  -7.741  13.881  1.00  0.00    -0.333 OA
BRANCH  15  16
HETATM   16  C   UNL     1      39.860  -6.458  13.560  1.00  0.00     0.181 C 
BRANCH  16  17
HETATM   17  C   UNL     1      38.358  -6.458  13.891  1.00  0.00     0.002 C 
HETATM   18  C   UNL     1      37.538  -6.818  12.655  1.00  0.00     0.011 C 
HETATM   19  C   UNL     1      37.907  -5.107  14.454  1.00  0.00     0.011 C 
ENDBRANCH  16  17
ENDBRANCH  15  16
ENDBRANCH  11  15
ENDBRANCH   7   8
ENDBRANCH   1   7
BRANCH   3  20
HETATM   20  C   UNL     1      43.887 -12.942   6.415  1.00  0.00     0.090 C 
HETATM   21  C   UNL     1      43.365 -12.393   5.056  1.00  0.00     0.067 C 
HETATM   22  C   UNL     1      42.059 -13.009   4.694  1.00  0.00    -0.013 A 
HETATM   23  C   UNL     1      41.553 -14.132   5.307  1.00  0.00     0.035 A 
HETATM   24  C   UNL     1      41.109 -12.689   3.709  1.00  0.00     0.148 A 
HETATM   25  N   UNL     1      40.379 -14.421   4.682  1.00  0.00    -0.282 N 
HETATM   26  C   UNL     1      42.164 -14.878   6.431  1.00  0.00     0.061 C 
HETATM   27  H   UNL     1      39.735 -15.186   4.857  1.00  0.00     0.189 HD
HETATM   28  N   UNL     1      40.079 -13.544   3.707  1.00  0.00    -0.187 NA
HETATM   29  C   UNL     1      43.641 -14.464   6.576  1.00  0.00     0.031 C 
ENDBRANCH   3  20
TORSDOF 6
ENDMDL
