MODEL 1
REMARK VINA RESULT:     -10.2      0.000      0.000
REMARK  8 active torsions:
REMARK  status: ('A' for Active; 'I' for Inactive)
REMARK    1  A    between atoms: C_4  and  C_5 
REMARK    2  A    between atoms: C_5  and  N_6 
REMARK       I    between atoms: N_6  and  C_7 
REMARK    3  A    between atoms: C_7  and  C_8 
REMARK    4  A    between atoms: C_9  and  N_10 
REMARK       I    between atoms: N_10  and  C_11 
REMARK    5  A    between atoms: C_11  and  C_12 
REMARK    6  A    between atoms: C_12  and  C_13 
REMARK    7  A    between atoms: C_13  and  C_14 
REMARK    8  A    between atoms: C_14  and  N_15 
ROOT
HETATM    1  C   UNL     1      41.846 -14.310   4.133  1.00  0.00     0.073 A 
HETATM    2  C   UNL     1      42.090 -13.026   4.607  1.00  0.00     0.093 A 
HETATM    3  S   UNL     1      41.675 -11.805   3.471  1.00  0.00    -0.075 SA
HETATM    4  C   UNL     1      41.091 -12.926   2.358  1.00  0.00    -0.008 A 
HETATM    5  C   UNL     1      41.279 -14.226   2.779  1.00  0.00    -0.026 A 
HETATM    6  C   UNL     1      40.881 -15.388   1.900  1.00  0.00     0.041 C 
HETATM    7  C   UNL     1      40.613 -14.960   0.447  1.00  0.00     0.005 C 
HETATM    8  C   UNL     1      39.780 -13.677   0.376  1.00  0.00     0.005 C 
HETATM    9  C   UNL     1      40.509 -12.505   1.044  1.00  0.00     0.047 C 
ENDROOT
BRANCH   2  10
HETATM   10  N   UNL     1      42.626 -12.381   5.702  1.00  0.00    -0.320 N 
HETATM   11  C   UNL     1      43.699 -12.747   6.478  1.00  0.00     0.222 C 
HETATM   12  O   UNL     1      44.324 -13.795   6.406  1.00  0.00    -0.273 OA
HETATM   13  H   UNL     1      42.001 -11.687   6.097  1.00  0.00     0.169 HD
BRANCH  11  14
HETATM   14  C   UNL     1      43.964 -11.710   7.561  1.00  0.00     0.105 C 
BRANCH  14  15
HETATM   15  C   UNL     1      45.207 -10.857   7.327  1.00  0.00     0.029 C 
BRANCH  15  16
HETATM   16  C   UNL     1      45.870 -10.419   8.633  1.00  0.00     0.136 C 
BRANCH  16  17
HETATM   17  N   UNL     1      44.938  -9.695   9.478  1.00  0.00    -0.280 N 
HETATM   18  C   UNL     1      44.479 -10.166  10.679  1.00  0.00     0.261 A 
HETATM   19  O   UNL     1      44.722 -11.219  11.236  1.00  0.00    -0.267 OA
HETATM   20  C   UNL     1      43.620  -9.121  11.232  1.00  0.00     0.048 A 
HETATM   21  C   UNL     1      43.635  -8.057  10.349  1.00  0.00     0.048 A 
HETATM   22  C   UNL     1      42.892  -9.086  12.406  1.00  0.00     0.018 A 
HETATM   23  C   UNL     1      44.504  -8.422   9.232  1.00  0.00     0.261 A 
HETATM   24  C   UNL     1      42.925  -6.897  10.589  1.00  0.00     0.018 A 
HETATM   25  O   UNL     1      44.763  -7.680   8.304  1.00  0.00    -0.267 OA
HETATM   26  C   UNL     1      42.178  -6.838  11.770  1.00  0.00     0.001 A 
HETATM   27  C   UNL     1      42.162  -7.923  12.671  1.00  0.00     0.001 A 
ENDBRANCH  16  17
ENDBRANCH  15  16
ENDBRANCH  14  15
ENDBRANCH  11  14
ENDBRANCH   2  10
BRANCH   1  28
HETATM   28  C   UNL     1      42.156 -15.623   4.720  1.00  0.00     0.255 C 
HETATM   29  N   UNL     1      43.440 -16.074   4.609  1.00  0.00    -0.353 N 
HETATM   30  H   UNL     1      44.043 -15.671   3.897  1.00  0.00     0.163 HD
HETATM   31  O   UNL     1      41.319 -16.227   5.390  1.00  0.00    -0.268 OA
BRANCH  29  32
HETATM   32  C   UNL     1      43.912 -17.253   5.292  1.00  0.00     0.161 C 
BRANCH  32  33
HETATM   33  C   UNL     1      43.869 -18.494   4.438  1.00  0.00    -0.041 A 
HETATM   34  C   UNL     1      44.065 -19.760   5.003  1.00  0.00     0.009 A 
HETATM   35  C   UNL     1      44.002 -20.908   4.211  1.00  0.00     0.001 A 
HETATM   36  C   UNL     1      43.751 -20.802   2.844  1.00  0.00     0.000 A 
HETATM   37  C   UNL     1      43.566 -19.547   2.267  1.00  0.00     0.001 A 
HETATM   38  C   UNL     1      43.626 -18.400   3.060  1.00  0.00     0.009 A 
ENDBRANCH  32  33
ENDBRANCH  29  32
ENDBRANCH   1  28
TORSDOF 8
ENDMDL
MODEL 2
REMARK VINA RESULT:     -10.1      0.625      1.567
REMARK  8 active torsions:
REMARK  status: ('A' for Active; 'I' for Inactive)
REMARK    1  A    between atoms: C_4  and  C_5 
REMARK    2  A    between atoms: C_5  and  N_6 
REMARK       I    between atoms: N_6  and  C_7 
REMARK    3  A    between atoms: C_7  and  C_8 
REMARK    4  A    between atoms: C_9  and  N_10 
REMARK       I    between atoms: N_10  and  C_11 
REMARK    5  A    between atoms: C_11  and  C_12 
REMARK    6  A    between atoms: C_12  and  C_13 
REMARK    7  A    between atoms: C_13  and  C_14 
REMARK    8  A    between atoms: C_14  and  N_15 
ROOT
HETATM    1  C   UNL     1      42.274 -14.297   3.801  1.00  0.00     0.073 A 
HETATM    2  C   UNL     1      42.852 -13.062   4.071  1.00  0.00     0.093 A 
HETATM    3  S   UNL     1      42.519 -11.891   2.858  1.00  0.00    -0.075 SA
HETATM    4  C   UNL     1      41.544 -12.951   1.986  1.00  0.00    -0.008 A 
HETATM    5  C   UNL     1      41.524 -14.215   2.538  1.00  0.00    -0.026 A 
HETATM    6  C   UNL     1      40.757 -15.336   1.876  1.00  0.00     0.041 C 
HETATM    7  C   UNL     1      40.353 -14.995   0.431  1.00  0.00     0.005 C 
HETATM    8  C   UNL     1      39.803 -13.571   0.316  1.00  0.00     0.005 C 
HETATM    9  C   UNL     1      40.857 -12.535   0.723  1.00  0.00     0.047 C 
ENDROOT
BRANCH   2  10
HETATM   10  N   UNL     1      43.679 -12.455   4.992  1.00  0.00    -0.320 N 
HETATM   11  C   UNL     1      43.951 -12.828   6.285  1.00  0.00     0.222 C 
HETATM   12  O   UNL     1      43.409 -13.728   6.911  1.00  0.00    -0.273 OA
HETATM   13  H   UNL     1      43.922 -11.504   4.737  1.00  0.00     0.169 HD
BRANCH  11  14
HETATM   14  C   UNL     1      44.962 -11.884   6.922  1.00  0.00     0.105 C 
BRANCH  14  15
HETATM   15  C   UNL     1      44.389 -10.533   7.340  1.00  0.00     0.029 C 
BRANCH  15  16
HETATM   16  C   UNL     1      45.335  -9.755   8.256  1.00  0.00     0.136 C 
BRANCH  16  17
HETATM   17  N   UNL     1      44.613  -9.140   9.354  1.00  0.00    -0.280 N 
HETATM   18  C   UNL     1      43.930  -7.958   9.246  1.00  0.00     0.261 A 
HETATM   19  O   UNL     1      43.812  -7.222   8.284  1.00  0.00    -0.267 OA
HETATM   20  C   UNL     1      43.301  -7.723  10.544  1.00  0.00     0.048 A 
HETATM   21  C   UNL     1      43.609  -8.798  11.358  1.00  0.00     0.048 A 
HETATM   22  C   UNL     1      42.517  -6.674  10.984  1.00  0.00     0.018 A 
HETATM   23  C   UNL     1      44.435  -9.719  10.580  1.00  0.00     0.261 A 
HETATM   24  C   UNL     1      43.152  -8.886  12.658  1.00  0.00     0.018 A 
HETATM   25  O   UNL     1      44.837 -10.787  10.998  1.00  0.00    -0.267 OA
HETATM   26  C   UNL     1      42.358  -7.835  13.129  1.00  0.00     0.001 A 
HETATM   27  C   UNL     1      42.043  -6.738  12.299  1.00  0.00     0.001 A 
ENDBRANCH  16  17
ENDBRANCH  15  16
ENDBRANCH  14  15
ENDBRANCH  11  14
ENDBRANCH   2  10
BRANCH   1  28
HETATM   28  C   UNL     1      42.397 -15.587   4.500  1.00  0.00     0.255 C 
HETATM   29  N   UNL     1      43.649 -16.114   4.629  1.00  0.00    -0.353 N 
HETATM   30  H   UNL     1      44.385 -15.792   4.008  1.00  0.00     0.163 HD
HETATM   31  O   UNL     1      41.424 -16.099   5.052  1.00  0.00    -0.268 OA
BRANCH  29  32
HETATM   32  C   UNL     1      43.924 -17.273   5.443  1.00  0.00     0.161 C 
BRANCH  32  33
HETATM   33  C   UNL     1      43.913 -18.563   4.666  1.00  0.00    -0.041 A 
HETATM   34  C   UNL     1      43.990 -19.797   5.324  1.00  0.00     0.009 A 
HETATM   35  C   UNL     1      43.957 -20.991   4.600  1.00  0.00     0.001 A 
HETATM   36  C   UNL     1      43.855 -20.964   3.210  1.00  0.00     0.000 A 
HETATM   37  C   UNL     1      43.789 -19.743   2.543  1.00  0.00     0.001 A 
HETATM   38  C   UNL     1      43.819 -18.550   3.267  1.00  0.00     0.009 A 
ENDBRANCH  32  33
ENDBRANCH  29  32
ENDBRANCH   1  28
TORSDOF 8
ENDMDL
MODEL 3
REMARK VINA RESULT:      -9.8      3.130      8.483
REMARK  8 active torsions:
REMARK  status: ('A' for Active; 'I' for Inactive)
REMARK    1  A    between atoms: C_4  and  C_5 
REMARK    2  A    between atoms: C_5  and  N_6 
REMARK       I    between atoms: N_6  and  C_7 
REMARK    3  A    between atoms: C_7  and  C_8 
REMARK    4  A    between atoms: C_9  and  N_10 
REMARK       I    between atoms: N_10  and  C_11 
REMARK    5  A    between atoms: C_11  and  C_12 
REMARK    6  A    between atoms: C_12  and  C_13 
REMARK    7  A    between atoms: C_13  and  C_14 
REMARK    8  A    between atoms: C_14  and  N_15 
ROOT
HETATM    1  C   UNL     1      40.493 -13.146   2.461  1.00  0.00     0.073 A 
HETATM    2  C   UNL     1      40.437 -14.469   2.887  1.00  0.00     0.093 A 
HETATM    3  S   UNL     1      39.978 -15.553   1.634  1.00  0.00    -0.075 SA
HETATM    4  C   UNL     1      39.917 -14.326   0.483  1.00  0.00    -0.008 A 
HETATM    5  C   UNL     1      40.150 -13.082   1.032  1.00  0.00    -0.026 A 
HETATM    6  C   UNL     1      40.081 -11.836   0.181  1.00  0.00     0.041 C 
HETATM    7  C   UNL     1      39.402 -12.090  -1.176  1.00  0.00     0.005 C 
HETATM    8  C   UNL     1      39.895 -13.386  -1.824  1.00  0.00     0.005 C 
HETATM    9  C   UNL     1      39.574 -14.602  -0.948  1.00  0.00     0.047 C 
ENDROOT
BRANCH   2  10
HETATM   10  N   UNL     1      40.577 -15.223   4.032  1.00  0.00    -0.320 N 
HETATM   11  C   UNL     1      40.699 -14.800   5.333  1.00  0.00     0.222 C 
HETATM   12  O   UNL     1      40.820 -13.645   5.713  1.00  0.00    -0.273 OA
HETATM   13  H   UNL     1      40.848 -16.182   3.843  1.00  0.00     0.169 HD
BRANCH  11  14
HETATM   14  C   UNL     1      40.786 -15.987   6.284  1.00  0.00     0.105 C 
BRANCH  14  15
HETATM   15  C   UNL     1      42.016 -15.985   7.185  1.00  0.00     0.029 C 
BRANCH  15  16
HETATM   16  C   UNL     1      43.321 -15.883   6.394  1.00  0.00     0.136 C 
BRANCH  16  17
HETATM   17  N   UNL     1      43.519 -17.052   5.557  1.00  0.00    -0.280 N 
HETATM   18  C   UNL     1      43.587 -18.330   6.043  1.00  0.00     0.261 A 
HETATM   19  O   UNL     1      43.521 -18.721   7.193  1.00  0.00    -0.267 OA
HETATM   20  C   UNL     1      43.729 -19.207   4.882  1.00  0.00     0.048 A 
HETATM   21  C   UNL     1      43.703 -18.411   3.752  1.00  0.00     0.048 A 
HETATM   22  C   UNL     1      43.860 -20.580   4.805  1.00  0.00     0.018 A 
HETATM   23  C   UNL     1      43.544 -17.026   4.190  1.00  0.00     0.261 A 
HETATM   24  C   UNL     1      43.806 -18.941   2.481  1.00  0.00     0.018 A 
HETATM   25  O   UNL     1      43.442 -16.082   3.431  1.00  0.00    -0.267 OA
HETATM   26  C   UNL     1      43.942 -20.329   2.377  1.00  0.00     0.001 A 
HETATM   27  C   UNL     1      43.968 -21.142   3.529  1.00  0.00     0.001 A 
ENDBRANCH  16  17
ENDBRANCH  15  16
ENDBRANCH  14  15
ENDBRANCH  11  14
ENDBRANCH   2  10
BRANCH   1  28
HETATM   28  C   UNL     1      40.726 -11.905   3.217  1.00  0.00     0.255 C 
HETATM   29  N   UNL     1      41.980 -11.700   3.716  1.00  0.00    -0.353 N 
HETATM   30  H   UNL     1      42.603 -12.495   3.824  1.00  0.00     0.163 HD
HETATM   31  O   UNL     1      39.857 -11.036   3.286  1.00  0.00    -0.268 OA
BRANCH  29  32
HETATM   32  C   UNL     1      42.383 -10.452   4.316  1.00  0.00     0.161 C 
BRANCH  32  33
HETATM   33  C   UNL     1      43.036 -10.621   5.663  1.00  0.00    -0.041 A 
HETATM   34  C   UNL     1      42.633  -9.847   6.757  1.00  0.00     0.009 A 
HETATM   35  C   UNL     1      43.227 -10.024   8.009  1.00  0.00     0.001 A 
HETATM   36  C   UNL     1      44.237 -10.970   8.177  1.00  0.00     0.000 A 
HETATM   37  C   UNL     1      44.656 -11.738   7.093  1.00  0.00     0.001 A 
HETATM   38  C   UNL     1      44.059 -11.563   5.843  1.00  0.00     0.009 A 
ENDBRANCH  32  33
ENDBRANCH  29  32
ENDBRANCH   1  28
TORSDOF 8
ENDMDL
MODEL 4
REMARK VINA RESULT:      -9.7      2.678      8.504
REMARK  8 active torsions:
REMARK  status: ('A' for Active; 'I' for Inactive)
REMARK    1  A    between atoms: C_4  and  C_5 
REMARK    2  A    between atoms: C_5  and  N_6 
REMARK       I    between atoms: N_6  and  C_7 
REMARK    3  A    between atoms: C_7  and  C_8 
REMARK    4  A    between atoms: C_9  and  N_10 
REMARK       I    between atoms: N_10  and  C_11 
REMARK    5  A    between atoms: C_11  and  C_12 
REMARK    6  A    between atoms: C_12  and  C_13 
REMARK    7  A    between atoms: C_13  and  C_14 
REMARK    8  A    between atoms: C_14  and  N_15 
ROOT
HETATM    1  C   UNL     1      43.255  -9.991   8.418  1.00  0.00     0.073 A 
HETATM    2  C   UNL     1      42.501  -9.125   7.635  1.00  0.00     0.093 A 
HETATM    3  S   UNL     1      41.652  -7.955   8.565  1.00  0.00    -0.075 SA
HETATM    4  C   UNL     1      42.315  -8.505  10.013  1.00  0.00    -0.008 A 
HETATM    5  C   UNL     1      43.106  -9.621   9.833  1.00  0.00    -0.026 A 
HETATM    6  C   UNL     1      43.748 -10.310  11.014  1.00  0.00     0.041 C 
HETATM    7  C   UNL     1      43.143  -9.861  12.355  1.00  0.00     0.005 C 
HETATM    8  C   UNL     1      42.955  -8.343  12.415  1.00  0.00     0.005 C 
HETATM    9  C   UNL     1      41.992  -7.860  11.324  1.00  0.00     0.047 C 
ENDROOT
BRANCH   2  10
HETATM   10  N   UNL     1      42.146  -8.918   6.319  1.00  0.00    -0.320 N 
HETATM   11  C   UNL     1      41.534  -9.782   5.445  1.00  0.00     0.222 C 
HETATM   12  O   UNL     1      41.283 -10.962   5.645  1.00  0.00    -0.273 OA
HETATM   13  H   UNL     1      42.607  -8.113   5.909  1.00  0.00     0.169 HD
BRANCH  11  14
HETATM   14  C   UNL     1      41.294  -9.112   4.098  1.00  0.00     0.105 C 
BRANCH  14  15
HETATM   15  C   UNL     1      40.583  -9.991   3.074  1.00  0.00     0.029 C 
BRANCH  15  16
HETATM   16  C   UNL     1      41.544 -10.571   2.035  1.00  0.00     0.136 C 
BRANCH  16  17
HETATM   17  N   UNL     1      41.675 -12.009   2.187  1.00  0.00    -0.280 N 
HETATM   18  C   UNL     1      40.763 -12.909   1.705  1.00  0.00     0.261 A 
HETATM   19  O   UNL     1      39.720 -12.706   1.112  1.00  0.00    -0.267 OA
HETATM   20  C   UNL     1      41.291 -14.237   2.009  1.00  0.00     0.048 A 
HETATM   21  C   UNL     1      42.515 -14.067   2.629  1.00  0.00     0.048 A 
HETATM   22  C   UNL     1      40.764 -15.490   1.763  1.00  0.00     0.018 A 
HETATM   23  C   UNL     1      42.770 -12.631   2.720  1.00  0.00     0.261 A 
HETATM   24  C   UNL     1      43.284 -15.140   3.038  1.00  0.00     0.018 A 
HETATM   25  O   UNL     1      43.788 -12.150   3.177  1.00  0.00    -0.267 OA
HETATM   26  C   UNL     1      42.771 -16.420   2.802  1.00  0.00     0.001 A 
HETATM   27  C   UNL     1      41.522 -16.594   2.170  1.00  0.00     0.001 A 
ENDBRANCH  16  17
ENDBRANCH  15  16
ENDBRANCH  14  15
ENDBRANCH  11  14
ENDBRANCH   2  10
BRANCH   1  28
HETATM   28  C   UNL     1      44.029 -11.188   8.050  1.00  0.00     0.255 C 
HETATM   29  N   UNL     1      43.377 -12.169   7.359  1.00  0.00    -0.353 N 
HETATM   30  H   UNL     1      42.362 -12.198   7.385  1.00  0.00     0.163 HD
HETATM   31  O   UNL     1      45.241 -11.242   8.250  1.00  0.00    -0.268 OA
BRANCH  29  32
HETATM   32  C   UNL     1      44.061 -13.302   6.787  1.00  0.00     0.161 C 
BRANCH  32  33
HETATM   33  C   UNL     1      43.168 -14.499   6.588  1.00  0.00    -0.041 A 
HETATM   34  C   UNL     1      41.805 -14.339   6.313  1.00  0.00     0.009 A 
HETATM   35  C   UNL     1      40.987 -15.452   6.107  1.00  0.00     0.001 A 
HETATM   36  C   UNL     1      41.521 -16.737   6.183  1.00  0.00     0.000 A 
HETATM   37  C   UNL     1      42.873 -16.910   6.467  1.00  0.00     0.001 A 
HETATM   38  C   UNL     1      43.692 -15.798   6.670  1.00  0.00     0.009 A 
ENDBRANCH  32  33
ENDBRANCH  29  32
ENDBRANCH   1  28
TORSDOF 8
ENDMDL
MODEL 5
REMARK VINA RESULT:      -9.6      2.068      5.083
REMARK  8 active torsions:
REMARK  status: ('A' for Active; 'I' for Inactive)
REMARK    1  A    between atoms: C_4  and  C_5 
REMARK    2  A    between atoms: C_5  and  N_6 
REMARK       I    between atoms: N_6  and  C_7 
REMARK    3  A    between atoms: C_7  and  C_8 
REMARK    4  A    between atoms: C_9  and  N_10 
REMARK       I    between atoms: N_10  and  C_11 
REMARK    5  A    between atoms: C_11  and  C_12 
REMARK    6  A    between atoms: C_12  and  C_13 
REMARK    7  A    between atoms: C_13  and  C_14 
REMARK    8  A    between atoms: C_14  and  N_15 
ROOT
HETATM    1  C   UNL     1      42.843 -15.826   3.870  1.00  0.00     0.073 A 
HETATM    2  C   UNL     1      43.415 -15.613   5.119  1.00  0.00     0.093 A 
HETATM    3  S   UNL     1      44.180 -17.017   5.750  1.00  0.00    -0.075 SA
HETATM    4  C   UNL     1      43.850 -17.918   4.367  1.00  0.00    -0.008 A 
HETATM    5  C   UNL     1      43.089 -17.216   3.455  1.00  0.00    -0.026 A 
HETATM    6  C   UNL     1      42.630 -17.863   2.170  1.00  0.00     0.041 C 
HETATM    7  C   UNL     1      42.792 -19.393   2.194  1.00  0.00     0.005 C 
HETATM    8  C   UNL     1      44.145 -19.812   2.775  1.00  0.00     0.005 C 
HETATM    9  C   UNL     1      44.295 -19.341   4.226  1.00  0.00     0.047 C 
ENDROOT
BRANCH   2  10
HETATM   10  N   UNL     1      43.528 -14.633   6.083  1.00  0.00    -0.320 N 
HETATM   11  C   UNL     1      43.474 -13.269   5.935  1.00  0.00     0.222 C 
HETATM   12  O   UNL     1      43.424 -12.654   4.880  1.00  0.00    -0.273 OA
HETATM   13  H   UNL     1      43.926 -14.977   6.950  1.00  0.00     0.169 HD
BRANCH  11  14
HETATM   14  C   UNL     1      43.605 -12.572   7.282  1.00  0.00     0.105 C 
BRANCH  14  15
HETATM   15  C   UNL     1      43.457 -11.055   7.225  1.00  0.00     0.029 C 
BRANCH  15  16
HETATM   16  C   UNL     1      44.574 -10.329   7.978  1.00  0.00     0.136 C 
BRANCH  16  17
HETATM   17  N   UNL     1      44.042  -9.546   9.078  1.00  0.00    -0.280 N 
HETATM   18  C   UNL     1      44.012  -9.983  10.375  1.00  0.00     0.261 A 
HETATM   19  O   UNL     1      44.377 -11.047  10.838  1.00  0.00    -0.267 OA
HETATM   20  C   UNL     1      43.463  -8.886  11.169  1.00  0.00     0.048 A 
HETATM   21  C   UNL     1      43.224  -7.828  10.311  1.00  0.00     0.048 A 
HETATM   22  C   UNL     1      43.201  -8.801  12.523  1.00  0.00     0.018 A 
HETATM   23  C   UNL     1      43.620  -8.250   8.969  1.00  0.00     0.261 A 
HETATM   24  C   UNL     1      42.710  -6.626  10.755  1.00  0.00     0.018 A 
HETATM   25  O   UNL     1      43.575  -7.529   7.990  1.00  0.00    -0.267 OA
HETATM   26  C   UNL     1      42.434  -6.516  12.122  1.00  0.00     0.001 A 
HETATM   27  C   UNL     1      42.677  -7.594  12.999  1.00  0.00     0.001 A 
ENDBRANCH  16  17
ENDBRANCH  15  16
ENDBRANCH  14  15
ENDBRANCH  11  14
ENDBRANCH   2  10
BRANCH   1  28
HETATM   28  C   UNL     1      42.007 -14.947   3.036  1.00  0.00     0.255 C 
HETATM   29  N   UNL     1      40.706 -14.777   3.411  1.00  0.00    -0.353 N 
HETATM   30  H   UNL     1      40.279 -15.459   4.031  1.00  0.00     0.163 HD
HETATM   31  O   UNL     1      42.500 -14.299   2.113  1.00  0.00    -0.268 OA
BRANCH  29  32
HETATM   32  C   UNL     1      39.838 -13.809   2.787  1.00  0.00     0.161 C 
BRANCH  32  33
HETATM   33  C   UNL     1      39.549 -12.616   3.660  1.00  0.00    -0.041 A 
HETATM   34  C   UNL     1      39.012 -11.443   3.116  1.00  0.00     0.009 A 
HETATM   35  C   UNL     1      38.726 -10.348   3.935  1.00  0.00     0.001 A 
HETATM   36  C   UNL     1      38.982 -10.411   5.303  1.00  0.00     0.000 A 
HETATM   37  C   UNL     1      39.528 -11.568   5.855  1.00  0.00     0.001 A 
HETATM   38  C   UNL     1      39.811 -12.663   5.037  1.00  0.00     0.009 A 
ENDBRANCH  32  33
ENDBRANCH  29  32
ENDBRANCH   1  28
TORSDOF 8
ENDMDL
MODEL 6
REMARK VINA RESULT:      -9.6      1.871      4.856
REMARK  8 active torsions:
REMARK  status: ('A' for Active; 'I' for Inactive)
REMARK    1  A    between atoms: C_4  and  C_5 
REMARK    2  A    between atoms: C_5  and  N_6 
REMARK       I    between atoms: N_6  and  C_7 
REMARK    3  A    between atoms: C_7  and  C_8 
REMARK    4  A    between atoms: C_9  and  N_10 
REMARK       I    between atoms: N_10  and  C_11 
REMARK    5  A    between atoms: C_11  and  C_12 
REMARK    6  A    between atoms: C_12  and  C_13 
REMARK    7  A    between atoms: C_13  and  C_14 
REMARK    8  A    between atoms: C_14  and  N_15 
ROOT
HETATM    1  C   UNL     1      42.748 -14.386   3.546  1.00  0.00     0.073 A 
HETATM    2  C   UNL     1      43.144 -14.077   4.842  1.00  0.00     0.093 A 
HETATM    3  S   UNL     1      43.694 -15.451   5.717  1.00  0.00    -0.075 SA
HETATM    4  C   UNL     1      43.502 -16.472   4.392  1.00  0.00    -0.008 A 
HETATM    5  C   UNL     1      42.943 -15.825   3.310  1.00  0.00    -0.026 A 
HETATM    6  C   UNL     1      42.630 -16.576   2.037  1.00  0.00     0.041 C 
HETATM    7  C   UNL     1      42.665 -18.101   2.233  1.00  0.00     0.005 C 
HETATM    8  C   UNL     1      43.879 -18.541   3.055  1.00  0.00     0.005 C 
HETATM    9  C   UNL     1      43.849 -17.927   4.460  1.00  0.00     0.047 C 
ENDROOT
BRANCH   2  10
HETATM   10  N   UNL     1      43.191 -13.008   5.713  1.00  0.00    -0.320 N 
HETATM   11  C   UNL     1      43.661 -11.737   5.492  1.00  0.00     0.222 C 
HETATM   12  O   UNL     1      44.241 -11.340   4.492  1.00  0.00    -0.273 OA
HETATM   13  H   UNL     1      43.073 -13.284   6.682  1.00  0.00     0.169 HD
BRANCH  11  14
HETATM   14  C   UNL     1      43.476 -10.868   6.729  1.00  0.00     0.105 C 
BRANCH  14  15
HETATM   15  C   UNL     1      44.167 -11.398   7.982  1.00  0.00     0.029 C 
BRANCH  15  16
HETATM   16  C   UNL     1      45.131 -10.379   8.593  1.00  0.00     0.136 C 
BRANCH  16  17
HETATM   17  N   UNL     1      44.471  -9.572   9.602  1.00  0.00    -0.280 N 
HETATM   18  C   UNL     1      43.981  -8.316   9.368  1.00  0.00     0.261 A 
HETATM   19  O   UNL     1      44.014  -7.654   8.347  1.00  0.00    -0.267 OA
HETATM   20  C   UNL     1      43.346  -7.880  10.610  1.00  0.00     0.048 A 
HETATM   21  C   UNL     1      43.456  -8.915  11.520  1.00  0.00     0.048 A 
HETATM   22  C   UNL     1      42.716  -6.693  10.928  1.00  0.00     0.018 A 
HETATM   23  C   UNL     1      44.161 -10.012  10.859  1.00  0.00     0.261 A 
HETATM   24  C   UNL     1      42.942  -8.824  12.799  1.00  0.00     0.018 A 
HETATM   25  O   UNL     1      44.379 -11.089  11.379  1.00  0.00    -0.267 OA
HETATM   26  C   UNL     1      42.301  -7.630  13.145  1.00  0.00     0.001 A 
HETATM   27  C   UNL     1      42.189  -6.573  12.218  1.00  0.00     0.001 A 
ENDBRANCH  16  17
ENDBRANCH  15  16
ENDBRANCH  14  15
ENDBRANCH  11  14
ENDBRANCH   2  10
BRANCH   1  28
HETATM   28  C   UNL     1      42.117 -13.550   2.511  1.00  0.00     0.255 C 
HETATM   29  N   UNL     1      40.771 -13.685   2.331  1.00  0.00    -0.353 N 
HETATM   30  H   UNL     1      40.311 -14.526   2.667  1.00  0.00     0.163 HD
HETATM   31  O   UNL     1      42.760 -12.681   1.924  1.00  0.00    -0.268 OA
BRANCH  29  32
HETATM   32  C   UNL     1      40.009 -12.803   1.481  1.00  0.00     0.161 C 
BRANCH  32  33
HETATM   33  C   UNL     1      40.065 -13.184   0.024  1.00  0.00    -0.041 A 
HETATM   34  C   UNL     1      40.567 -12.291  -0.931  1.00  0.00     0.009 A 
HETATM   35  C   UNL     1      40.637 -12.658  -2.277  1.00  0.00     0.001 A 
HETATM   36  C   UNL     1      40.197 -13.916  -2.683  1.00  0.00     0.000 A 
HETATM   37  C   UNL     1      39.685 -14.809  -1.745  1.00  0.00     0.001 A 
HETATM   38  C   UNL     1      39.618 -14.443  -0.399  1.00  0.00     0.009 A 
ENDBRANCH  32  33
ENDBRANCH  29  32
ENDBRANCH   1  28
TORSDOF 8
ENDMDL
MODEL 7
REMARK VINA RESULT:      -9.4      5.330      9.005
REMARK  8 active torsions:
REMARK  status: ('A' for Active; 'I' for Inactive)
REMARK    1  A    between atoms: C_4  and  C_5 
REMARK    2  A    between atoms: C_5  and  N_6 
REMARK       I    between atoms: N_6  and  C_7 
REMARK    3  A    between atoms: C_7  and  C_8 
REMARK    4  A    between atoms: C_9  and  N_10 
REMARK       I    between atoms: N_10  and  C_11 
REMARK    5  A    between atoms: C_11  and  C_12 
REMARK    6  A    between atoms: C_12  and  C_13 
REMARK    7  A    between atoms: C_13  and  C_14 
REMARK    8  A    between atoms: C_14  and  N_15 
ROOT
HETATM    1  C   UNL     1      41.751 -14.399   2.180  1.00  0.00     0.073 A 
HETATM    2  C   UNL     1      41.065 -13.632   1.245  1.00  0.00     0.093 A 
HETATM    3  S   UNL     1      39.816 -12.683   1.949  1.00  0.00    -0.075 SA
HETATM    4  C   UNL     1      40.195 -13.194   3.509  1.00  0.00    -0.008 A 
HETATM    5  C   UNL     1      41.195 -14.144   3.518  1.00  0.00    -0.026 A 
HETATM    6  C   UNL     1      41.645 -14.780   4.812  1.00  0.00     0.041 C 
HETATM    7  C   UNL     1      40.660 -14.523   5.965  1.00  0.00     0.005 C 
HETATM    8  C   UNL     1      40.189 -13.066   5.997  1.00  0.00     0.005 C 
HETATM    9  C   UNL     1      39.449 -12.694   4.706  1.00  0.00     0.047 C 
ENDROOT
BRANCH   2  10
HETATM   10  N   UNL     1      41.010 -13.412  -0.115  1.00  0.00    -0.320 N 
HETATM   11  C   UNL     1      40.181 -13.984  -1.048  1.00  0.00     0.222 C 
HETATM   12  O   UNL     1      39.392 -14.899  -0.856  1.00  0.00    -0.273 OA
HETATM   13  H   UNL     1      41.837 -12.945  -0.472  1.00  0.00     0.169 HD
BRANCH  11  14
HETATM   14  C   UNL     1      40.444 -13.409  -2.433  1.00  0.00     0.105 C 
BRANCH  14  15
HETATM   15  C   UNL     1      39.340 -12.497  -2.958  1.00  0.00     0.029 C 
BRANCH  15  16
HETATM   16  C   UNL     1      39.109 -11.280  -2.059  1.00  0.00     0.136 C 
BRANCH  16  17
HETATM   17  N   UNL     1      40.121 -10.264  -2.282  1.00  0.00    -0.280 N 
HETATM   18  C   UNL     1      40.147  -9.448  -3.382  1.00  0.00     0.261 A 
HETATM   19  O   UNL     1      39.396  -9.422  -4.339  1.00  0.00    -0.267 OA
HETATM   20  C   UNL     1      41.274  -8.537  -3.195  1.00  0.00     0.048 A 
HETATM   21  C   UNL     1      41.848  -8.829  -1.971  1.00  0.00     0.048 A 
HETATM   22  C   UNL     1      41.760  -7.532  -4.008  1.00  0.00     0.018 A 
HETATM   23  C   UNL     1      41.088  -9.927  -1.377  1.00  0.00     0.261 A 
HETATM   24  C   UNL     1      42.940  -8.133  -1.490  1.00  0.00     0.018 A 
HETATM   25  O   UNL     1      41.314 -10.390  -0.275  1.00  0.00    -0.267 OA
HETATM   26  C   UNL     1      43.451  -7.111  -2.296  1.00  0.00     0.001 A 
HETATM   27  C   UNL     1      42.866  -6.812  -3.544  1.00  0.00     0.001 A 
ENDBRANCH  16  17
ENDBRANCH  15  16
ENDBRANCH  14  15
ENDBRANCH  11  14
ENDBRANCH   2  10
BRANCH   1  28
HETATM   28  C   UNL     1      42.796 -15.420   2.001  1.00  0.00     0.255 C 
HETATM   29  N   UNL     1      42.441 -16.723   2.198  1.00  0.00    -0.353 N 
HETATM   30  H   UNL     1      41.604 -16.929   2.736  1.00  0.00     0.163 HD
HETATM   31  O   UNL     1      43.907 -15.115   1.570  1.00  0.00    -0.268 OA
BRANCH  29  32
HETATM   32  C   UNL     1      43.318 -17.823   1.882  1.00  0.00     0.161 C 
BRANCH  32  33
HETATM   33  C   UNL     1      43.562 -18.745   3.048  1.00  0.00    -0.041 A 
HETATM   34  C   UNL     1      43.670 -20.128   2.858  1.00  0.00     0.009 A 
HETATM   35  C   UNL     1      43.919 -20.975   3.941  1.00  0.00     0.001 A 
HETATM   36  C   UNL     1      44.053 -20.450   5.224  1.00  0.00     0.000 A 
HETATM   37  C   UNL     1      43.935 -19.077   5.428  1.00  0.00     0.001 A 
HETATM   38  C   UNL     1      43.690 -18.230   4.346  1.00  0.00     0.009 A 
ENDBRANCH  32  33
ENDBRANCH  29  32
ENDBRANCH   1  28
TORSDOF 8
ENDMDL
MODEL 8
REMARK VINA RESULT:      -9.4      2.593     10.342
REMARK  8 active torsions:
REMARK  status: ('A' for Active; 'I' for Inactive)
REMARK    1  A    between atoms: C_4  and  C_5 
REMARK    2  A    between atoms: C_5  and  N_6 
REMARK       I    between atoms: N_6  and  C_7 
REMARK    3  A    between atoms: C_7  and  C_8 
REMARK    4  A    between atoms: C_9  and  N_10 
REMARK       I    between atoms: N_10  and  C_11 
REMARK    5  A    between atoms: C_11  and  C_12 
REMARK    6  A    between atoms: C_12  and  C_13 
REMARK    7  A    between atoms: C_13  and  C_14 
REMARK    8  A    between atoms: C_14  and  N_15 
ROOT
HETATM    1  C   UNL     1      41.663  -9.266   8.306  1.00  0.00     0.073 A 
HETATM    2  C   UNL     1      41.576 -10.159   7.244  1.00  0.00     0.093 A 
HETATM    3  S   UNL     1      40.273  -9.807   6.181  1.00  0.00    -0.075 SA
HETATM    4  C   UNL     1      39.836  -8.427   7.042  1.00  0.00    -0.008 A 
HETATM    5  C   UNL     1      40.597  -8.260   8.181  1.00  0.00    -0.026 A 
HETATM    6  C   UNL     1      40.328  -7.116   9.129  1.00  0.00     0.041 C 
HETATM    7  C   UNL     1      38.967  -6.447   8.870  1.00  0.00     0.005 C 
HETATM    8  C   UNL     1      38.718  -6.226   7.375  1.00  0.00     0.005 C 
HETATM    9  C   UNL     1      38.697  -7.556   6.614  1.00  0.00     0.047 C 
ENDROOT
BRANCH   2  10
HETATM   10  N   UNL     1      42.173 -11.309   6.772  1.00  0.00    -0.320 N 
HETATM   11  C   UNL     1      43.498 -11.543   6.498  1.00  0.00     0.222 C 
HETATM   12  O   UNL     1      44.401 -10.719   6.519  1.00  0.00    -0.273 OA
HETATM   13  H   UNL     1      41.508 -11.963   6.372  1.00  0.00     0.169 HD
BRANCH  11  14
HETATM   14  C   UNL     1      43.711 -12.978   6.034  1.00  0.00     0.105 C 
BRANCH  14  15
HETATM   15  C   UNL     1      43.410 -14.035   7.092  1.00  0.00     0.029 C 
BRANCH  15  16
HETATM   16  C   UNL     1      42.217 -14.915   6.715  1.00  0.00     0.136 C 
BRANCH  16  17
HETATM   17  N   UNL     1      42.589 -15.908   5.725  1.00  0.00    -0.280 N 
HETATM   18  C   UNL     1      43.301 -17.041   6.017  1.00  0.00     0.261 A 
HETATM   19  O   UNL     1      43.753 -17.413   7.083  1.00  0.00    -0.267 OA
HETATM   20  C   UNL     1      43.411 -17.794   4.769  1.00  0.00     0.048 A 
HETATM   21  C   UNL     1      42.726 -17.090   3.795  1.00  0.00     0.048 A 
HETATM   22  C   UNL     1      44.040 -18.993   4.497  1.00  0.00     0.018 A 
HETATM   23  C   UNL     1      42.179 -15.888   4.420  1.00  0.00     0.261 A 
HETATM   24  C   UNL     1      42.632 -17.544   2.494  1.00  0.00     0.018 A 
HETATM   25  O   UNL     1      41.485 -15.077   3.839  1.00  0.00    -0.267 OA
HETATM   26  C   UNL     1      43.263 -18.756   2.193  1.00  0.00     0.001 A 
HETATM   27  C   UNL     1      43.961 -19.475   3.186  1.00  0.00     0.001 A 
ENDBRANCH  16  17
ENDBRANCH  15  16
ENDBRANCH  14  15
ENDBRANCH  11  14
ENDBRANCH   2  10
BRANCH   1  28
HETATM   28  C   UNL     1      42.540  -9.264   9.488  1.00  0.00     0.255 C 
HETATM   29  N   UNL     1      42.107  -9.940  10.592  1.00  0.00    -0.353 N 
HETATM   30  H   UNL     1      41.117 -10.150  10.684  1.00  0.00     0.163 HD
HETATM   31  O   UNL     1      43.669  -8.778   9.435  1.00  0.00    -0.268 OA
BRANCH  29  32
HETATM   32  C   UNL     1      42.944 -10.164  11.744  1.00  0.00     0.161 C 
BRANCH  32  33
HETATM   33  C   UNL     1      42.699  -9.182  12.860  1.00  0.00    -0.041 A 
HETATM   34  C   UNL     1      43.437  -7.995  12.945  1.00  0.00     0.009 A 
HETATM   35  C   UNL     1      43.189  -7.078  13.969  1.00  0.00     0.001 A 
HETATM   36  C   UNL     1      42.209  -7.342  14.924  1.00  0.00     0.000 A 
HETATM   37  C   UNL     1      41.476  -8.525  14.857  1.00  0.00     0.001 A 
HETATM   38  C   UNL     1      41.721  -9.439  13.831  1.00  0.00     0.009 A 
ENDBRANCH  32  33
ENDBRANCH  29  32
ENDBRANCH   1  28
TORSDOF 8
ENDMDL
MODEL 9
REMARK VINA RESULT:      -9.4      3.711      8.539
REMARK  8 active torsions:
REMARK  status: ('A' for Active; 'I' for Inactive)
REMARK    1  A    between atoms: C_4  and  C_5 
REMARK    2  A    between atoms: C_5  and  N_6 
REMARK       I    between atoms: N_6  and  C_7 
REMARK    3  A    between atoms: C_7  and  C_8 
REMARK    4  A    between atoms: C_9  and  N_10 
REMARK       I    between atoms: N_10  and  C_11 
REMARK    5  A    between atoms: C_11  and  C_12 
REMARK    6  A    between atoms: C_12  and  C_13 
REMARK    7  A    between atoms: C_13  and  C_14 
REMARK    8  A    between atoms: C_14  and  N_15 
ROOT
HETATM    1  C   UNL     1      42.386 -14.275   4.741  1.00  0.00     0.073 A 
HETATM    2  C   UNL     1      41.609 -13.730   3.725  1.00  0.00     0.093 A 
HETATM    3  S   UNL     1      41.523 -12.015   3.799  1.00  0.00    -0.075 SA
HETATM    4  C   UNL     1      42.567 -11.938   5.117  1.00  0.00    -0.008 A 
HETATM    5  C   UNL     1      42.923 -13.189   5.575  1.00  0.00    -0.026 A 
HETATM    6  C   UNL     1      43.806 -13.345   6.791  1.00  0.00     0.041 C 
HETATM    7  C   UNL     1      43.930 -12.041   7.597  1.00  0.00     0.005 C 
HETATM    8  C   UNL     1      44.153 -10.829   6.687  1.00  0.00     0.005 C 
HETATM    9  C   UNL     1      42.974 -10.632   5.727  1.00  0.00     0.047 C 
ENDROOT
BRANCH   2  10
HETATM   10  N   UNL     1      40.808 -14.122   2.674  1.00  0.00    -0.320 N 
HETATM   11  C   UNL     1      41.115 -14.938   1.613  1.00  0.00     0.222 C 
HETATM   12  O   UNL     1      42.218 -15.391   1.341  1.00  0.00    -0.273 OA
HETATM   13  H   UNL     1      39.979 -13.546   2.573  1.00  0.00     0.169 HD
BRANCH  11  14
HETATM   14  C   UNL     1      39.905 -15.134   0.710  1.00  0.00     0.105 C 
BRANCH  14  15
HETATM   15  C   UNL     1      40.023 -14.466  -0.656  1.00  0.00     0.029 C 
BRANCH  15  16
HETATM   16  C   UNL     1      40.408 -12.989  -0.554  1.00  0.00     0.136 C 
BRANCH  16  17
HETATM   17  N   UNL     1      39.234 -12.137  -0.596  1.00  0.00    -0.280 N 
HETATM   18  C   UNL     1      38.634 -11.730  -1.757  1.00  0.00     0.261 A 
HETATM   19  O   UNL     1      38.948 -11.963  -2.910  1.00  0.00    -0.267 OA
HETATM   20  C   UNL     1      37.464 -10.946  -1.366  1.00  0.00     0.048 A 
HETATM   21  C   UNL     1      37.400 -10.952   0.015  1.00  0.00     0.048 A 
HETATM   22  C   UNL     1      36.524 -10.290  -2.137  1.00  0.00     0.018 A 
HETATM   23  C   UNL     1      38.529 -11.740   0.506  1.00  0.00     0.261 A 
HETATM   24  C   UNL     1      36.395 -10.304   0.705  1.00  0.00     0.018 A 
HETATM   25  O   UNL     1      38.733 -11.974   1.682  1.00  0.00    -0.267 OA
HETATM   26  C   UNL     1      35.432  -9.630  -0.054  1.00  0.00     0.001 A 
HETATM   27  C   UNL     1      35.496  -9.623  -1.463  1.00  0.00     0.001 A 
ENDBRANCH  16  17
ENDBRANCH  15  16
ENDBRANCH  14  15
ENDBRANCH  11  14
ENDBRANCH   2  10
BRANCH   1  28
HETATM   28  C   UNL     1      42.630 -15.678   5.114  1.00  0.00     0.255 C 
HETATM   29  N   UNL     1      43.856 -16.201   4.822  1.00  0.00    -0.353 N 
HETATM   30  H   UNL     1      44.430 -15.747   4.117  1.00  0.00     0.163 HD
HETATM   31  O   UNL     1      41.803 -16.307   5.772  1.00  0.00    -0.268 OA
BRANCH  29  32
HETATM   32  C   UNL     1      44.280 -17.497   5.292  1.00  0.00     0.161 C 
BRANCH  32  33
HETATM   33  C   UNL     1      43.999 -18.607   4.314  1.00  0.00    -0.041 A 
HETATM   34  C   UNL     1      43.612 -18.323   2.999  1.00  0.00     0.009 A 
HETATM   35  C   UNL     1      43.375 -19.358   2.090  1.00  0.00     0.001 A 
HETATM   36  C   UNL     1      43.512 -20.686   2.490  1.00  0.00     0.000 A 
HETATM   37  C   UNL     1      43.884 -20.982   3.799  1.00  0.00     0.001 A 
HETATM   38  C   UNL     1      44.125 -19.948   4.706  1.00  0.00     0.009 A 
ENDBRANCH  32  33
ENDBRANCH  29  32
ENDBRANCH   1  28
TORSDOF 8
ENDMDL
MODEL 10
REMARK VINA RESULT:      -9.3      1.789      2.772
REMARK  8 active torsions:
REMARK  status: ('A' for Active; 'I' for Inactive)
REMARK    1  A    between atoms: C_4  and  C_5 
REMARK    2  A    between atoms: C_5  and  N_6 
REMARK       I    between atoms: N_6  and  C_7 
REMARK    3  A    between atoms: C_7  and  C_8 
REMARK    4  A    between atoms: C_9  and  N_10 
REMARK       I    between atoms: N_10  and  C_11 
REMARK    5  A    between atoms: C_11  and  C_12 
REMARK    6  A    between atoms: C_12  and  C_13 
REMARK    7  A    between atoms: C_13  and  C_14 
REMARK    8  A    between atoms: C_14  and  N_15 
ROOT
HETATM    1  C   UNL     1      41.074 -12.713   2.975  1.00  0.00     0.073 A 
HETATM    2  C   UNL     1      41.520 -11.911   4.019  1.00  0.00     0.093 A 
HETATM    3  S   UNL     1      40.635 -10.444   4.158  1.00  0.00    -0.075 SA
HETATM    4  C   UNL     1      39.593 -10.859   2.902  1.00  0.00    -0.008 A 
HETATM    5  C   UNL     1      39.944 -12.052   2.305  1.00  0.00    -0.026 A 
HETATM    6  C   UNL     1      39.174 -12.577   1.117  1.00  0.00     0.041 C 
HETATM    7  C   UNL     1      38.267 -11.507   0.486  1.00  0.00     0.005 C 
HETATM    8  C   UNL     1      37.506 -10.709   1.548  1.00  0.00     0.005 C 
HETATM    9  C   UNL     1      38.471  -9.963   2.478  1.00  0.00     0.047 C 
ENDROOT
BRANCH   2  10
HETATM   10  N   UNL     1      42.508 -11.869   4.980  1.00  0.00    -0.320 N 
HETATM   11  C   UNL     1      43.842 -11.578   4.834  1.00  0.00     0.222 C 
HETATM   12  O   UNL     1      44.436 -11.404   3.779  1.00  0.00    -0.273 OA
HETATM   13  H   UNL     1      42.241 -12.335   5.841  1.00  0.00     0.169 HD
BRANCH  11  14
HETATM   14  C   UNL     1      44.555 -11.608   6.178  1.00  0.00     0.105 C 
BRANCH  14  15
HETATM   15  C   UNL     1      43.950 -10.691   7.236  1.00  0.00     0.029 C 
BRANCH  15  16
HETATM   16  C   UNL     1      45.012  -9.898   8.000  1.00  0.00     0.136 C 
BRANCH  16  17
HETATM   17  N   UNL     1      44.428  -9.184   9.120  1.00  0.00    -0.280 N 
HETATM   18  C   UNL     1      43.776  -7.986   8.999  1.00  0.00     0.261 A 
HETATM   19  O   UNL     1      43.583  -7.311   8.006  1.00  0.00    -0.267 OA
HETATM   20  C   UNL     1      43.291  -7.641  10.335  1.00  0.00     0.048 A 
HETATM   21  C   UNL     1      43.648  -8.671  11.186  1.00  0.00     0.048 A 
HETATM   22  C   UNL     1      42.592  -6.536  10.778  1.00  0.00     0.018 A 
HETATM   23  C   UNL     1      44.359  -9.673  10.395  1.00  0.00     0.261 A 
HETATM   24  C   UNL     1      43.325  -8.655  12.529  1.00  0.00     0.018 A 
HETATM   25  O   UNL     1      44.768 -10.727  10.844  1.00  0.00    -0.267 OA
HETATM   26  C   UNL     1      42.619  -7.545  13.003  1.00  0.00     0.001 A 
HETATM   27  C   UNL     1      42.255  -6.494  12.135  1.00  0.00     0.001 A 
ENDBRANCH  16  17
ENDBRANCH  15  16
ENDBRANCH  14  15
ENDBRANCH  11  14
ENDBRANCH   2  10
BRANCH   1  28
HETATM   28  C   UNL     1      41.610 -13.975   2.439  1.00  0.00     0.255 C 
HETATM   29  N   UNL     1      41.016 -15.133   2.848  1.00  0.00    -0.353 N 
HETATM   30  H   UNL     1      40.461 -15.128   3.700  1.00  0.00     0.163 HD
HETATM   31  O   UNL     1      42.475 -13.971   1.565  1.00  0.00    -0.268 OA
BRANCH  29  32
HETATM   32  C   UNL     1      41.327 -16.415   2.264  1.00  0.00     0.161 C 
BRANCH  32  33
HETATM   33  C   UNL     1      42.416 -17.155   2.995  1.00  0.00    -0.041 A 
HETATM   34  C   UNL     1      42.708 -16.862   4.333  1.00  0.00     0.009 A 
HETATM   35  C   UNL     1      43.704 -17.568   5.012  1.00  0.00     0.001 A 
HETATM   36  C   UNL     1      44.424 -18.566   4.359  1.00  0.00     0.000 A 
HETATM   37  C   UNL     1      44.151 -18.859   3.025  1.00  0.00     0.001 A 
HETATM   38  C   UNL     1      43.154 -18.156   2.347  1.00  0.00     0.009 A 
ENDBRANCH  32  33
ENDBRANCH  29  32
ENDBRANCH   1  28
TORSDOF 8
ENDMDL
