MODEL 1
REMARK VINA RESULT:      -8.9      0.000      0.000
REMARK  6 active torsions:
REMARK  status: ('A' for Active; 'I' for Inactive)
REMARK    1  A    between atoms: O_2  and  C_3 
REMARK    2  A    between atoms: C_6  and  C_7 
REMARK    3  A    between atoms: C_11  and  C_12 
REMARK       I    between atoms: C_12  and  N_13 
REMARK    4  A    between atoms: N_13  and  N_14 
REMARK       I    between atoms: N_14  and  C_15 
REMARK    5  A    between atoms: C_15  and  C_16 
REMARK    6  A    between atoms: C_17  and  C_18 
ROOT
HETATM    1  C   UNL     1      43.122 -11.537   6.831  1.00  0.00     0.288 C 
HETATM    2  N   UNL     1      43.558 -11.508   8.140  1.00  0.00    -0.262 N 
HETATM    3  O   UNL     1      42.973 -10.513   6.167  1.00  0.00    -0.264 OA
HETATM    4  H   UNL     1      43.554 -12.324   8.746  1.00  0.00     0.190 HD
ENDROOT
BRANCH   1   5
HETATM    5  C   UNL     1      42.867 -12.849   6.302  1.00  0.00     0.121 A 
HETATM    6  N   UNL     1      41.635 -13.435   6.384  1.00  0.00    -0.272 N 
HETATM    7  N   UNL     1      41.557 -14.636   5.792  1.00  0.00    -0.174 NA
HETATM    8  H   UNL     1      40.804 -13.047   6.819  1.00  0.00     0.189 HD
HETATM    9  C   UNL     1      42.794 -14.864   5.321  1.00  0.00     0.089 A 
HETATM   10  C   UNL     1      43.648 -13.769   5.631  1.00  0.00     0.071 A 
BRANCH   9  11
HETATM   11  C   UNL     1      43.127 -16.076   4.569  1.00  0.00    -0.005 A 
HETATM   12  C   UNL     1      43.889 -17.093   5.161  1.00  0.00     0.016 A 
HETATM   13  C   UNL     1      44.170 -18.280   4.472  1.00  0.00     0.037 A 
HETATM   14  C   UNL     1      43.693 -18.466   3.175  1.00  0.00     0.068 A 
HETATM   15  C   UNL     1      42.958 -17.445   2.568  1.00  0.00     0.037 A 
HETATM   16  C   UNL     1      42.673 -16.261   3.258  1.00  0.00     0.016 A 
BRANCH  14  17
HETATM   17  O   UNL     1      43.880 -19.575   2.401  1.00  0.00    -0.356 OA
HETATM   18  C   UNL     1      43.830 -20.832   3.064  1.00  0.00     0.210 C 
ENDBRANCH  14  17
ENDBRANCH   9  11
ENDBRANCH   1   5
BRANCH   2  19
HETATM   19  N   UNL     1      43.739 -10.276   8.772  1.00  0.00    -0.267 N 
HETATM   20  C   UNL     1      44.054 -10.273  10.111  1.00  0.00     0.240 C 
HETATM   21  O   UNL     1      44.200 -11.296  10.775  1.00  0.00    -0.271 OA
HETATM   22  H   UNL     1      43.608  -9.435   8.215  1.00  0.00     0.190 HD
BRANCH  20  23
HETATM   23  C   UNL     1      44.202  -8.916  10.701  1.00  0.00     0.089 A 
HETATM   24  C   UNL     1      43.106  -8.283  11.541  1.00  0.00     0.036 A 
HETATM   25  C   UNL     1      43.400  -7.761  10.156  1.00  0.00     0.025 A 
BRANCH  24  26
HETATM   26  C   UNL     1      41.815  -9.011  11.839  1.00  0.00    -0.015 A 
HETATM   27  C   UNL     1      41.560  -9.554  13.108  1.00  0.00     0.123 A 
HETATM   28  F   UNL     1      42.491  -9.439  14.069  1.00  0.00    -0.206 F 
HETATM   29  C   UNL     1      40.367 -10.208  13.415  1.00  0.00     0.043 A 
HETATM   30  C   UNL     1      39.379 -10.329  12.442  1.00  0.00     0.003 A 
HETATM   31  C   UNL     1      39.592  -9.792  11.175  1.00  0.00     0.001 A 
HETATM   32  C   UNL     1      40.793  -9.137  10.881  1.00  0.00     0.011 A 
ENDBRANCH  24  26
ENDBRANCH  20  23
ENDBRANCH   2  19
TORSDOF 6
ENDMDL
MODEL 2
REMARK VINA RESULT:      -8.8      2.479      3.417
REMARK  6 active torsions:
REMARK  status: ('A' for Active; 'I' for Inactive)
REMARK    1  A    between atoms: O_2  and  C_3 
REMARK    2  A    between atoms: C_6  and  C_7 
REMARK    3  A    between atoms: C_11  and  C_12 
REMARK       I    between atoms: C_12  and  N_13 
REMARK    4  A    between atoms: N_13  and  N_14 
REMARK       I    between atoms: N_14  and  C_15 
REMARK    5  A    between atoms: C_15  and  C_16 
REMARK    6  A    between atoms: C_17  and  C_18 
ROOT
HETATM    1  C   UNL     1      39.783 -12.139   6.178  1.00  0.00     0.288 C 
HETATM    2  N   UNL     1      40.796 -11.351   6.683  1.00  0.00    -0.262 N 
HETATM    3  O   UNL     1      38.599 -11.930   6.438  1.00  0.00    -0.264 OA
HETATM    4  H   UNL     1      41.781 -11.588   6.596  1.00  0.00     0.190 HD
ENDROOT
BRANCH   1   5
HETATM    5  C   UNL     1      40.211 -13.211   5.322  1.00  0.00     0.121 A 
HETATM    6  N   UNL     1      39.689 -13.392   4.073  1.00  0.00    -0.272 N 
HETATM    7  N   UNL     1      40.238 -14.406   3.387  1.00  0.00    -0.174 NA
HETATM    8  H   UNL     1      38.964 -12.836   3.629  1.00  0.00     0.189 HD
HETATM    9  C   UNL     1      41.144 -14.931   4.227  1.00  0.00     0.089 A 
HETATM   10  C   UNL     1      41.149 -14.215   5.457  1.00  0.00     0.071 A 
BRANCH   9  11
HETATM   11  C   UNL     1      41.998 -16.058   3.843  1.00  0.00    -0.005 A 
HETATM   12  C   UNL     1      43.034 -16.485   4.686  1.00  0.00     0.016 A 
HETATM   13  C   UNL     1      43.822 -17.595   4.356  1.00  0.00     0.037 A 
HETATM   14  C   UNL     1      43.587 -18.294   3.174  1.00  0.00     0.068 A 
HETATM   15  C   UNL     1      42.575 -17.857   2.315  1.00  0.00     0.037 A 
HETATM   16  C   UNL     1      41.784 -16.752   2.646  1.00  0.00     0.016 A 
BRANCH  14  17
HETATM   17  O   UNL     1      44.268 -19.397   2.742  1.00  0.00    -0.356 OA
HETATM   18  C   UNL     1      43.542 -20.324   1.944  1.00  0.00     0.210 C 
ENDBRANCH  14  17
ENDBRANCH   9  11
ENDBRANCH   1   5
BRANCH   2  19
HETATM   19  N   UNL     1      40.488 -10.345   7.601  1.00  0.00    -0.267 N 
HETATM   20  C   UNL     1      41.108  -9.125   7.462  1.00  0.00     0.240 C 
HETATM   21  O   UNL     1      41.906  -8.870   6.564  1.00  0.00    -0.271 OA
HETATM   22  H   UNL     1      39.831 -10.570   8.345  1.00  0.00     0.190 HD
BRANCH  20  23
HETATM   23  C   UNL     1      40.735  -8.128   8.500  1.00  0.00     0.089 A 
HETATM   24  C   UNL     1      41.550  -7.948   9.769  1.00  0.00     0.036 A 
HETATM   25  C   UNL     1      40.183  -8.585   9.826  1.00  0.00     0.025 A 
BRANCH  24  26
HETATM   26  C   UNL     1      42.798  -8.760  10.031  1.00  0.00    -0.015 A 
HETATM   27  C   UNL     1      44.034  -8.401   9.468  1.00  0.00     0.123 A 
HETATM   28  F   UNL     1      44.100  -7.325   8.667  1.00  0.00    -0.206 F 
HETATM   29  C   UNL     1      45.203  -9.118   9.715  1.00  0.00     0.043 A 
HETATM   30  C   UNL     1      45.165 -10.228  10.553  1.00  0.00     0.003 A 
HETATM   31  C   UNL     1      43.959 -10.608  11.139  1.00  0.00     0.001 A 
HETATM   32  C   UNL     1      42.793  -9.878  10.884  1.00  0.00     0.011 A 
ENDBRANCH  24  26
ENDBRANCH  20  23
ENDBRANCH   2  19
TORSDOF 6
ENDMDL
MODEL 3
REMARK VINA RESULT:      -8.2      2.223      3.030
REMARK  6 active torsions:
REMARK  status: ('A' for Active; 'I' for Inactive)
REMARK    1  A    between atoms: O_2  and  C_3 
REMARK    2  A    between atoms: C_6  and  C_7 
REMARK    3  A    between atoms: C_11  and  C_12 
REMARK       I    between atoms: C_12  and  N_13 
REMARK    4  A    between atoms: N_13  and  N_14 
REMARK       I    between atoms: N_14  and  C_15 
REMARK    5  A    between atoms: C_15  and  C_16 
REMARK    6  A    between atoms: C_17  and  C_18 
ROOT
HETATM    1  C   UNL     1      42.857 -11.470   6.305  1.00  0.00     0.288 C 
HETATM    2  N   UNL     1      42.005 -10.450   5.936  1.00  0.00    -0.262 N 
HETATM    3  O   UNL     1      43.657 -11.353   7.231  1.00  0.00    -0.264 OA
HETATM    4  H   UNL     1      41.440 -10.474   5.092  1.00  0.00     0.190 HD
ENDROOT
BRANCH   1   5
HETATM    5  C   UNL     1      42.732 -12.678   5.535  1.00  0.00     0.121 A 
HETATM    6  N   UNL     1      41.884 -12.770   4.468  1.00  0.00    -0.272 N 
HETATM    7  N   UNL     1      41.931 -13.949   3.828  1.00  0.00    -0.174 NA
HETATM    8  H   UNL     1      41.262 -12.047   4.119  1.00  0.00     0.189 HD
HETATM    9  C   UNL     1      42.829 -14.672   4.516  1.00  0.00     0.089 A 
HETATM   10  C   UNL     1      43.346 -13.912   5.602  1.00  0.00     0.071 A 
BRANCH   9  11
HETATM   11  C   UNL     1      43.199 -16.033   4.117  1.00  0.00    -0.005 A 
HETATM   12  C   UNL     1      43.903 -16.865   4.999  1.00  0.00     0.016 A 
HETATM   13  C   UNL     1      44.216 -18.186   4.651  1.00  0.00     0.037 A 
HETATM   14  C   UNL     1      43.831 -18.692   3.411  1.00  0.00     0.068 A 
HETATM   15  C   UNL     1      43.155 -17.860   2.516  1.00  0.00     0.037 A 
HETATM   16  C   UNL     1      42.838 -16.543   2.865  1.00  0.00     0.016 A 
BRANCH  14  17
HETATM   17  O   UNL     1      44.059 -19.960   2.955  1.00  0.00    -0.356 OA
HETATM   18  C   UNL     1      43.366 -20.346   1.774  1.00  0.00     0.210 C 
ENDBRANCH  14  17
ENDBRANCH   9  11
ENDBRANCH   1   5
BRANCH   2  19
HETATM   19  N   UNL     1      42.119  -9.206   6.560  1.00  0.00    -0.267 N 
HETATM   20  C   UNL     1      41.215  -8.889   7.549  1.00  0.00     0.240 C 
HETATM   21  O   UNL     1      40.325  -9.649   7.921  1.00  0.00    -0.271 OA
HETATM   22  H   UNL     1      42.854  -8.581   6.239  1.00  0.00     0.190 HD
BRANCH  20  23
HETATM   23  C   UNL     1      41.401  -7.536   8.136  1.00  0.00     0.089 A 
HETATM   24  C   UNL     1      42.377  -7.282   9.272  1.00  0.00     0.036 A 
HETATM   25  C   UNL     1      40.889  -7.235   9.522  1.00  0.00     0.025 A 
BRANCH  24  26
HETATM   26  C   UNL     1      43.226  -8.390   9.850  1.00  0.00    -0.015 A 
HETATM   27  C   UNL     1      44.534  -8.621   9.394  1.00  0.00     0.123 A 
HETATM   28  F   UNL     1      45.030  -7.850   8.411  1.00  0.00    -0.206 F 
HETATM   29  C   UNL     1      45.347  -9.620   9.928  1.00  0.00     0.043 A 
HETATM   30  C   UNL     1      44.863 -10.423  10.957  1.00  0.00     0.003 A 
HETATM   31  C   UNL     1      43.574 -10.216  11.443  1.00  0.00     0.001 A 
HETATM   32  C   UNL     1      42.770  -9.208  10.899  1.00  0.00     0.011 A 
ENDBRANCH  24  26
ENDBRANCH  20  23
ENDBRANCH   2  19
TORSDOF 6
ENDMDL
MODEL 4
REMARK VINA RESULT:      -8.1     18.515     20.515
REMARK  6 active torsions:
REMARK  status: ('A' for Active; 'I' for Inactive)
REMARK    1  A    between atoms: O_2  and  C_3 
REMARK    2  A    between atoms: C_6  and  C_7 
REMARK    3  A    between atoms: C_11  and  C_12 
REMARK       I    between atoms: C_12  and  N_13 
REMARK    4  A    between atoms: N_13  and  N_14 
REMARK       I    between atoms: N_14  and  C_15 
REMARK    5  A    between atoms: C_15  and  C_16 
REMARK    6  A    between atoms: C_17  and  C_18 
ROOT
HETATM    1  C   UNL     1      43.334 -29.448   1.562  1.00  0.00     0.288 C 
HETATM    2  N   UNL     1      44.590 -29.124   2.033  1.00  0.00    -0.262 N 
HETATM    3  O   UNL     1      42.989 -29.216   0.405  1.00  0.00    -0.264 OA
HETATM    4  H   UNL     1      44.846 -29.177   3.015  1.00  0.00     0.190 HD
ENDROOT
BRANCH   1   5
HETATM    5  C   UNL     1      42.469 -30.084   2.517  1.00  0.00     0.121 A 
HETATM    6  N   UNL     1      42.434 -29.700   3.828  1.00  0.00    -0.272 N 
HETATM    7  N   UNL     1      41.533 -30.360   4.571  1.00  0.00    -0.174 NA
HETATM    8  H   UNL     1      42.994 -28.975   4.266  1.00  0.00     0.189 HD
HETATM    9  C   UNL     1      40.966 -31.232   3.721  1.00  0.00     0.089 A 
HETATM   10  C   UNL     1      41.535 -31.096   2.424  1.00  0.00     0.071 A 
BRANCH   9  11
HETATM   11  C   UNL     1      39.891 -32.135   4.138  1.00  0.00    -0.005 A 
HETATM   12  C   UNL     1      39.614 -32.331   5.499  1.00  0.00     0.016 A 
HETATM   13  C   UNL     1      38.554 -33.150   5.909  1.00  0.00     0.037 A 
HETATM   14  C   UNL     1      37.755 -33.789   4.962  1.00  0.00     0.068 A 
HETATM   15  C   UNL     1      38.043 -33.622   3.606  1.00  0.00     0.037 A 
HETATM   16  C   UNL     1      39.098 -32.800   3.194  1.00  0.00     0.016 A 
BRANCH  14  17
HETATM   17  O   UNL     1      36.687 -34.598   5.226  1.00  0.00    -0.356 OA
HETATM   18  C   UNL     1      36.095 -35.256   4.112  1.00  0.00     0.210 C 
ENDBRANCH  14  17
ENDBRANCH   9  11
ENDBRANCH   1   5
BRANCH   2  19
HETATM   19  N   UNL     1      45.467 -28.416   1.209  1.00  0.00    -0.267 N 
HETATM   20  C   UNL     1      46.580 -29.069   0.731  1.00  0.00     0.240 C 
HETATM   21  O   UNL     1      46.834 -30.244   0.979  1.00  0.00    -0.271 OA
HETATM   22  H   UNL     1      45.252 -27.440   1.016  1.00  0.00     0.190 HD
BRANCH  20  23
HETATM   23  C   UNL     1      47.466 -28.227  -0.116  1.00  0.00     0.089 A 
HETATM   24  C   UNL     1      47.346 -28.209  -1.630  1.00  0.00     0.036 A 
HETATM   25  C   UNL     1      48.531 -28.868  -0.969  1.00  0.00     0.025 A 
BRANCH  24  26
HETATM   26  C   UNL     1      46.303 -29.030  -2.353  1.00  0.00    -0.015 A 
HETATM   27  C   UNL     1      44.970 -28.598  -2.448  1.00  0.00     0.123 A 
HETATM   28  F   UNL     1      44.615 -27.439  -1.867  1.00  0.00    -0.206 F 
HETATM   29  C   UNL     1      43.996 -29.324  -3.130  1.00  0.00     0.043 A 
HETATM   30  C   UNL     1      44.340 -30.521  -3.752  1.00  0.00     0.003 A 
HETATM   31  C   UNL     1      45.655 -30.976  -3.690  1.00  0.00     0.001 A 
HETATM   32  C   UNL     1      46.624 -30.235  -3.003  1.00  0.00     0.011 A 
ENDBRANCH  24  26
ENDBRANCH  20  23
ENDBRANCH   2  19
TORSDOF 6
ENDMDL
MODEL 5
REMARK VINA RESULT:      -8.1      1.884      2.615
REMARK  6 active torsions:
REMARK  status: ('A' for Active; 'I' for Inactive)
REMARK    1  A    between atoms: O_2  and  C_3 
REMARK    2  A    between atoms: C_6  and  C_7 
REMARK    3  A    between atoms: C_11  and  C_12 
REMARK       I    between atoms: C_12  and  N_13 
REMARK    4  A    between atoms: N_13  and  N_14 
REMARK       I    between atoms: N_14  and  C_15 
REMARK    5  A    between atoms: C_15  and  C_16 
REMARK    6  A    between atoms: C_17  and  C_18 
ROOT
HETATM    1  C   UNL     1      42.082 -11.367   6.366  1.00  0.00     0.288 C 
HETATM    2  N   UNL     1      40.912 -10.920   6.945  1.00  0.00    -0.262 N 
HETATM    3  O   UNL     1      43.101 -10.680   6.336  1.00  0.00    -0.264 OA
HETATM    4  H   UNL     1      40.026 -11.411   6.858  1.00  0.00     0.190 HD
ENDROOT
BRANCH   1   5
HETATM    5  C   UNL     1      42.023 -12.692   5.814  1.00  0.00     0.121 A 
HETATM    6  N   UNL     1      40.836 -13.294   5.504  1.00  0.00    -0.272 N 
HETATM    7  N   UNL     1      40.964 -14.508   4.947  1.00  0.00    -0.174 NA
HETATM    8  H   UNL     1      39.905 -12.910   5.635  1.00  0.00     0.189 HD
HETATM    9  C   UNL     1      42.288 -14.727   4.910  1.00  0.00     0.089 A 
HETATM   10  C   UNL     1      42.986 -13.614   5.455  1.00  0.00     0.071 A 
BRANCH   9  11
HETATM   11  C   UNL     1      42.858 -15.949   4.336  1.00  0.00    -0.005 A 
HETATM   12  C   UNL     1      43.601 -16.829   5.135  1.00  0.00     0.016 A 
HETATM   13  C   UNL     1      44.105 -18.027   4.612  1.00  0.00     0.037 A 
HETATM   14  C   UNL     1      43.875 -18.361   3.278  1.00  0.00     0.068 A 
HETATM   15  C   UNL     1      43.160 -17.475   2.469  1.00  0.00     0.037 A 
HETATM   16  C   UNL     1      42.651 -16.280   2.992  1.00  0.00     0.016 A 
BRANCH  14  17
HETATM   17  O   UNL     1      44.295 -19.499   2.649  1.00  0.00    -0.356 OA
HETATM   18  C   UNL     1      43.307 -20.240   1.944  1.00  0.00     0.210 C 
ENDBRANCH  14  17
ENDBRANCH   9  11
ENDBRANCH   1   5
BRANCH   2  19
HETATM   19  N   UNL     1      40.842  -9.610   7.422  1.00  0.00    -0.267 N 
HETATM   20  C   UNL     1      39.789  -9.271   8.239  1.00  0.00     0.240 C 
HETATM   21  O   UNL     1      38.916 -10.063   8.583  1.00  0.00    -0.271 OA
HETATM   22  H   UNL     1      41.566  -8.960   7.125  1.00  0.00     0.190 HD
BRANCH  20  23
HETATM   23  C   UNL     1      39.787  -7.849   8.676  1.00  0.00     0.089 A 
HETATM   24  C   UNL     1      40.453  -7.406   9.967  1.00  0.00     0.036 A 
HETATM   25  C   UNL     1      38.949  -7.419   9.853  1.00  0.00     0.025 A 
BRANCH  24  26
HETATM   26  C   UNL     1      41.174  -8.386  10.864  1.00  0.00    -0.015 A 
HETATM   27  C   UNL     1      42.560  -8.587  10.761  1.00  0.00     0.123 A 
HETATM   28  F   UNL     1      43.253  -7.907   9.834  1.00  0.00    -0.206 F 
HETATM   29  C   UNL     1      43.250  -9.466  11.594  1.00  0.00     0.043 A 
HETATM   30  C   UNL     1      42.559 -10.173  12.573  1.00  0.00     0.003 A 
HETATM   31  C   UNL     1      41.185  -9.991  12.712  1.00  0.00     0.001 A 
HETATM   32  C   UNL     1      40.504  -9.104  11.871  1.00  0.00     0.011 A 
ENDBRANCH  24  26
ENDBRANCH  20  23
ENDBRANCH   2  19
TORSDOF 6
ENDMDL
MODEL 6
REMARK VINA RESULT:      -8.1      3.429     10.443
REMARK  6 active torsions:
REMARK  status: ('A' for Active; 'I' for Inactive)
REMARK    1  A    between atoms: O_2  and  C_3 
REMARK    2  A    between atoms: C_6  and  C_7 
REMARK    3  A    between atoms: C_11  and  C_12 
REMARK       I    between atoms: C_12  and  N_13 
REMARK    4  A    between atoms: N_13  and  N_14 
REMARK       I    between atoms: N_14  and  C_15 
REMARK    5  A    between atoms: C_15  and  C_16 
REMARK    6  A    between atoms: C_17  and  C_18 
ROOT
HETATM    1  C   UNL     1      44.208 -11.780   7.399  1.00  0.00     0.288 C 
HETATM    2  N   UNL     1      43.383 -12.840   7.083  1.00  0.00    -0.262 N 
HETATM    3  O   UNL     1      45.374 -11.720   7.013  1.00  0.00    -0.264 OA
HETATM    4  H   UNL     1      42.468 -12.977   7.504  1.00  0.00     0.190 HD
ENDROOT
BRANCH   1   5
HETATM    5  C   UNL     1      43.601 -10.751   8.199  1.00  0.00     0.121 A 
HETATM    6  N   UNL     1      42.442 -10.133   7.824  1.00  0.00    -0.272 N 
HETATM    7  N   UNL     1      41.985  -9.237   8.711  1.00  0.00    -0.174 NA
HETATM    8  H   UNL     1      41.908 -10.302   6.977  1.00  0.00     0.189 HD
HETATM    9  C   UNL     1      42.892  -9.245   9.701  1.00  0.00     0.089 A 
HETATM   10  C   UNL     1      43.928 -10.176   9.410  1.00  0.00     0.071 A 
BRANCH   9  11
HETATM   11  C   UNL     1      42.744  -8.413  10.897  1.00  0.00    -0.005 A 
HETATM   12  C   UNL     1      41.811  -7.366  10.924  1.00  0.00     0.016 A 
HETATM   13  C   UNL     1      41.621  -6.598  12.080  1.00  0.00     0.037 A 
HETATM   14  C   UNL     1      42.366  -6.864  13.228  1.00  0.00     0.068 A 
HETATM   15  C   UNL     1      43.318  -7.887  13.199  1.00  0.00     0.037 A 
HETATM   16  C   UNL     1      43.504  -8.658  12.047  1.00  0.00     0.016 A 
BRANCH  14  17
HETATM   17  O   UNL     1      42.270  -6.204  14.420  1.00  0.00    -0.356 OA
HETATM   18  C   UNL     1      41.204  -5.272  14.549  1.00  0.00     0.210 C 
ENDBRANCH  14  17
ENDBRANCH   9  11
ENDBRANCH   1   5
BRANCH   2  19
HETATM   19  N   UNL     1      43.910 -13.933   6.392  1.00  0.00    -0.267 N 
HETATM   20  C   UNL     1      43.223 -15.124   6.438  1.00  0.00     0.240 C 
HETATM   21  O   UNL     1      42.163 -15.271   7.041  1.00  0.00    -0.271 OA
HETATM   22  H   UNL     1      44.792 -13.802   5.902  1.00  0.00     0.190 HD
BRANCH  20  23
HETATM   23  C   UNL     1      43.873 -16.234   5.694  1.00  0.00     0.089 A 
HETATM   24  C   UNL     1      43.426 -16.634   4.298  1.00  0.00     0.036 A 
HETATM   25  C   UNL     1      43.139 -17.533   5.476  1.00  0.00     0.025 A 
BRANCH  24  26
HETATM   26  C   UNL     1      42.310 -15.907   3.584  1.00  0.00    -0.015 A 
HETATM   27  C   UNL     1      42.574 -14.834   2.718  1.00  0.00     0.123 A 
HETATM   28  F   UNL     1      43.845 -14.437   2.536  1.00  0.00    -0.206 F 
HETATM   29  C   UNL     1      41.565 -14.164   2.029  1.00  0.00     0.043 A 
HETATM   30  C   UNL     1      40.241 -14.564   2.187  1.00  0.00     0.003 A 
HETATM   31  C   UNL     1      39.941 -15.632   3.030  1.00  0.00     0.001 A 
HETATM   32  C   UNL     1      40.965 -16.297   3.715  1.00  0.00     0.011 A 
ENDBRANCH  24  26
ENDBRANCH  20  23
ENDBRANCH   2  19
TORSDOF 6
ENDMDL
MODEL 7
REMARK VINA RESULT:      -7.7     18.581     20.382
REMARK  6 active torsions:
REMARK  status: ('A' for Active; 'I' for Inactive)
REMARK    1  A    between atoms: O_2  and  C_3 
REMARK    2  A    between atoms: C_6  and  C_7 
REMARK    3  A    between atoms: C_11  and  C_12 
REMARK       I    between atoms: C_12  and  N_13 
REMARK    4  A    between atoms: N_13  and  N_14 
REMARK       I    between atoms: N_14  and  C_15 
REMARK    5  A    between atoms: C_15  and  C_16 
REMARK    6  A    between atoms: C_17  and  C_18 
ROOT
HETATM    1  C   UNL     1      43.400 -29.482   1.331  1.00  0.00     0.288 C 
HETATM    2  N   UNL     1      44.662 -29.169   1.789  1.00  0.00    -0.262 N 
HETATM    3  O   UNL     1      43.044 -29.246   0.178  1.00  0.00    -0.264 OA
HETATM    4  H   UNL     1      44.929 -29.225   2.768  1.00  0.00     0.190 HD
ENDROOT
BRANCH   1   5
HETATM    5  C   UNL     1      42.539 -30.113   2.295  1.00  0.00     0.121 A 
HETATM    6  N   UNL     1      41.325 -30.634   1.948  1.00  0.00    -0.272 N 
HETATM    7  N   UNL     1      40.675 -31.233   2.957  1.00  0.00    -0.174 NA
HETATM    8  H   UNL     1      40.898 -30.625   1.026  1.00  0.00     0.189 HD
HETATM    9  C   UNL     1      41.482 -31.080   4.019  1.00  0.00     0.089 A 
HETATM   10  C   UNL     1      42.658 -30.372   3.645  1.00  0.00     0.071 A 
BRANCH   9  11
HETATM   11  C   UNL     1      41.147 -31.629   5.335  1.00  0.00    -0.005 A 
HETATM   12  C   UNL     1      42.131 -31.749   6.327  1.00  0.00     0.016 A 
HETATM   13  C   UNL     1      41.812 -32.221   7.607  1.00  0.00     0.037 A 
HETATM   14  C   UNL     1      40.502 -32.585   7.912  1.00  0.00     0.068 A 
HETATM   15  C   UNL     1      39.522 -32.496   6.921  1.00  0.00     0.037 A 
HETATM   16  C   UNL     1      39.838 -32.019   5.644  1.00  0.00     0.016 A 
BRANCH  14  17
HETATM   17  O   UNL     1      40.055 -33.045   9.119  1.00  0.00    -0.356 OA
HETATM   18  C   UNL     1      40.933 -32.885  10.227  1.00  0.00     0.210 C 
ENDBRANCH  14  17
ENDBRANCH   9  11
ENDBRANCH   1   5
BRANCH   2  19
HETATM   19  N   UNL     1      45.537 -28.467   0.956  1.00  0.00    -0.267 N 
HETATM   20  C   UNL     1      46.664 -29.113   0.505  1.00  0.00     0.240 C 
HETATM   21  O   UNL     1      46.933 -30.279   0.782  1.00  0.00    -0.271 OA
HETATM   22  H   UNL     1      45.308 -27.500   0.739  1.00  0.00     0.190 HD
BRANCH  20  23
HETATM   23  C   UNL     1      47.545 -28.278  -0.354  1.00  0.00     0.089 A 
HETATM   24  C   UNL     1      47.397 -28.248  -1.866  1.00  0.00     0.036 A 
HETATM   25  C   UNL     1      48.585 -28.928  -1.231  1.00  0.00     0.025 A 
BRANCH  24  26
HETATM   26  C   UNL     1      46.329 -29.051  -2.573  1.00  0.00    -0.015 A 
HETATM   27  C   UNL     1      45.019 -28.564  -2.710  1.00  0.00     0.123 A 
HETATM   28  F   UNL     1      44.708 -27.368  -2.183  1.00  0.00    -0.206 F 
HETATM   29  C   UNL     1      44.024 -29.273  -3.379  1.00  0.00     0.043 A 
HETATM   30  C   UNL     1      44.323 -30.509  -3.947  1.00  0.00     0.003 A 
HETATM   31  C   UNL     1      45.615 -31.019  -3.842  1.00  0.00     0.001 A 
HETATM   32  C   UNL     1      46.605 -30.295  -3.168  1.00  0.00     0.011 A 
ENDBRANCH  24  26
ENDBRANCH  20  23
ENDBRANCH   2  19
TORSDOF 6
ENDMDL
MODEL 8
REMARK VINA RESULT:      -7.5      6.465     10.281
REMARK  6 active torsions:
REMARK  status: ('A' for Active; 'I' for Inactive)
REMARK    1  A    between atoms: O_2  and  C_3 
REMARK    2  A    between atoms: C_6  and  C_7 
REMARK    3  A    between atoms: C_11  and  C_12 
REMARK       I    between atoms: C_12  and  N_13 
REMARK    4  A    between atoms: N_13  and  N_14 
REMARK       I    between atoms: N_14  and  C_15 
REMARK    5  A    between atoms: C_15  and  C_16 
REMARK    6  A    between atoms: C_17  and  C_18 
ROOT
HETATM    1  C   UNL     1      41.080  -7.304  15.954  1.00  0.00     0.288 C 
HETATM    2  N   UNL     1      41.400  -8.123  17.016  1.00  0.00    -0.262 N 
HETATM    3  O   UNL     1      40.157  -6.493  16.007  1.00  0.00    -0.264 OA
HETATM    4  H   UNL     1      42.063  -8.891  16.947  1.00  0.00     0.190 HD
ENDROOT
BRANCH   1   5
HETATM    5  C   UNL     1      41.909  -7.460  14.790  1.00  0.00     0.121 A 
HETATM    6  N   UNL     1      43.147  -6.888  14.702  1.00  0.00    -0.272 N 
HETATM    7  N   UNL     1      43.808  -7.179  13.572  1.00  0.00    -0.174 NA
HETATM    8  H   UNL     1      43.599  -6.303  15.399  1.00  0.00     0.189 HD
HETATM    9  C   UNL     1      42.963  -7.955  12.874  1.00  0.00     0.089 A 
HETATM   10  C   UNL     1      41.756  -8.145  13.602  1.00  0.00     0.071 A 
BRANCH   9  11
HETATM   11  C   UNL     1      43.324  -8.520  11.572  1.00  0.00    -0.005 A 
HETATM   12  C   UNL     1      43.688  -9.869  11.459  1.00  0.00     0.016 A 
HETATM   13  C   UNL     1      43.982 -10.436  10.212  1.00  0.00     0.037 A 
HETATM   14  C   UNL     1      43.920  -9.657   9.057  1.00  0.00     0.068 A 
HETATM   15  C   UNL     1      43.586  -8.305   9.166  1.00  0.00     0.037 A 
HETATM   16  C   UNL     1      43.287  -7.740  10.410  1.00  0.00     0.016 A 
BRANCH  14  17
HETATM   17  O   UNL     1      44.167 -10.086   7.784  1.00  0.00    -0.356 OA
HETATM   18  C   UNL     1      44.352 -11.485   7.607  1.00  0.00     0.210 C 
ENDBRANCH  14  17
ENDBRANCH   9  11
ENDBRANCH   1   5
BRANCH   2  19
HETATM   19  N   UNL     1      40.592  -8.113  18.155  1.00  0.00    -0.267 N 
HETATM   20  C   UNL     1      41.001  -7.367  19.236  1.00  0.00     0.240 C 
HETATM   21  O   UNL     1      42.030  -6.698  19.247  1.00  0.00    -0.271 OA
HETATM   22  H   UNL     1      39.746  -8.678  18.139  1.00  0.00     0.190 HD
BRANCH  20  23
HETATM   23  C   UNL     1      40.089  -7.440  20.409  1.00  0.00     0.089 A 
HETATM   24  C   UNL     1      40.330  -8.408  21.554  1.00  0.00     0.036 A 
HETATM   25  C   UNL     1      39.187  -8.633  20.594  1.00  0.00     0.025 A 
BRANCH  24  26
HETATM   26  C   UNL     1      41.525  -9.335  21.570  1.00  0.00    -0.015 A 
HETATM   27  C   UNL     1      42.689  -9.011  22.285  1.00  0.00     0.123 A 
HETATM   28  F   UNL     1      42.746  -7.846  22.952  1.00  0.00    -0.206 F 
HETATM   29  C   UNL     1      43.794  -9.860  22.336  1.00  0.00     0.043 A 
HETATM   30  C   UNL     1      43.756 -11.079  21.667  1.00  0.00     0.003 A 
HETATM   31  C   UNL     1      42.614 -11.439  20.956  1.00  0.00     0.001 A 
HETATM   32  C   UNL     1      41.511 -10.579  20.914  1.00  0.00     0.011 A 
ENDBRANCH  24  26
ENDBRANCH  20  23
ENDBRANCH   2  19
TORSDOF 6
ENDMDL
MODEL 9
REMARK VINA RESULT:      -7.4      6.594     10.497
REMARK  6 active torsions:
REMARK  status: ('A' for Active; 'I' for Inactive)
REMARK    1  A    between atoms: O_2  and  C_3 
REMARK    2  A    between atoms: C_6  and  C_7 
REMARK    3  A    between atoms: C_11  and  C_12 
REMARK       I    between atoms: C_12  and  N_13 
REMARK    4  A    between atoms: N_13  and  N_14 
REMARK       I    between atoms: N_14  and  C_15 
REMARK    5  A    between atoms: C_15  and  C_16 
REMARK    6  A    between atoms: C_17  and  C_18 
ROOT
HETATM    1  C   UNL     1      40.735 -13.841  -0.036  1.00  0.00     0.288 C 
HETATM    2  N   UNL     1      41.682 -14.228   0.890  1.00  0.00    -0.262 N 
HETATM    3  O   UNL     1      39.775 -14.552  -0.327  1.00  0.00    -0.264 OA
HETATM    4  H   UNL     1      42.551 -13.724   1.042  1.00  0.00     0.190 HD
ENDROOT
BRANCH   1   5
HETATM    5  C   UNL     1      40.950 -12.547  -0.624  1.00  0.00     0.121 A 
HETATM    6  N   UNL     1      41.019 -12.370  -1.977  1.00  0.00    -0.272 N 
HETATM    7  N   UNL     1      41.169 -11.093  -2.358  1.00  0.00    -0.174 NA
HETATM    8  H   UNL     1      40.950 -13.090  -2.690  1.00  0.00     0.189 HD
HETATM    9  C   UNL     1      41.225 -10.401  -1.209  1.00  0.00     0.089 A 
HETATM   10  C   UNL     1      41.102 -11.280  -0.098  1.00  0.00     0.071 A 
BRANCH   9  11
HETATM   11  C   UNL     1      41.356  -8.941  -1.187  1.00  0.00    -0.005 A 
HETATM   12  C   UNL     1      40.522  -8.165  -0.369  1.00  0.00     0.016 A 
HETATM   13  C   UNL     1      40.673  -6.774  -0.298  1.00  0.00     0.037 A 
HETATM   14  C   UNL     1      41.660  -6.138  -1.048  1.00  0.00     0.068 A 
HETATM   15  C   UNL     1      42.474  -6.901  -1.888  1.00  0.00     0.037 A 
HETATM   16  C   UNL     1      42.328  -8.291  -1.956  1.00  0.00     0.016 A 
BRANCH  14  17
HETATM   17  O   UNL     1      41.922  -4.797  -1.060  1.00  0.00    -0.356 OA
HETATM   18  C   UNL     1      43.281  -4.414  -1.228  1.00  0.00     0.210 C 
ENDBRANCH  14  17
ENDBRANCH   9  11
ENDBRANCH   1   5
BRANCH   2  19
HETATM   19  N   UNL     1      41.613 -15.508   1.444  1.00  0.00    -0.267 N 
HETATM   20  C   UNL     1      42.790 -16.142   1.765  1.00  0.00     0.240 C 
HETATM   21  O   UNL     1      43.898 -15.635   1.606  1.00  0.00    -0.271 OA
HETATM   22  H   UNL     1      40.691 -15.922   1.564  1.00  0.00     0.190 HD
BRANCH  20  23
HETATM   23  C   UNL     1      42.616 -17.509   2.325  1.00  0.00     0.089 A 
HETATM   24  C   UNL     1      42.542 -17.759   3.821  1.00  0.00     0.036 A 
HETATM   25  C   UNL     1      43.759 -18.187   3.037  1.00  0.00     0.025 A 
BRANCH  24  26
HETATM   26  C   UNL     1      42.620 -16.627   4.819  1.00  0.00    -0.015 A 
HETATM   27  C   UNL     1      41.465 -15.956   5.253  1.00  0.00     0.123 A 
HETATM   28  F   UNL     1      40.271 -16.318   4.754  1.00  0.00    -0.206 F 
HETATM   29  C   UNL     1      41.508 -14.926   6.191  1.00  0.00     0.043 A 
HETATM   30  C   UNL     1      42.729 -14.540   6.734  1.00  0.00     0.003 A 
HETATM   31  C   UNL     1      43.895 -15.191   6.337  1.00  0.00     0.001 A 
HETATM   32  C   UNL     1      43.838 -16.225   5.395  1.00  0.00     0.011 A 
ENDBRANCH  24  26
ENDBRANCH  20  23
ENDBRANCH   2  19
TORSDOF 6
ENDMDL
MODEL 10
REMARK VINA RESULT:      -7.4     18.369     21.219
REMARK  6 active torsions:
REMARK  status: ('A' for Active; 'I' for Inactive)
REMARK    1  A    between atoms: O_2  and  C_3 
REMARK    2  A    between atoms: C_6  and  C_7 
REMARK    3  A    between atoms: C_11  and  C_12 
REMARK       I    between atoms: C_12  and  N_13 
REMARK    4  A    between atoms: N_13  and  N_14 
REMARK       I    between atoms: N_14  and  C_15 
REMARK    5  A    between atoms: C_15  and  C_16 
REMARK    6  A    between atoms: C_17  and  C_18 
ROOT
HETATM    1  C   UNL     1      50.263 -30.279   1.755  1.00  0.00     0.288 C 
HETATM    2  N   UNL     1      49.012 -29.701   1.817  1.00  0.00    -0.262 N 
HETATM    3  O   UNL     1      51.003 -30.136   0.784  1.00  0.00    -0.264 OA
HETATM    4  H   UNL     1      48.333 -29.919   2.541  1.00  0.00     0.190 HD
ENDROOT
BRANCH   1   5
HETATM    5  C   UNL     1      50.637 -31.048   2.910  1.00  0.00     0.121 A 
HETATM    6  N   UNL     1      50.701 -32.413   2.881  1.00  0.00    -0.272 N 
HETATM    7  N   UNL     1      51.119 -32.969   4.028  1.00  0.00    -0.174 NA
HETATM    8  H   UNL     1      50.486 -33.016   2.092  1.00  0.00     0.189 HD
HETATM    9  C   UNL     1      51.317 -31.931   4.856  1.00  0.00     0.089 A 
HETATM   10  C   UNL     1      51.015 -30.709   4.194  1.00  0.00     0.071 A 
BRANCH   9  11
HETATM   11  C   UNL     1      51.814 -32.112   6.222  1.00  0.00    -0.005 A 
HETATM   12  C   UNL     1      52.932 -31.395   6.672  1.00  0.00     0.016 A 
HETATM   13  C   UNL     1      53.385 -31.518   7.992  1.00  0.00     0.037 A 
HETATM   14  C   UNL     1      52.726 -32.364   8.882  1.00  0.00     0.068 A 
HETATM   15  C   UNL     1      51.629 -33.103   8.433  1.00  0.00     0.037 A 
HETATM   16  C   UNL     1      51.173 -32.977   7.116  1.00  0.00     0.016 A 
BRANCH  14  17
HETATM   17  O   UNL     1      53.052 -32.564  10.194  1.00  0.00    -0.356 OA
HETATM   18  C   UNL     1      51.971 -32.698  11.107  1.00  0.00     0.210 C 
ENDBRANCH  14  17
ENDBRANCH   9  11
ENDBRANCH   1   5
BRANCH   2  19
HETATM   19  N   UNL     1      48.520 -29.015   0.704  1.00  0.00    -0.267 N 
HETATM   20  C   UNL     1      47.398 -28.236   0.863  1.00  0.00     0.240 C 
HETATM   21  O   UNL     1      46.815 -28.100   1.936  1.00  0.00    -0.271 OA
HETATM   22  H   UNL     1      49.006 -29.142  -0.181  1.00  0.00     0.190 HD
BRANCH  20  23
HETATM   23  C   UNL     1      46.936 -27.567  -0.382  1.00  0.00     0.089 A 
HETATM   24  C   UNL     1      45.962 -28.236  -1.337  1.00  0.00     0.036 A 
HETATM   25  C   UNL     1      47.410 -28.059  -1.726  1.00  0.00     0.025 A 
BRANCH  24  26
HETATM   26  C   UNL     1      45.395 -29.609  -1.059  1.00  0.00    -0.015 A 
HETATM   27  C   UNL     1      44.199 -29.773  -0.342  1.00  0.00     0.123 A 
HETATM   28  F   UNL     1      43.559 -28.686   0.121  1.00  0.00    -0.206 F 
HETATM   29  C   UNL     1      43.642 -31.027  -0.094  1.00  0.00     0.043 A 
HETATM   30  C   UNL     1      44.277 -32.168  -0.574  1.00  0.00     0.003 A 
HETATM   31  C   UNL     1      45.460 -32.044  -1.300  1.00  0.00     0.001 A 
HETATM   32  C   UNL     1      46.007 -30.779  -1.543  1.00  0.00     0.011 A 
ENDBRANCH  24  26
ENDBRANCH  20  23
ENDBRANCH   2  19
TORSDOF 6
ENDMDL
