MODEL 1
REMARK VINA RESULT:      -9.9      0.000      0.000
REMARK  7 active torsions:
REMARK  status: ('A' for Active; 'I' for Inactive)
REMARK    1  A    between atoms: C_5  and  C_6 
REMARK    2  A    between atoms: C_10  and  C_11 
REMARK       I    between atoms: C_11  and  N_12 
REMARK    3  A    between atoms: N_12  and  N_13 
REMARK       I    between atoms: N_13  and  C_14 
REMARK       I    between atoms: C_14  and  N_15 
REMARK    4  A    between atoms: N_15  and  C_16 
REMARK    5  A    between atoms: C_16  and  C_17 
REMARK    6  A    between atoms: C_17  and  C_18 
REMARK    7  A    between atoms: C_21  and  O_22 
ROOT
HETATM    1  C   UNL     1      44.217 -11.189   7.605  1.00  0.00     0.288 C 
HETATM    2  N   UNL     1      42.989 -11.599   7.135  1.00  0.00    -0.261 N 
HETATM    3  O   UNL     1      45.250 -11.335   6.955  1.00  0.00    -0.264 OA
HETATM    4  H   UNL     1      42.147 -11.614   7.706  1.00  0.00     0.190 HD
ENDROOT
BRANCH   2   5
HETATM    5  N   UNL     1      42.926 -12.311   5.930  1.00  0.00    -0.249 N 
HETATM    6  C   UNL     1      42.627 -13.652   6.000  1.00  0.00     0.335 C 
HETATM    7  N   UNL     1      42.476 -14.210   4.754  1.00  0.00    -0.337 N 
HETATM    8  O   UNL     1      42.535 -14.261   7.060  1.00  0.00    -0.246 OA
HETATM    9  H   UNL     1      42.994 -13.725   4.032  1.00  0.00     0.164 HD
HETATM   10  H   UNL     1      42.679 -11.770   5.107  1.00  0.00     0.192 HD
BRANCH   7  11
HETATM   11  C   UNL     1      42.352 -15.659   4.589  1.00  0.00     0.086 C 
HETATM   12  C   UNL     1      40.894 -16.059   4.343  1.00  0.00     0.032 C 
BRANCH  11  13
HETATM   13  C   UNL     1      43.225 -16.171   3.419  1.00  0.00     0.063 C 
BRANCH  13  14
HETATM   14  C   UNL     1      43.460 -17.669   3.381  1.00  0.00    -0.056 A 
HETATM   15  C   UNL     1      43.118 -18.447   2.265  1.00  0.00     0.010 A 
HETATM   16  C   UNL     1      43.330 -19.829   2.267  1.00  0.00     0.037 A 
HETATM   17  C   UNL     1      43.907 -20.432   3.379  1.00  0.00     0.065 A 
HETATM   18  C   UNL     1      44.280 -19.677   4.482  1.00  0.00     0.037 A 
HETATM   19  C   UNL     1      44.062 -18.299   4.482  1.00  0.00     0.010 A 
BRANCH  17  20
HETATM   20  O   UNL     1      44.125 -21.776   3.427  1.00  0.00    -0.361 OA
HETATM   21  H   UNL     1      44.937 -21.977   2.932  1.00  0.00     0.217 HD
ENDBRANCH  17  20
ENDBRANCH  13  14
ENDBRANCH  11  13
ENDBRANCH   7  11
ENDBRANCH   2   5
BRANCH   1  22
HETATM   22  C   UNL     1      44.207 -10.577   8.905  1.00  0.00     0.121 A 
HETATM   23  N   UNL     1      45.344 -10.076   9.471  1.00  0.00    -0.272 N 
HETATM   24  N   UNL     1      45.162  -9.530  10.681  1.00  0.00    -0.174 NA
HETATM   25  H   UNL     1      46.278 -10.082   9.071  1.00  0.00     0.189 HD
HETATM   26  C   UNL     1      43.845  -9.645  10.914  1.00  0.00     0.089 A 
HETATM   27  C   UNL     1      43.213 -10.320   9.829  1.00  0.00     0.071 A 
BRANCH  26  28
HETATM   28  C   UNL     1      43.229  -9.113  12.135  1.00  0.00    -0.006 A 
HETATM   29  C   UNL     1      43.661  -7.906  12.700  1.00  0.00     0.014 A 
HETATM   30  C   UNL     1      43.081  -7.418  13.878  1.00  0.00     0.007 A 
HETATM   31  C   UNL     1      42.062  -8.132  14.516  1.00  0.00    -0.062 A 
HETATM   32  C   UNL     1      41.426  -7.613  15.772  1.00  0.00     0.048 C 
HETATM   33  C   UNL     1      41.617  -9.330  13.949  1.00  0.00     0.007 A 
HETATM   34  C   UNL     1      42.199  -9.818  12.774  1.00  0.00     0.014 A 
ENDBRANCH  26  28
ENDBRANCH   1  22
TORSDOF 7
ENDMDL
MODEL 2
REMARK VINA RESULT:      -9.8      1.345      2.158
REMARK  7 active torsions:
REMARK  status: ('A' for Active; 'I' for Inactive)
REMARK    1  A    between atoms: C_5  and  C_6 
REMARK    2  A    between atoms: C_10  and  C_11 
REMARK       I    between atoms: C_11  and  N_12 
REMARK    3  A    between atoms: N_12  and  N_13 
REMARK       I    between atoms: N_13  and  C_14 
REMARK       I    between atoms: C_14  and  N_15 
REMARK    4  A    between atoms: N_15  and  C_16 
REMARK    5  A    between atoms: C_16  and  C_17 
REMARK    6  A    between atoms: C_17  and  C_18 
REMARK    7  A    between atoms: C_21  and  O_22 
ROOT
HETATM    1  C   UNL     1      44.321 -11.571   5.718  1.00  0.00     0.288 C 
HETATM    2  N   UNL     1      43.200 -12.323   5.442  1.00  0.00    -0.261 N 
HETATM    3  O   UNL     1      45.154 -11.296   4.857  1.00  0.00    -0.264 OA
HETATM    4  H   UNL     1      42.572 -12.677   6.160  1.00  0.00     0.190 HD
ENDROOT
BRANCH   2   5
HETATM    5  N   UNL     1      43.061 -12.892   4.169  1.00  0.00    -0.249 N 
HETATM    6  C   UNL     1      42.457 -14.127   4.088  1.00  0.00     0.335 C 
HETATM    7  N   UNL     1      42.271 -14.523   2.787  1.00  0.00    -0.337 N 
HETATM    8  O   UNL     1      42.153 -14.786   5.076  1.00  0.00    -0.246 OA
HETATM    9  H   UNL     1      42.936 -14.112   2.144  1.00  0.00     0.164 HD
HETATM   10  H   UNL     1      43.005 -12.240   3.394  1.00  0.00     0.192 HD
BRANCH   7  11
HETATM   11  C   UNL     1      41.828 -15.882   2.470  1.00  0.00     0.086 C 
HETATM   12  C   UNL     1      40.667 -15.860   1.471  1.00  0.00     0.032 C 
BRANCH  11  13
HETATM   13  C   UNL     1      42.984 -16.732   1.891  1.00  0.00     0.063 C 
BRANCH  13  14
HETATM   14  C   UNL     1      43.368 -17.956   2.699  1.00  0.00    -0.056 A 
HETATM   15  C   UNL     1      43.815 -17.862   4.025  1.00  0.00     0.010 A 
HETATM   16  C   UNL     1      44.181 -19.008   4.737  1.00  0.00     0.037 A 
HETATM   17  C   UNL     1      44.077 -20.255   4.130  1.00  0.00     0.065 A 
HETATM   18  C   UNL     1      43.610 -20.373   2.829  1.00  0.00     0.037 A 
HETATM   19  C   UNL     1      43.252 -19.228   2.116  1.00  0.00     0.010 A 
BRANCH  17  20
HETATM   20  O   UNL     1      44.429 -21.397   4.785  1.00  0.00    -0.361 OA
HETATM   21  H   UNL     1      43.636 -21.771   5.204  1.00  0.00     0.217 HD
ENDBRANCH  17  20
ENDBRANCH  13  14
ENDBRANCH  11  13
ENDBRANCH   7  11
ENDBRANCH   2   5
BRANCH   1  22
HETATM   22  C   UNL     1      44.447 -11.129   7.079  1.00  0.00     0.121 A 
HETATM   23  N   UNL     1      45.667 -10.956   7.668  1.00  0.00    -0.272 N 
HETATM   24  N   UNL     1      45.611 -10.530   8.936  1.00  0.00    -0.174 NA
HETATM   25  H   UNL     1      46.576 -11.118   7.244  1.00  0.00     0.189 HD
HETATM   26  C   UNL     1      44.300 -10.383   9.191  1.00  0.00     0.089 A 
HETATM   27  C   UNL     1      43.535 -10.772   8.053  1.00  0.00     0.071 A 
BRANCH  26  28
HETATM   28  C   UNL     1      43.817  -9.878  10.480  1.00  0.00    -0.006 A 
HETATM   29  C   UNL     1      43.371 -10.750  11.482  1.00  0.00     0.014 A 
HETATM   30  C   UNL     1      42.891 -10.256  12.701  1.00  0.00     0.007 A 
HETATM   31  C   UNL     1      42.842  -8.880  12.940  1.00  0.00    -0.062 A 
HETATM   32  C   UNL     1      42.340  -8.340  14.246  1.00  0.00     0.048 C 
HETATM   33  C   UNL     1      43.299  -8.005  11.950  1.00  0.00     0.007 A 
HETATM   34  C   UNL     1      43.776  -8.499  10.731  1.00  0.00     0.014 A 
ENDBRANCH  26  28
ENDBRANCH   1  22
TORSDOF 7
ENDMDL
MODEL 3
REMARK VINA RESULT:      -9.1      2.818     10.993
REMARK  7 active torsions:
REMARK  status: ('A' for Active; 'I' for Inactive)
REMARK    1  A    between atoms: C_5  and  C_6 
REMARK    2  A    between atoms: C_10  and  C_11 
REMARK       I    between atoms: C_11  and  N_12 
REMARK    3  A    between atoms: N_12  and  N_13 
REMARK       I    between atoms: N_13  and  C_14 
REMARK       I    between atoms: C_14  and  N_15 
REMARK    4  A    between atoms: N_15  and  C_16 
REMARK    5  A    between atoms: C_16  and  C_17 
REMARK    6  A    between atoms: C_17  and  C_18 
REMARK    7  A    between atoms: C_21  and  O_22 
ROOT
HETATM    1  C   UNL     1      42.595 -12.069   5.877  1.00  0.00     0.288 C 
HETATM    2  N   UNL     1      42.673 -11.665   7.192  1.00  0.00    -0.261 N 
HETATM    3  O   UNL     1      42.237 -11.310   4.978  1.00  0.00    -0.264 OA
HETATM    4  H   UNL     1      42.833 -12.307   7.966  1.00  0.00     0.190 HD
ENDROOT
BRANCH   2   5
HETATM    5  N   UNL     1      42.218 -10.386   7.537  1.00  0.00    -0.249 N 
HETATM    6  C   UNL     1      42.890  -9.722   8.538  1.00  0.00     0.335 C 
HETATM    7  N   UNL     1      42.430  -8.439   8.702  1.00  0.00    -0.337 N 
HETATM    8  O   UNL     1      43.775 -10.244   9.207  1.00  0.00    -0.246 OA
HETATM    9  H   UNL     1      41.467  -8.318   8.413  1.00  0.00     0.164 HD
HETATM   10  H   UNL     1      41.746  -9.869   6.802  1.00  0.00     0.192 HD
BRANCH   7  11
HETATM   11  C   UNL     1      42.865  -7.623   9.836  1.00  0.00     0.086 C 
HETATM   12  C   UNL     1      43.522  -6.324   9.357  1.00  0.00     0.032 C 
BRANCH  11  13
HETATM   13  C   UNL     1      41.682  -7.280  10.773  1.00  0.00     0.063 C 
BRANCH  13  14
HETATM   14  C   UNL     1      41.028  -8.461  11.464  1.00  0.00    -0.056 A 
HETATM   15  C   UNL     1      39.970  -9.172  10.879  1.00  0.00     0.010 A 
HETATM   16  C   UNL     1      39.374 -10.245  11.550  1.00  0.00     0.037 A 
HETATM   17  C   UNL     1      39.852 -10.622  12.800  1.00  0.00     0.065 A 
HETATM   18  C   UNL     1      40.917  -9.951  13.384  1.00  0.00     0.037 A 
HETATM   19  C   UNL     1      41.507  -8.876  12.717  1.00  0.00     0.010 A 
BRANCH  17  20
HETATM   20  O   UNL     1      39.298 -11.657  13.491  1.00  0.00    -0.361 OA
HETATM   21  H   UNL     1      38.331 -11.604  13.408  1.00  0.00     0.217 HD
ENDBRANCH  17  20
ENDBRANCH  13  14
ENDBRANCH  11  13
ENDBRANCH   7  11
ENDBRANCH   2   5
BRANCH   1  22
HETATM   22  C   UNL     1      42.965 -13.434   5.628  1.00  0.00     0.121 A 
HETATM   23  N   UNL     1      43.535 -14.212   6.595  1.00  0.00    -0.272 N 
HETATM   24  N   UNL     1      43.810 -15.463   6.205  1.00  0.00    -0.174 NA
HETATM   25  H   UNL     1      43.761 -13.934   7.546  1.00  0.00     0.189 HD
HETATM   26  C   UNL     1      43.375 -15.530   4.936  1.00  0.00     0.089 A 
HETATM   27  C   UNL     1      42.857 -14.265   4.530  1.00  0.00     0.071 A 
BRANCH  26  28
HETATM   28  C   UNL     1      43.452 -16.771   4.158  1.00  0.00    -0.006 A 
HETATM   29  C   UNL     1      42.803 -16.896   2.922  1.00  0.00     0.014 A 
HETATM   30  C   UNL     1      42.864 -18.093   2.198  1.00  0.00     0.007 A 
HETATM   31  C   UNL     1      43.570 -19.190   2.699  1.00  0.00    -0.062 A 
HETATM   32  C   UNL     1      43.651 -20.474   1.927  1.00  0.00     0.048 C 
HETATM   33  C   UNL     1      44.232 -19.068   3.925  1.00  0.00     0.007 A 
HETATM   34  C   UNL     1      44.167 -17.873   4.649  1.00  0.00     0.014 A 
ENDBRANCH  26  28
ENDBRANCH   1  22
TORSDOF 7
ENDMDL
MODEL 4
REMARK VINA RESULT:      -9.1      2.408     11.632
REMARK  7 active torsions:
REMARK  status: ('A' for Active; 'I' for Inactive)
REMARK    1  A    between atoms: C_5  and  C_6 
REMARK    2  A    between atoms: C_10  and  C_11 
REMARK       I    between atoms: C_11  and  N_12 
REMARK    3  A    between atoms: N_12  and  N_13 
REMARK       I    between atoms: N_13  and  C_14 
REMARK       I    between atoms: C_14  and  N_15 
REMARK    4  A    between atoms: N_15  and  C_16 
REMARK    5  A    between atoms: C_16  and  C_17 
REMARK    6  A    between atoms: C_17  and  C_18 
REMARK    7  A    between atoms: C_21  and  O_22 
ROOT
HETATM    1  C   UNL     1      42.571 -12.066   5.324  1.00  0.00     0.288 C 
HETATM    2  N   UNL     1      43.711 -11.516   5.869  1.00  0.00    -0.261 N 
HETATM    3  O   UNL     1      41.462 -11.555   5.471  1.00  0.00    -0.264 OA
HETATM    4  H   UNL     1      44.612 -11.990   5.878  1.00  0.00     0.190 HD
ENDROOT
BRANCH   2   5
HETATM    5  N   UNL     1      43.592 -10.405   6.714  1.00  0.00    -0.249 N 
HETATM    6  C   UNL     1      43.861 -10.593   8.051  1.00  0.00     0.335 C 
HETATM    7  N   UNL     1      43.828  -9.413   8.752  1.00  0.00    -0.337 N 
HETATM    8  O   UNL     1      44.077 -11.697   8.539  1.00  0.00    -0.246 OA
HETATM    9  H   UNL     1      43.232  -8.712   8.329  1.00  0.00     0.164 HD
HETATM   10  H   UNL     1      43.741  -9.500   6.281  1.00  0.00     0.192 HD
BRANCH   7  11
HETATM   11  C   UNL     1      43.890  -9.405  10.214  1.00  0.00     0.086 C 
HETATM   12  C   UNL     1      45.329  -9.597  10.703  1.00  0.00     0.032 C 
BRANCH  11  13
HETATM   13  C   UNL     1      43.324  -8.087  10.795  1.00  0.00     0.063 C 
BRANCH  13  14
HETATM   14  C   UNL     1      42.791  -8.169  12.212  1.00  0.00    -0.056 A 
HETATM   15  C   UNL     1      43.241  -7.311  13.227  1.00  0.00     0.010 A 
HETATM   16  C   UNL     1      42.744  -7.425  14.529  1.00  0.00     0.037 A 
HETATM   17  C   UNL     1      41.777  -8.382  14.813  1.00  0.00     0.065 A 
HETATM   18  C   UNL     1      41.296  -9.221  13.817  1.00  0.00     0.037 A 
HETATM   19  C   UNL     1      41.798  -9.113  12.519  1.00  0.00     0.010 A 
BRANCH  17  20
HETATM   20  O   UNL     1      41.270  -8.531  16.069  1.00  0.00    -0.361 OA
HETATM   21  H   UNL     1      41.874  -9.091  16.584  1.00  0.00     0.217 HD
ENDBRANCH  17  20
ENDBRANCH  13  14
ENDBRANCH  11  13
ENDBRANCH   7  11
ENDBRANCH   2   5
BRANCH   1  22
HETATM   22  C   UNL     1      42.767 -13.274   4.572  1.00  0.00     0.121 A 
HETATM   23  N   UNL     1      42.944 -13.256   3.218  1.00  0.00    -0.272 N 
HETATM   24  N   UNL     1      43.124 -14.465   2.670  1.00  0.00    -0.174 NA
HETATM   25  H   UNL     1      42.951 -12.439   2.615  1.00  0.00     0.189 HD
HETATM   26  C   UNL     1      43.096 -15.319   3.707  1.00  0.00     0.089 A 
HETATM   27  C   UNL     1      42.851 -14.609   4.919  1.00  0.00     0.071 A 
BRANCH  26  28
HETATM   28  C   UNL     1      43.309 -16.759   3.526  1.00  0.00    -0.006 A 
HETATM   29  C   UNL     1      44.006 -17.515   4.478  1.00  0.00     0.014 A 
HETATM   30  C   UNL     1      44.224 -18.886   4.285  1.00  0.00     0.007 A 
HETATM   31  C   UNL     1      43.753 -19.524   3.133  1.00  0.00    -0.062 A 
HETATM   32  C   UNL     1      43.970 -20.993   2.922  1.00  0.00     0.048 C 
HETATM   33  C   UNL     1      43.044 -18.777   2.187  1.00  0.00     0.007 A 
HETATM   34  C   UNL     1      42.831 -17.408   2.379  1.00  0.00     0.014 A 
ENDBRANCH  26  28
ENDBRANCH   1  22
TORSDOF 7
ENDMDL
MODEL 5
REMARK VINA RESULT:      -8.9      2.720     12.039
REMARK  7 active torsions:
REMARK  status: ('A' for Active; 'I' for Inactive)
REMARK    1  A    between atoms: C_5  and  C_6 
REMARK    2  A    between atoms: C_10  and  C_11 
REMARK       I    between atoms: C_11  and  N_12 
REMARK    3  A    between atoms: N_12  and  N_13 
REMARK       I    between atoms: N_13  and  C_14 
REMARK       I    between atoms: C_14  and  N_15 
REMARK    4  A    between atoms: N_15  and  C_16 
REMARK    5  A    between atoms: C_16  and  C_17 
REMARK    6  A    between atoms: C_17  and  C_18 
REMARK    7  A    between atoms: C_21  and  O_22 
ROOT
HETATM    1  C   UNL     1      42.297 -12.258   6.087  1.00  0.00     0.288 C 
HETATM    2  N   UNL     1      42.971 -11.589   7.085  1.00  0.00    -0.261 N 
HETATM    3  O   UNL     1      41.364 -11.746   5.470  1.00  0.00    -0.264 OA
HETATM    4  H   UNL     1      43.649 -12.036   7.699  1.00  0.00     0.190 HD
ENDROOT
BRANCH   2   5
HETATM    5  N   UNL     1      42.506 -10.332   7.494  1.00  0.00    -0.249 N 
HETATM    6  C   UNL     1      43.009  -9.821   8.669  1.00  0.00     0.335 C 
HETATM    7  N   UNL     1      42.573  -8.540   8.900  1.00  0.00    -0.337 N 
HETATM    8  O   UNL     1      43.738 -10.463   9.417  1.00  0.00    -0.246 OA
HETATM    9  H   UNL     1      41.684  -8.334   8.462  1.00  0.00     0.164 HD
HETATM   10  H   UNL     1      42.195  -9.712   6.754  1.00  0.00     0.192 HD
BRANCH   7  11
HETATM   11  C   UNL     1      42.823  -7.879  10.182  1.00  0.00     0.086 C 
HETATM   12  C   UNL     1      42.826  -6.356  10.021  1.00  0.00     0.032 C 
BRANCH  11  13
HETATM   13  C   UNL     1      41.767  -8.280  11.240  1.00  0.00     0.063 C 
BRANCH  13  14
HETATM   14  C   UNL     1      41.926  -7.636  12.603  1.00  0.00    -0.056 A 
HETATM   15  C   UNL     1      43.137  -7.677  13.308  1.00  0.00     0.010 A 
HETATM   16  C   UNL     1      43.246  -7.090  14.573  1.00  0.00     0.037 A 
HETATM   17  C   UNL     1      42.148  -6.441  15.125  1.00  0.00     0.065 A 
HETATM   18  C   UNL     1      40.948  -6.363  14.431  1.00  0.00     0.037 A 
HETATM   19  C   UNL     1      40.837  -6.955  13.172  1.00  0.00     0.010 A 
BRANCH  17  20
HETATM   20  O   UNL     1      42.208  -5.861  16.357  1.00  0.00    -0.361 OA
HETATM   21  H   UNL     1      41.461  -5.247  16.448  1.00  0.00     0.217 HD
ENDBRANCH  17  20
ENDBRANCH  13  14
ENDBRANCH  11  13
ENDBRANCH   7  11
ENDBRANCH   2   5
BRANCH   1  22
HETATM   22  C   UNL     1      42.760 -13.590   5.814  1.00  0.00     0.121 A 
HETATM   23  N   UNL     1      43.464 -14.309   6.738  1.00  0.00    -0.272 N 
HETATM   24  N   UNL     1      43.813 -15.536   6.331  1.00  0.00    -0.174 NA
HETATM   25  H   UNL     1      43.735 -14.004   7.669  1.00  0.00     0.189 HD
HETATM   26  C   UNL     1      43.293 -15.649   5.098  1.00  0.00     0.089 A 
HETATM   27  C   UNL     1      42.642 -14.436   4.729  1.00  0.00     0.071 A 
BRANCH  26  28
HETATM   28  C   UNL     1      43.416 -16.886   4.320  1.00  0.00    -0.006 A 
HETATM   29  C   UNL     1      44.136 -17.984   4.810  1.00  0.00     0.014 A 
HETATM   30  C   UNL     1      44.267 -19.153   4.050  1.00  0.00     0.007 A 
HETATM   31  C   UNL     1      43.685 -19.244   2.782  1.00  0.00    -0.062 A 
HETATM   32  C   UNL     1      43.809 -20.494   1.963  1.00  0.00     0.048 C 
HETATM   33  C   UNL     1      42.954 -18.156   2.293  1.00  0.00     0.007 A 
HETATM   34  C   UNL     1      42.827 -16.989   3.052  1.00  0.00     0.014 A 
ENDBRANCH  26  28
ENDBRANCH   1  22
TORSDOF 7
ENDMDL
MODEL 6
REMARK VINA RESULT:      -8.8      1.497      2.095
REMARK  7 active torsions:
REMARK  status: ('A' for Active; 'I' for Inactive)
REMARK    1  A    between atoms: C_5  and  C_6 
REMARK    2  A    between atoms: C_10  and  C_11 
REMARK       I    between atoms: C_11  and  N_12 
REMARK    3  A    between atoms: N_12  and  N_13 
REMARK       I    between atoms: N_13  and  C_14 
REMARK       I    between atoms: C_14  and  N_15 
REMARK    4  A    between atoms: N_15  and  C_16 
REMARK    5  A    between atoms: C_16  and  C_17 
REMARK    6  A    between atoms: C_17  and  C_18 
REMARK    7  A    between atoms: C_21  and  O_22 
ROOT
HETATM    1  C   UNL     1      42.634 -10.189   7.746  1.00  0.00     0.288 C 
HETATM    2  N   UNL     1      42.975 -11.430   7.254  1.00  0.00    -0.261 N 
HETATM    3  O   UNL     1      42.210  -9.290   7.021  1.00  0.00    -0.264 OA
HETATM    4  H   UNL     1      43.453 -12.139   7.806  1.00  0.00     0.190 HD
ENDROOT
BRANCH   2   5
HETATM    5  N   UNL     1      42.953 -11.640   5.869  1.00  0.00    -0.249 N 
HETATM    6  C   UNL     1      42.286 -12.753   5.407  1.00  0.00     0.335 C 
HETATM    7  N   UNL     1      42.231 -12.785   4.036  1.00  0.00    -0.337 N 
HETATM    8  O   UNL     1      41.827 -13.612   6.152  1.00  0.00    -0.246 OA
HETATM    9  H   UNL     1      42.991 -12.286   3.592  1.00  0.00     0.164 HD
HETATM   10  H   UNL     1      43.029 -10.809   5.292  1.00  0.00     0.192 HD
BRANCH   7  11
HETATM   11  C   UNL     1      41.744 -13.972   3.330  1.00  0.00     0.086 C 
HETATM   12  C   UNL     1      40.657 -13.600   2.317  1.00  0.00     0.032 C 
BRANCH  11  13
HETATM   13  C   UNL     1      42.894 -14.705   2.599  1.00  0.00     0.063 C 
BRANCH  13  14
HETATM   14  C   UNL     1      43.258 -16.070   3.149  1.00  0.00    -0.056 A 
HETATM   15  C   UNL     1      43.558 -16.270   4.505  1.00  0.00     0.010 A 
HETATM   16  C   UNL     1      43.909 -17.538   4.978  1.00  0.00     0.037 A 
HETATM   17  C   UNL     1      43.938 -18.615   4.098  1.00  0.00     0.065 A 
HETATM   18  C   UNL     1      43.616 -18.445   2.759  1.00  0.00     0.037 A 
HETATM   19  C   UNL     1      43.273 -17.177   2.285  1.00  0.00     0.010 A 
BRANCH  17  20
HETATM   20  O   UNL     1      44.281 -19.866   4.515  1.00  0.00    -0.361 OA
HETATM   21  H   UNL     1      45.025 -19.794   5.135  1.00  0.00     0.217 HD
ENDBRANCH  17  20
ENDBRANCH  13  14
ENDBRANCH  11  13
ENDBRANCH   7  11
ENDBRANCH   2   5
BRANCH   1  22
HETATM   22  C   UNL     1      42.803 -10.019   9.162  1.00  0.00     0.121 A 
HETATM   23  N   UNL     1      43.687 -10.777   9.876  1.00  0.00    -0.272 N 
HETATM   24  N   UNL     1      43.731 -10.487  11.183  1.00  0.00    -0.174 NA
HETATM   25  H   UNL     1      44.288 -11.513   9.516  1.00  0.00     0.189 HD
HETATM   26  C   UNL     1      42.864  -9.473  11.339  1.00  0.00     0.089 A 
HETATM   27  C   UNL     1      42.243  -9.166  10.093  1.00  0.00     0.071 A 
BRANCH  26  28
HETATM   28  C   UNL     1      42.658  -8.828  12.639  1.00  0.00    -0.006 A 
HETATM   29  C   UNL     1      41.703  -9.308  13.546  1.00  0.00     0.014 A 
HETATM   30  C   UNL     1      41.498  -8.671  14.776  1.00  0.00     0.007 A 
HETATM   31  C   UNL     1      42.241  -7.538  15.121  1.00  0.00    -0.062 A 
HETATM   32  C   UNL     1      42.038  -6.855  16.441  1.00  0.00     0.048 C 
HETATM   33  C   UNL     1      43.205  -7.063  14.227  1.00  0.00     0.007 A 
HETATM   34  C   UNL     1      43.407  -7.698  12.998  1.00  0.00     0.014 A 
ENDBRANCH  26  28
ENDBRANCH   1  22
TORSDOF 7
ENDMDL
MODEL 7
REMARK VINA RESULT:      -8.7      3.324     10.673
REMARK  7 active torsions:
REMARK  status: ('A' for Active; 'I' for Inactive)
REMARK    1  A    between atoms: C_5  and  C_6 
REMARK    2  A    between atoms: C_10  and  C_11 
REMARK       I    between atoms: C_11  and  N_12 
REMARK    3  A    between atoms: N_12  and  N_13 
REMARK       I    between atoms: N_13  and  C_14 
REMARK       I    between atoms: C_14  and  N_15 
REMARK    4  A    between atoms: N_15  and  C_16 
REMARK    5  A    between atoms: C_16  and  C_17 
REMARK    6  A    between atoms: C_17  and  C_18 
REMARK    7  A    between atoms: C_21  and  O_22 
ROOT
HETATM    1  C   UNL     1      39.889 -11.779   6.358  1.00  0.00     0.288 C 
HETATM    2  N   UNL     1      40.962 -11.031   6.791  1.00  0.00    -0.261 N 
HETATM    3  O   UNL     1      38.731 -11.509   6.674  1.00  0.00    -0.264 OA
HETATM    4  H   UNL     1      41.931 -11.312   6.657  1.00  0.00     0.190 HD
ENDROOT
BRANCH   2   5
HETATM    5  N   UNL     1      40.742 -10.000   7.714  1.00  0.00    -0.249 N 
HETATM    6  C   UNL     1      41.576  -8.906   7.654  1.00  0.00     0.335 C 
HETATM    7  N   UNL     1      41.188  -7.917   8.523  1.00  0.00    -0.337 N 
HETATM    8  O   UNL     1      42.556  -8.854   6.919  1.00  0.00    -0.246 OA
HETATM    9  H   UNL     1      40.675  -8.265   9.324  1.00  0.00     0.164 HD
HETATM   10  H   UNL     1      39.792  -9.905   8.057  1.00  0.00     0.192 HD
BRANCH   7  11
HETATM   11  C   UNL     1      42.040  -6.752   8.766  1.00  0.00     0.086 C 
HETATM   12  C   UNL     1      41.246  -5.451   8.610  1.00  0.00     0.032 C 
BRANCH  11  13
HETATM   13  C   UNL     1      42.671  -6.798  10.178  1.00  0.00     0.063 C 
BRANCH  13  14
HETATM   14  C   UNL     1      43.021  -8.179  10.696  1.00  0.00    -0.056 A 
HETATM   15  C   UNL     1      44.129  -8.894  10.218  1.00  0.00     0.010 A 
HETATM   16  C   UNL     1      44.415 -10.174  10.703  1.00  0.00     0.037 A 
HETATM   17  C   UNL     1      43.605 -10.732  11.686  1.00  0.00     0.065 A 
HETATM   18  C   UNL     1      42.521 -10.030  12.194  1.00  0.00     0.037 A 
HETATM   19  C   UNL     1      42.232  -8.755  11.705  1.00  0.00     0.010 A 
BRANCH  17  20
HETATM   20  O   UNL     1      43.843 -11.978  12.182  1.00  0.00    -0.361 OA
HETATM   21  H   UNL     1      44.695 -12.293  11.837  1.00  0.00     0.217 HD
ENDBRANCH  17  20
ENDBRANCH  13  14
ENDBRANCH  11  13
ENDBRANCH   7  11
ENDBRANCH   2   5
BRANCH   1  22
HETATM   22  C   UNL     1      40.215 -12.892   5.511  1.00  0.00     0.121 A 
HETATM   23  N   UNL     1      39.581 -13.097   4.318  1.00  0.00    -0.272 N 
HETATM   24  N   UNL     1      40.008 -14.173   3.646  1.00  0.00    -0.174 NA
HETATM   25  H   UNL     1      38.844 -12.526   3.915  1.00  0.00     0.189 HD
HETATM   26  C   UNL     1      40.988 -14.687   4.408  1.00  0.00     0.089 A 
HETATM   27  C   UNL     1      41.131 -13.922   5.602  1.00  0.00     0.071 A 
BRANCH  26  28
HETATM   28  C   UNL     1      41.754 -15.865   3.987  1.00  0.00    -0.006 A 
HETATM   29  C   UNL     1      42.704 -16.453   4.832  1.00  0.00     0.014 A 
HETATM   30  C   UNL     1      43.447 -17.564   4.413  1.00  0.00     0.007 A 
HETATM   31  C   UNL     1      43.258 -18.104   3.137  1.00  0.00    -0.062 A 
HETATM   32  C   UNL     1      44.040 -19.300   2.681  1.00  0.00     0.048 C 
HETATM   33  C   UNL     1      42.301 -17.530   2.294  1.00  0.00     0.007 A 
HETATM   34  C   UNL     1      41.562 -16.419   2.713  1.00  0.00     0.014 A 
ENDBRANCH  26  28
ENDBRANCH   1  22
TORSDOF 7
ENDMDL
MODEL 8
REMARK VINA RESULT:      -8.7      1.949      2.440
REMARK  7 active torsions:
REMARK  status: ('A' for Active; 'I' for Inactive)
REMARK    1  A    between atoms: C_5  and  C_6 
REMARK    2  A    between atoms: C_10  and  C_11 
REMARK       I    between atoms: C_11  and  N_12 
REMARK    3  A    between atoms: N_12  and  N_13 
REMARK       I    between atoms: N_13  and  C_14 
REMARK       I    between atoms: C_14  and  N_15 
REMARK    4  A    between atoms: N_15  and  C_16 
REMARK    5  A    between atoms: C_16  and  C_17 
REMARK    6  A    between atoms: C_17  and  C_18 
REMARK    7  A    between atoms: C_21  and  O_22 
ROOT
HETATM    1  C   UNL     1      42.404 -10.257   5.626  1.00  0.00     0.288 C 
HETATM    2  N   UNL     1      42.784 -11.561   5.855  1.00  0.00    -0.261 N 
HETATM    3  O   UNL     1      42.159  -9.833   4.498  1.00  0.00    -0.264 OA
HETATM    4  H   UNL     1      43.122 -11.896   6.754  1.00  0.00     0.190 HD
ENDROOT
BRANCH   2   5
HETATM    5  N   UNL     1      43.013 -12.403   4.759  1.00  0.00    -0.249 N 
HETATM    6  C   UNL     1      42.328 -13.597   4.721  1.00  0.00     0.335 C 
HETATM    7  N   UNL     1      42.543 -14.276   3.548  1.00  0.00    -0.337 N 
HETATM    8  O   UNL     1      41.633 -13.996   5.649  1.00  0.00    -0.246 OA
HETATM    9  H   UNL     1      43.429 -14.053   3.112  1.00  0.00     0.164 HD
HETATM   10  H   UNL     1      43.298 -11.946   3.899  1.00  0.00     0.192 HD
BRANCH   7  11
HETATM   11  C   UNL     1      42.073 -15.651   3.377  1.00  0.00     0.086 C 
HETATM   12  C   UNL     1      40.626 -15.677   2.874  1.00  0.00     0.032 C 
BRANCH  11  13
HETATM   13  C   UNL     1      42.970 -16.436   2.391  1.00  0.00     0.063 C 
BRANCH  13  14
HETATM   14  C   UNL     1      43.292 -17.863   2.789  1.00  0.00    -0.056 A 
HETATM   15  C   UNL     1      43.883 -18.177   4.022  1.00  0.00     0.010 A 
HETATM   16  C   UNL     1      44.185 -19.502   4.351  1.00  0.00     0.037 A 
HETATM   17  C   UNL     1      43.874 -20.519   3.456  1.00  0.00     0.065 A 
HETATM   18  C   UNL     1      43.262 -20.234   2.243  1.00  0.00     0.037 A 
HETATM   19  C   UNL     1      42.968 -18.911   1.911  1.00  0.00     0.010 A 
BRANCH  17  20
HETATM   20  O   UNL     1      44.157 -21.823   3.734  1.00  0.00    -0.361 OA
HETATM   21  H   UNL     1      44.884 -22.113   3.159  1.00  0.00     0.217 HD
ENDBRANCH  17  20
ENDBRANCH  13  14
ENDBRANCH  11  13
ENDBRANCH   7  11
ENDBRANCH   2   5
BRANCH   1  22
HETATM   22  C   UNL     1      42.311  -9.427   6.795  1.00  0.00     0.121 A 
HETATM   23  N   UNL     1      41.629  -8.244   6.784  1.00  0.00    -0.272 N 
HETATM   24  N   UNL     1      41.630  -7.596   7.956  1.00  0.00    -0.174 NA
HETATM   25  H   UNL     1      41.143  -7.829   5.994  1.00  0.00     0.189 HD
HETATM   26  C   UNL     1      42.313  -8.398   8.790  1.00  0.00     0.089 A 
HETATM   27  C   UNL     1      42.778  -9.549   8.089  1.00  0.00     0.071 A 
BRANCH  26  28
HETATM   28  C   UNL     1      42.496  -8.061  10.205  1.00  0.00    -0.006 A 
HETATM   29  C   UNL     1      41.877  -6.939  10.772  1.00  0.00     0.014 A 
HETATM   30  C   UNL     1      42.076  -6.614  12.119  1.00  0.00     0.007 A 
HETATM   31  C   UNL     1      42.904  -7.402  12.925  1.00  0.00    -0.062 A 
HETATM   32  C   UNL     1      43.116  -7.069  14.372  1.00  0.00     0.048 C 
HETATM   33  C   UNL     1      43.514  -8.530  12.369  1.00  0.00     0.007 A 
HETATM   34  C   UNL     1      43.316  -8.853  11.023  1.00  0.00     0.014 A 
ENDBRANCH  26  28
ENDBRANCH   1  22
TORSDOF 7
ENDMDL
MODEL 9
REMARK VINA RESULT:      -8.6      2.946     11.548
REMARK  7 active torsions:
REMARK  status: ('A' for Active; 'I' for Inactive)
REMARK    1  A    between atoms: C_5  and  C_6 
REMARK    2  A    between atoms: C_10  and  C_11 
REMARK       I    between atoms: C_11  and  N_12 
REMARK    3  A    between atoms: N_12  and  N_13 
REMARK       I    between atoms: N_13  and  C_14 
REMARK       I    between atoms: C_14  and  N_15 
REMARK    4  A    between atoms: N_15  and  C_16 
REMARK    5  A    between atoms: C_16  and  C_17 
REMARK    6  A    between atoms: C_17  and  C_18 
REMARK    7  A    between atoms: C_21  and  O_22 
ROOT
HETATM    1  C   UNL     1      40.166 -11.781   6.576  1.00  0.00     0.288 C 
HETATM    2  N   UNL     1      41.266 -11.051   6.969  1.00  0.00    -0.261 N 
HETATM    3  O   UNL     1      39.031 -11.522   6.972  1.00  0.00    -0.264 OA
HETATM    4  H   UNL     1      42.224 -11.328   6.765  1.00  0.00     0.190 HD
ENDROOT
BRANCH   2   5
HETATM    5  N   UNL     1      41.107 -10.056   7.942  1.00  0.00    -0.249 N 
HETATM    6  C   UNL     1      42.234  -9.373   8.342  1.00  0.00     0.335 C 
HETATM    7  N   UNL     1      41.935  -8.348   9.204  1.00  0.00    -0.337 N 
HETATM    8  O   UNL     1      43.363  -9.679   7.975  1.00  0.00    -0.246 OA
HETATM    9  H   UNL     1      41.081  -8.501   9.727  1.00  0.00     0.164 HD
HETATM   10  H   UNL     1      40.196  -9.611   7.979  1.00  0.00     0.192 HD
BRANCH   7  11
HETATM   11  C   UNL     1      42.994  -7.620   9.904  1.00  0.00     0.086 C 
HETATM   12  C   UNL     1      42.453  -6.327  10.522  1.00  0.00     0.032 C 
BRANCH  11  13
HETATM   13  C   UNL     1      43.636  -8.486  11.014  1.00  0.00     0.063 C 
BRANCH  13  14
HETATM   14  C   UNL     1      42.962  -8.423  12.370  1.00  0.00    -0.056 A 
HETATM   15  C   UNL     1      43.383  -7.532  13.369  1.00  0.00     0.010 A 
HETATM   16  C   UNL     1      42.753  -7.511  14.617  1.00  0.00     0.037 A 
HETATM   17  C   UNL     1      41.685  -8.367  14.861  1.00  0.00     0.065 A 
HETATM   18  C   UNL     1      41.233  -9.236  13.877  1.00  0.00     0.037 A 
HETATM   19  C   UNL     1      41.867  -9.261  12.634  1.00  0.00     0.010 A 
BRANCH  17  20
HETATM   20  O   UNL     1      41.046  -8.384  16.064  1.00  0.00    -0.361 OA
HETATM   21  H   UNL     1      41.116  -7.502  16.466  1.00  0.00     0.217 HD
ENDBRANCH  17  20
ENDBRANCH  13  14
ENDBRANCH  11  13
ENDBRANCH   7  11
ENDBRANCH   2   5
BRANCH   1  22
HETATM   22  C   UNL     1      40.435 -12.862   5.669  1.00  0.00     0.121 A 
HETATM   23  N   UNL     1      39.766 -12.989   4.484  1.00  0.00    -0.272 N 
HETATM   24  N   UNL     1      40.142 -14.045   3.751  1.00  0.00    -0.174 NA
HETATM   25  H   UNL     1      39.038 -12.378   4.128  1.00  0.00     0.189 HD
HETATM   26  C   UNL     1      41.123 -14.625   4.462  1.00  0.00     0.089 A 
HETATM   27  C   UNL     1      41.320 -13.922   5.686  1.00  0.00     0.071 A 
BRANCH  26  28
HETATM   28  C   UNL     1      41.841 -15.804   3.966  1.00  0.00    -0.006 A 
HETATM   29  C   UNL     1      41.541 -16.365   2.718  1.00  0.00     0.014 A 
HETATM   30  C   UNL     1      42.218 -17.505   2.263  1.00  0.00     0.007 A 
HETATM   31  C   UNL     1      43.203 -18.107   3.051  1.00  0.00    -0.062 A 
HETATM   32  C   UNL     1      43.941 -19.321   2.570  1.00  0.00     0.048 C 
HETATM   33  C   UNL     1      43.516 -17.543   4.292  1.00  0.00     0.007 A 
HETATM   34  C   UNL     1      42.838 -16.407   4.746  1.00  0.00     0.014 A 
ENDBRANCH  26  28
ENDBRANCH   1  22
TORSDOF 7
ENDMDL
MODEL 10
REMARK VINA RESULT:      -8.4      7.755     11.573
REMARK  7 active torsions:
REMARK  status: ('A' for Active; 'I' for Inactive)
REMARK    1  A    between atoms: C_5  and  C_6 
REMARK    2  A    between atoms: C_10  and  C_11 
REMARK       I    between atoms: C_11  and  N_12 
REMARK    3  A    between atoms: N_12  and  N_13 
REMARK       I    between atoms: N_13  and  C_14 
REMARK       I    between atoms: C_14  and  N_15 
REMARK    4  A    between atoms: N_15  and  C_16 
REMARK    5  A    between atoms: C_16  and  C_17 
REMARK    6  A    between atoms: C_17  and  C_18 
REMARK    7  A    between atoms: C_21  and  O_22 
ROOT
HETATM    1  C   UNL     1      39.792 -12.689  -1.320  1.00  0.00     0.288 C 
HETATM    2  N   UNL     1      40.983 -13.025  -0.716  1.00  0.00    -0.261 N 
HETATM    3  O   UNL     1      38.759 -13.331  -1.137  1.00  0.00    -0.264 OA
HETATM    4  H   UNL     1      41.874 -12.596  -0.957  1.00  0.00     0.190 HD
ENDROOT
BRANCH   2   5
HETATM    5  N   UNL     1      41.053 -14.204   0.037  1.00  0.00    -0.249 N 
HETATM    6  C   UNL     1      41.385 -14.088   1.368  1.00  0.00     0.335 C 
HETATM    7  N   UNL     1      41.303 -15.291   2.024  1.00  0.00    -0.337 N 
HETATM    8  O   UNL     1      41.733 -13.029   1.878  1.00  0.00    -0.246 OA
HETATM    9  H   UNL     1      41.438 -16.090   1.417  1.00  0.00     0.164 HD
HETATM   10  H   UNL     1      40.471 -14.971  -0.284  1.00  0.00     0.192 HD
BRANCH   7  11
HETATM   11  C   UNL     1      41.800 -15.437   3.393  1.00  0.00     0.086 C 
HETATM   12  C   UNL     1      40.936 -16.422   4.188  1.00  0.00     0.032 C 
BRANCH  11  13
HETATM   13  C   UNL     1      43.271 -15.918   3.412  1.00  0.00     0.063 C 
BRANCH  13  14
HETATM   14  C   UNL     1      43.472 -17.420   3.380  1.00  0.00    -0.056 A 
HETATM   15  C   UNL     1      43.123 -18.194   2.262  1.00  0.00     0.010 A 
HETATM   16  C   UNL     1      43.304 -19.580   2.271  1.00  0.00     0.037 A 
HETATM   17  C   UNL     1      43.855 -20.193   3.390  1.00  0.00     0.065 A 
HETATM   18  C   UNL     1      44.234 -19.443   4.495  1.00  0.00     0.037 A 
HETATM   19  C   UNL     1      44.048 -18.060   4.489  1.00  0.00     0.010 A 
BRANCH  17  20
HETATM   20  O   UNL     1      44.042 -21.542   3.444  1.00  0.00    -0.361 OA
HETATM   21  H   UNL     1      43.326 -21.935   3.969  1.00  0.00     0.217 HD
ENDBRANCH  17  20
ENDBRANCH  13  14
ENDBRANCH  11  13
ENDBRANCH   7  11
ENDBRANCH   2   5
BRANCH   1  22
HETATM   22  C   UNL     1      39.837 -11.534  -2.174  1.00  0.00     0.121 A 
HETATM   23  N   UNL     1      38.700 -10.894  -2.578  1.00  0.00    -0.272 N 
HETATM   24  N   UNL     1      38.916  -9.831  -3.363  1.00  0.00    -0.174 NA
HETATM   25  H   UNL     1      37.744 -11.145  -2.344  1.00  0.00     0.189 HD
HETATM   26  C   UNL     1      40.253  -9.742  -3.459  1.00  0.00     0.089 A 
HETATM   27  C   UNL     1      40.867 -10.811  -2.743  1.00  0.00     0.071 A 
BRANCH  26  28
HETATM   28  C   UNL     1      40.902  -8.659  -4.207  1.00  0.00    -0.006 A 
HETATM   29  C   UNL     1      40.413  -8.242  -5.452  1.00  0.00     0.014 A 
HETATM   30  C   UNL     1      41.053  -7.222  -6.168  1.00  0.00     0.007 A 
HETATM   31  C   UNL     1      42.198  -6.605  -5.655  1.00  0.00    -0.062 A 
HETATM   32  C   UNL     1      42.885  -5.505  -6.408  1.00  0.00     0.048 C 
HETATM   33  C   UNL     1      42.682  -7.008  -4.407  1.00  0.00     0.007 A 
HETATM   34  C   UNL     1      42.044  -8.028  -3.694  1.00  0.00     0.014 A 
ENDBRANCH  26  28
ENDBRANCH   1  22
TORSDOF 7
ENDMDL
