MODEL 1
REMARK VINA RESULT:      -9.3      0.000      0.000
REMARK  4 active torsions:
REMARK  status: ('A' for Active; 'I' for Inactive)
REMARK    1  A    between atoms: C_8  and  C_9 
REMARK       I    between atoms: C_9  and  N_10 
REMARK    2  A    between atoms: N_10  and  N_11 
REMARK       I    between atoms: N_11  and  C_12 
REMARK    3  A    between atoms: C_12  and  C_13 
REMARK    4  A    between atoms: C_13  and  C_14 
ROOT
HETATM    1  N   UNL     1      41.432 -14.046   2.255  1.00  0.00    -0.267 N 
HETATM    2  C   UNL     1      40.127 -14.069   1.797  1.00  0.00     0.236 C 
HETATM    3  O   UNL     1      39.406 -15.055   1.914  1.00  0.00    -0.272 OA
HETATM    4  H   UNL     1      41.959 -13.181   2.365  1.00  0.00     0.190 HD
ENDROOT
BRANCH   1   5
HETATM    5  N   UNL     1      41.883 -15.145   2.991  1.00  0.00    -0.262 N 
HETATM    6  C   UNL     1      43.035 -15.805   2.610  1.00  0.00     0.291 C 
HETATM    7  O   UNL     1      43.625 -15.556   1.559  1.00  0.00    -0.264 OA
HETATM    8  H   UNL     1      41.517 -15.281   3.937  1.00  0.00     0.190 HD
BRANCH   6   9
HETATM    9  C   UNL     1      43.474 -16.815   3.584  1.00  0.00     0.158 A 
HETATM   10  C   UNL     1      43.574 -18.223   3.387  1.00  0.00     0.028 A 
HETATM   11  C   UNL     1      43.334 -19.122   2.329  1.00  0.00     0.016 A 
HETATM   12  C   UNL     1      44.024 -18.728   4.602  1.00  0.00     0.063 A 
HETATM   13  C   UNL     1      43.554 -20.489   2.534  1.00  0.00     0.001 A 
HETATM   14  C   UNL     1      44.004 -20.962   3.766  1.00  0.00     0.002 A 
HETATM   15  C   UNL     1      44.251 -20.089   4.830  1.00  0.00     0.032 A 
HETATM   16  N   UNL     1      44.165 -17.637   5.414  1.00  0.00    -0.277 N 
HETATM   17  H   UNL     1      44.478 -17.626   6.379  1.00  0.00     0.189 HD
HETATM   18  N   UNL     1      43.842 -16.468   4.837  1.00  0.00    -0.168 NA
ENDBRANCH   6   9
ENDBRANCH   1   5
BRANCH   2  19
HETATM   19  C   UNL     1      39.724 -12.763   1.128  1.00  0.00     0.114 C 
BRANCH  19  20
HETATM   20  C   UNL     1      39.645 -12.752  -0.415  1.00  0.00    -0.031 C 
HETATM   21  C   UNL     1      38.261 -12.270  -0.919  1.00  0.00     0.014 C 
HETATM   22  C   UNL     1      38.232 -12.211  -2.457  1.00  0.00    -0.013 C 
HETATM   23  C   UNL     1      38.531 -13.610  -3.023  1.00  0.00     0.009 C 
HETATM   24  C   UNL     1      39.301 -11.225  -2.949  1.00  0.00     0.009 C 
HETATM   25  C   UNL     1      39.922 -14.080  -2.566  1.00  0.00    -0.013 C 
HETATM   26  C   UNL     1      39.957 -14.141  -1.028  1.00  0.00     0.014 C 
HETATM   27  C   UNL     1      40.982 -13.081  -3.058  1.00  0.00     0.009 C 
HETATM   28  C   UNL     1      40.691 -11.686  -2.485  1.00  0.00    -0.013 C 
HETATM   29  C   UNL     1      40.715 -11.754  -0.949  1.00  0.00     0.014 C 
ENDBRANCH  19  20
ENDBRANCH   2  19
TORSDOF 4
ENDMDL
MODEL 2
REMARK VINA RESULT:      -8.8      1.533      2.436
REMARK  4 active torsions:
REMARK  status: ('A' for Active; 'I' for Inactive)
REMARK    1  A    between atoms: C_8  and  C_9 
REMARK       I    between atoms: C_9  and  N_10 
REMARK    2  A    between atoms: N_10  and  N_11 
REMARK       I    between atoms: N_11  and  C_12 
REMARK    3  A    between atoms: C_12  and  C_13 
REMARK    4  A    between atoms: C_13  and  C_14 
ROOT
HETATM    1  N   UNL     1      38.924 -13.680   2.668  1.00  0.00    -0.267 N 
HETATM    2  C   UNL     1      39.500 -12.546   2.125  1.00  0.00     0.236 C 
HETATM    3  O   UNL     1      40.604 -12.138   2.472  1.00  0.00    -0.272 OA
HETATM    4  H   UNL     1      38.127 -14.149   2.242  1.00  0.00     0.190 HD
ENDROOT
BRANCH   1   5
HETATM    5  N   UNL     1      39.698 -14.448   3.544  1.00  0.00    -0.262 N 
HETATM    6  C   UNL     1      40.375 -15.557   3.075  1.00  0.00     0.291 C 
HETATM    7  O   UNL     1      40.222 -15.994   1.934  1.00  0.00    -0.264 OA
HETATM    8  H   UNL     1      39.969 -14.037   4.441  1.00  0.00     0.190 HD
BRANCH   6   9
HETATM    9  C   UNL     1      41.283 -16.145   4.070  1.00  0.00     0.158 A 
HETATM   10  C   UNL     1      42.361 -17.048   3.834  1.00  0.00     0.028 A 
HETATM   11  C   UNL     1      42.937 -17.671   2.710  1.00  0.00     0.016 A 
HETATM   12  C   UNL     1      42.896 -17.310   5.090  1.00  0.00     0.063 A 
HETATM   13  C   UNL     1      44.026 -18.532   2.893  1.00  0.00     0.001 A 
HETATM   14  C   UNL     1      44.538 -18.774   4.168  1.00  0.00     0.002 A 
HETATM   15  C   UNL     1      43.982 -18.165   5.298  1.00  0.00     0.032 A 
HETATM   16  N   UNL     1      42.142 -16.574   5.962  1.00  0.00    -0.277 N 
HETATM   17  H   UNL     1      42.249 -16.518   6.970  1.00  0.00     0.189 HD
HETATM   18  N   UNL     1      41.161 -15.862   5.385  1.00  0.00    -0.168 NA
ENDBRANCH   6   9
ENDBRANCH   1   5
BRANCH   2  19
HETATM   19  C   UNL     1      38.604 -11.879   1.093  1.00  0.00     0.114 C 
BRANCH  19  20
HETATM   20  C   UNL     1      38.988 -12.047  -0.394  1.00  0.00    -0.031 C 
HETATM   21  C   UNL     1      39.634 -13.428  -0.671  1.00  0.00     0.014 C 
HETATM   22  C   UNL     1      39.951 -13.591  -2.169  1.00  0.00    -0.013 C 
HETATM   23  C   UNL     1      40.911 -12.472  -2.608  1.00  0.00     0.009 C 
HETATM   24  C   UNL     1      38.650 -13.490  -2.978  1.00  0.00     0.009 C 
HETATM   25  C   UNL     1      40.261 -11.097  -2.380  1.00  0.00    -0.013 C 
HETATM   26  C   UNL     1      39.943 -10.928  -0.883  1.00  0.00     0.014 C 
HETATM   27  C   UNL     1      38.957 -11.011  -3.188  1.00  0.00     0.009 C 
HETATM   28  C   UNL     1      37.992 -12.121  -2.744  1.00  0.00    -0.013 C 
HETATM   29  C   UNL     1      37.687 -11.956  -1.246  1.00  0.00     0.014 C 
ENDBRANCH  19  20
ENDBRANCH   2  19
TORSDOF 4
ENDMDL
MODEL 3
REMARK VINA RESULT:      -8.7      6.931      8.871
REMARK  4 active torsions:
REMARK  status: ('A' for Active; 'I' for Inactive)
REMARK    1  A    between atoms: C_8  and  C_9 
REMARK       I    between atoms: C_9  and  N_10 
REMARK    2  A    between atoms: N_10  and  N_11 
REMARK       I    between atoms: N_11  and  C_12 
REMARK    3  A    between atoms: C_12  and  C_13 
REMARK    4  A    between atoms: C_13  and  C_14 
ROOT
HETATM    1  N   UNL     1      43.891 -12.246   6.474  1.00  0.00    -0.267 N 
HETATM    2  C   UNL     1      42.789 -12.275   5.640  1.00  0.00     0.236 C 
HETATM    3  O   UNL     1      41.650 -12.069   6.049  1.00  0.00    -0.272 OA
HETATM    4  H   UNL     1      44.845 -12.193   6.121  1.00  0.00     0.190 HD
ENDROOT
BRANCH   1   5
HETATM    5  N   UNL     1      43.697 -11.836   7.796  1.00  0.00    -0.262 N 
HETATM    6  C   UNL     1      44.505 -10.857   8.341  1.00  0.00     0.291 C 
HETATM    7  O   UNL     1      45.493 -10.412   7.757  1.00  0.00    -0.264 OA
HETATM    8  H   UNL     1      42.809 -12.064   8.251  1.00  0.00     0.190 HD
BRANCH   6   9
HETATM    9  C   UNL     1      44.060 -10.411   9.669  1.00  0.00     0.158 A 
HETATM   10  C   UNL     1      43.607  -9.111  10.041  1.00  0.00     0.028 A 
HETATM   11  C   UNL     1      43.415  -7.877   9.390  1.00  0.00     0.016 A 
HETATM   12  C   UNL     1      43.315  -9.204  11.397  1.00  0.00     0.063 A 
HETATM   13  C   UNL     1      42.940  -6.785  10.128  1.00  0.00     0.001 A 
HETATM   14  C   UNL     1      42.659  -6.912  11.488  1.00  0.00     0.002 A 
HETATM   15  C   UNL     1      42.840  -8.128  12.154  1.00  0.00     0.032 A 
HETATM   16  N   UNL     1      43.594 -10.498  11.738  1.00  0.00    -0.277 N 
HETATM   17  H   UNL     1      43.496 -10.927  12.652  1.00  0.00     0.189 HD
HETATM   18  N   UNL     1      44.046 -11.255  10.724  1.00  0.00    -0.168 NA
ENDBRANCH   6   9
ENDBRANCH   1   5
BRANCH   2  19
HETATM   19  C   UNL     1      43.157 -12.608   4.202  1.00  0.00     0.114 C 
BRANCH  19  20
HETATM   20  C   UNL     1      42.628 -13.941   3.626  1.00  0.00    -0.031 C 
HETATM   21  C   UNL     1      41.111 -13.876   3.317  1.00  0.00     0.014 C 
HETATM   22  C   UNL     1      40.626 -15.195   2.689  1.00  0.00    -0.013 C 
HETATM   23  C   UNL     1      40.907 -16.353   3.662  1.00  0.00     0.009 C 
HETATM   24  C   UNL     1      41.382 -15.441   1.375  1.00  0.00     0.009 C 
HETATM   25  C   UNL     1      42.417 -16.455   3.941  1.00  0.00    -0.013 C 
HETATM   26  C   UNL     1      42.907 -15.139   4.570  1.00  0.00     0.014 C 
HETATM   27  C   UNL     1      43.161 -16.694   2.617  1.00  0.00     0.009 C 
HETATM   28  C   UNL     1      42.890 -15.534   1.648  1.00  0.00    -0.013 C 
HETATM   29  C   UNL     1      43.371 -14.219   2.286  1.00  0.00     0.014 C 
ENDBRANCH  19  20
ENDBRANCH   2  19
TORSDOF 4
ENDMDL
MODEL 4
REMARK VINA RESULT:      -8.6      7.314      9.341
REMARK  4 active torsions:
REMARK  status: ('A' for Active; 'I' for Inactive)
REMARK    1  A    between atoms: C_8  and  C_9 
REMARK       I    between atoms: C_9  and  N_10 
REMARK    2  A    between atoms: N_10  and  N_11 
REMARK       I    between atoms: N_11  and  C_12 
REMARK    3  A    between atoms: C_12  and  C_13 
REMARK    4  A    between atoms: C_13  and  C_14 
ROOT
HETATM    1  N   UNL     1      42.951 -11.927   7.330  1.00  0.00    -0.267 N 
HETATM    2  C   UNL     1      43.979 -11.099   7.740  1.00  0.00     0.236 C 
HETATM    3  O   UNL     1      45.105 -11.521   7.987  1.00  0.00    -0.272 OA
HETATM    4  H   UNL     1      42.092 -11.571   6.914  1.00  0.00     0.190 HD
ENDROOT
BRANCH   1   5
HETATM    5  N   UNL     1      43.257 -13.265   7.067  1.00  0.00    -0.262 N 
HETATM    6  C   UNL     1      42.735 -13.886   5.948  1.00  0.00     0.291 C 
HETATM    7  O   UNL     1      41.890 -13.354   5.229  1.00  0.00    -0.264 OA
HETATM    8  H   UNL     1      44.060 -13.683   7.543  1.00  0.00     0.190 HD
BRANCH   6   9
HETATM    9  C   UNL     1      43.294 -15.225   5.714  1.00  0.00     0.158 A 
HETATM   10  C   UNL     1      43.224 -15.998   4.518  1.00  0.00     0.028 A 
HETATM   11  C   UNL     1      42.672 -15.833   3.233  1.00  0.00     0.016 A 
HETATM   12  C   UNL     1      43.892 -17.181   4.812  1.00  0.00     0.063 A 
HETATM   13  C   UNL     1      42.813 -16.864   2.295  1.00  0.00     0.001 A 
HETATM   14  C   UNL     1      43.488 -18.039   2.623  1.00  0.00     0.002 A 
HETATM   15  C   UNL     1      44.045 -18.223   3.892  1.00  0.00     0.032 A 
HETATM   16  N   UNL     1      44.308 -17.047   6.107  1.00  0.00    -0.277 N 
HETATM   17  H   UNL     1      44.833 -17.720   6.656  1.00  0.00     0.189 HD
HETATM   18  N   UNL     1      43.966 -15.884   6.684  1.00  0.00    -0.168 NA
ENDBRANCH   6   9
ENDBRANCH   1   5
BRANCH   2  19
HETATM   19  C   UNL     1      43.541  -9.647   7.863  1.00  0.00     0.114 C 
BRANCH  19  20
HETATM   20  C   UNL     1      42.992  -9.187   9.233  1.00  0.00    -0.031 C 
HETATM   21  C   UNL     1      41.443  -9.172   9.259  1.00  0.00     0.014 C 
HETATM   22  C   UNL     1      40.926  -8.768  10.651  1.00  0.00    -0.013 C 
HETATM   23  C   UNL     1      41.463  -7.371  11.006  1.00  0.00     0.009 C 
HETATM   24  C   UNL     1      41.421  -9.782  11.692  1.00  0.00     0.009 C 
HETATM   25  C   UNL     1      43.002  -7.386  11.028  1.00  0.00    -0.013 C 
HETATM   26  C   UNL     1      43.525  -7.788   9.637  1.00  0.00     0.014 C 
HETATM   27  C   UNL     1      43.484  -8.411  12.067  1.00  0.00     0.009 C 
HETATM   28  C   UNL     1      42.957  -9.808  11.709  1.00  0.00    -0.013 C 
HETATM   29  C   UNL     1      43.472 -10.200  10.314  1.00  0.00     0.014 C 
ENDBRANCH  19  20
ENDBRANCH   2  19
TORSDOF 4
ENDMDL
MODEL 5
REMARK VINA RESULT:      -8.4      6.812      8.658
REMARK  4 active torsions:
REMARK  status: ('A' for Active; 'I' for Inactive)
REMARK    1  A    between atoms: C_8  and  C_9 
REMARK       I    between atoms: C_9  and  N_10 
REMARK    2  A    between atoms: N_10  and  N_11 
REMARK       I    between atoms: N_11  and  C_12 
REMARK    3  A    between atoms: C_12  and  C_13 
REMARK    4  A    between atoms: C_13  and  C_14 
ROOT
HETATM    1  N   UNL     1      43.717 -11.810   5.634  1.00  0.00    -0.267 N 
HETATM    2  C   UNL     1      43.127 -11.585   4.405  1.00  0.00     0.236 C 
HETATM    3  O   UNL     1      42.311 -10.686   4.221  1.00  0.00    -0.272 OA
HETATM    4  H   UNL     1      44.545 -12.394   5.747  1.00  0.00     0.190 HD
ENDROOT
BRANCH   1   5
HETATM    5  N   UNL     1      43.463 -10.892   6.657  1.00  0.00    -0.262 N 
HETATM    6  C   UNL     1      44.395 -10.700   7.659  1.00  0.00     0.291 C 
HETATM    7  O   UNL     1      45.397 -11.405   7.777  1.00  0.00    -0.264 OA
HETATM    8  H   UNL     1      42.732 -10.191   6.511  1.00  0.00     0.190 HD
BRANCH   6   9
HETATM    9  C   UNL     1      44.065  -9.578   8.550  1.00  0.00     0.158 A 
HETATM   10  C   UNL     1      43.703  -9.642   9.927  1.00  0.00     0.028 A 
HETATM   11  C   UNL     1      43.533 -10.658  10.888  1.00  0.00     0.016 A 
HETATM   12  C   UNL     1      43.485  -8.322  10.306  1.00  0.00     0.063 A 
HETATM   13  C   UNL     1      43.150 -10.307  12.188  1.00  0.00     0.001 A 
HETATM   14  C   UNL     1      42.938  -8.973  12.534  1.00  0.00     0.002 A 
HETATM   15  C   UNL     1      43.102  -7.948  11.598  1.00  0.00     0.032 A 
HETATM   16  N   UNL     1      43.726  -7.581   9.182  1.00  0.00    -0.277 N 
HETATM   17  H   UNL     1      43.666  -6.573   9.087  1.00  0.00     0.189 HD
HETATM   18  N   UNL     1      44.076  -8.302   8.105  1.00  0.00    -0.168 NA
ENDBRANCH   6   9
ENDBRANCH   1   5
BRANCH   2  19
HETATM   19  C   UNL     1      43.588 -12.578   3.349  1.00  0.00     0.114 C 
BRANCH  19  20
HETATM   20  C   UNL     1      42.821 -13.916   3.252  1.00  0.00    -0.031 C 
HETATM   21  C   UNL     1      41.287 -13.701   3.201  1.00  0.00     0.014 C 
HETATM   22  C   UNL     1      40.553 -15.045   3.045  1.00  0.00    -0.013 C 
HETATM   23  C   UNL     1      40.909 -15.958   4.230  1.00  0.00     0.009 C 
HETATM   24  C   UNL     1      40.995 -15.717   1.736  1.00  0.00     0.009 C 
HETATM   25  C   UNL     1      42.425 -16.216   4.263  1.00  0.00    -0.013 C 
HETATM   26  C   UNL     1      43.165 -14.874   4.421  1.00  0.00     0.014 C 
HETATM   27  C   UNL     1      42.856 -16.880   2.946  1.00  0.00     0.009 C 
HETATM   28  C   UNL     1      42.510 -15.966   1.761  1.00  0.00    -0.013 C 
HETATM   29  C   UNL     1      43.241 -14.623   1.929  1.00  0.00     0.014 C 
ENDBRANCH  19  20
ENDBRANCH   2  19
TORSDOF 4
ENDMDL
MODEL 6
REMARK VINA RESULT:      -8.1      6.566      8.582
REMARK  4 active torsions:
REMARK  status: ('A' for Active; 'I' for Inactive)
REMARK    1  A    between atoms: C_8  and  C_9 
REMARK       I    between atoms: C_9  and  N_10 
REMARK    2  A    between atoms: N_10  and  N_11 
REMARK       I    between atoms: N_11  and  C_12 
REMARK    3  A    between atoms: C_12  and  C_13 
REMARK    4  A    between atoms: C_13  and  C_14 
ROOT
HETATM    1  N   UNL     1      41.213 -12.235   6.327  1.00  0.00    -0.267 N 
HETATM    2  C   UNL     1      41.805 -10.995   6.175  1.00  0.00     0.236 C 
HETATM    3  O   UNL     1      42.636 -10.766   5.301  1.00  0.00    -0.272 OA
HETATM    4  H   UNL     1      40.376 -12.378   6.890  1.00  0.00     0.190 HD
ENDROOT
BRANCH   1   5
HETATM    5  N   UNL     1      41.485 -13.209   5.362  1.00  0.00    -0.262 N 
HETATM    6  C   UNL     1      41.017 -14.498   5.532  1.00  0.00     0.291 C 
HETATM    7  O   UNL     1      40.478 -14.876   6.572  1.00  0.00    -0.264 OA
HETATM    8  H   UNL     1      41.786 -12.904   4.434  1.00  0.00     0.190 HD
BRANCH   6   9
HETATM    9  C   UNL     1      41.226 -15.350   4.353  1.00  0.00     0.158 A 
HETATM   10  C   UNL     1      42.218 -16.359   4.177  1.00  0.00     0.028 A 
HETATM   11  C   UNL     1      43.268 -16.897   4.946  1.00  0.00     0.016 A 
HETATM   12  C   UNL     1      42.000 -16.863   2.900  1.00  0.00     0.063 A 
HETATM   13  C   UNL     1      44.058 -17.916   4.400  1.00  0.00     0.001 A 
HETATM   14  C   UNL     1      43.813 -18.398   3.115  1.00  0.00     0.002 A 
HETATM   15  C   UNL     1      42.775 -17.880   2.334  1.00  0.00     0.032 A 
HETATM   16  N   UNL     1      40.933 -16.160   2.413  1.00  0.00    -0.277 N 
HETATM   17  H   UNL     1      40.493 -16.261   1.504  1.00  0.00     0.189 HD
HETATM   18  N   UNL     1      40.441 -15.240   3.259  1.00  0.00    -0.168 NA
ENDBRANCH   6   9
ENDBRANCH   1   5
BRANCH   2  19
HETATM   19  C   UNL     1      41.325  -9.991   7.213  1.00  0.00     0.114 C 
BRANCH  19  20
HETATM   20  C   UNL     1      42.380  -9.421   8.188  1.00  0.00    -0.031 C 
HETATM   21  C   UNL     1      42.834  -7.997   7.779  1.00  0.00     0.014 C 
HETATM   22  C   UNL     1      43.838  -7.432   8.800  1.00  0.00    -0.013 C 
HETATM   23  C   UNL     1      45.060  -8.363   8.878  1.00  0.00     0.009 C 
HETATM   24  C   UNL     1      43.170  -7.353  10.181  1.00  0.00     0.009 C 
HETATM   25  C   UNL     1      44.626  -9.768   9.328  1.00  0.00    -0.013 C 
HETATM   26  C   UNL     1      43.623 -10.340   8.309  1.00  0.00     0.014 C 
HETATM   27  C   UNL     1      43.952  -9.675  10.706  1.00  0.00     0.009 C 
HETATM   28  C   UNL     1      42.726  -8.754  10.628  1.00  0.00    -0.013 C 
HETATM   29  C   UNL     1      41.732  -9.322   9.601  1.00  0.00     0.014 C 
ENDBRANCH  19  20
ENDBRANCH   2  19
TORSDOF 4
ENDMDL
MODEL 7
REMARK VINA RESULT:      -8.1      7.721      9.995
REMARK  4 active torsions:
REMARK  status: ('A' for Active; 'I' for Inactive)
REMARK    1  A    between atoms: C_8  and  C_9 
REMARK       I    between atoms: C_9  and  N_10 
REMARK    2  A    between atoms: N_10  and  N_11 
REMARK       I    between atoms: N_11  and  C_12 
REMARK    3  A    between atoms: C_12  and  C_13 
REMARK    4  A    between atoms: C_13  and  C_14 
ROOT
HETATM    1  N   UNL     1      42.726 -11.295   7.067  1.00  0.00    -0.267 N 
HETATM    2  C   UNL     1      43.746 -11.845   6.312  1.00  0.00     0.236 C 
HETATM    3  O   UNL     1      44.923 -11.781   6.652  1.00  0.00    -0.272 OA
HETATM    4  H   UNL     1      41.745 -11.529   6.918  1.00  0.00     0.190 HD
ENDROOT
BRANCH   1   5
HETATM    5  N   UNL     1      43.053 -10.768   8.319  1.00  0.00    -0.262 N 
HETATM    6  C   UNL     1      42.479  -9.586   8.742  1.00  0.00     0.291 C 
HETATM    7  O   UNL     1      41.783  -8.886   8.007  1.00  0.00    -0.264 OA
HETATM    8  H   UNL     1      43.495 -11.385   9.006  1.00  0.00     0.190 HD
BRANCH   6   9
HETATM    9  C   UNL     1      42.781  -9.263  10.144  1.00  0.00     0.158 A 
HETATM   10  C   UNL     1      41.916  -9.390  11.270  1.00  0.00     0.028 A 
HETATM   11  C   UNL     1      40.593  -9.819  11.492  1.00  0.00     0.016 A 
HETATM   12  C   UNL     1      42.666  -8.951  12.355  1.00  0.00     0.063 A 
HETATM   13  C   UNL     1      40.077  -9.789  12.793  1.00  0.00     0.001 A 
HETATM   14  C   UNL     1      40.857  -9.341  13.860  1.00  0.00     0.002 A 
HETATM   15  C   UNL     1      42.173  -8.912  13.663  1.00  0.00     0.032 A 
HETATM   16  N   UNL     1      43.884  -8.609  11.836  1.00  0.00    -0.277 N 
HETATM   17  H   UNL     1      44.687  -8.248  12.340  1.00  0.00     0.189 HD
HETATM   18  N   UNL     1      43.991  -8.782  10.508  1.00  0.00    -0.168 NA
ENDBRANCH   6   9
ENDBRANCH   1   5
BRANCH   2  19
HETATM   19  C   UNL     1      43.236 -12.497   5.036  1.00  0.00     0.114 C 
BRANCH  19  20
HETATM   20  C   UNL     1      42.708 -13.946   5.142  1.00  0.00    -0.031 C 
HETATM   21  C   UNL     1      42.935 -14.741   3.831  1.00  0.00     0.014 C 
HETATM   22  C   UNL     1      42.455 -16.195   3.986  1.00  0.00    -0.013 C 
HETATM   23  C   UNL     1      40.959 -16.200   4.343  1.00  0.00     0.009 C 
HETATM   24  C   UNL     1      43.247 -16.875   5.113  1.00  0.00     0.009 C 
HETATM   25  C   UNL     1      40.728 -15.451   5.667  1.00  0.00    -0.013 C 
HETATM   26  C   UNL     1      41.205 -13.995   5.517  1.00  0.00     0.014 C 
HETATM   27  C   UNL     1      41.531 -16.136   6.784  1.00  0.00     0.009 C 
HETATM   28  C   UNL     1      43.027 -16.124   6.435  1.00  0.00    -0.013 C 
HETATM   29  C   UNL     1      43.497 -14.669   6.274  1.00  0.00     0.014 C 
ENDBRANCH  19  20
ENDBRANCH   2  19
TORSDOF 4
ENDMDL
MODEL 8
REMARK VINA RESULT:      -8.1      6.513      8.680
REMARK  4 active torsions:
REMARK  status: ('A' for Active; 'I' for Inactive)
REMARK    1  A    between atoms: C_8  and  C_9 
REMARK       I    between atoms: C_9  and  N_10 
REMARK    2  A    between atoms: N_10  and  N_11 
REMARK       I    between atoms: N_11  and  C_12 
REMARK    3  A    between atoms: C_12  and  C_13 
REMARK    4  A    between atoms: C_13  and  C_14 
ROOT
HETATM    1  N   UNL     1      42.043 -11.583   5.331  1.00  0.00    -0.267 N 
HETATM    2  C   UNL     1      43.279 -11.990   4.864  1.00  0.00     0.236 C 
HETATM    3  O   UNL     1      44.312 -11.819   5.505  1.00  0.00    -0.272 OA
HETATM    4  H   UNL     1      41.168 -11.911   4.923  1.00  0.00     0.190 HD
ENDROOT
BRANCH   1   5
HETATM    5  N   UNL     1      41.970 -11.084   6.634  1.00  0.00    -0.262 N 
HETATM    6  C   UNL     1      41.740  -9.739   6.846  1.00  0.00     0.291 C 
HETATM    7  O   UNL     1      41.729  -8.916   5.930  1.00  0.00    -0.264 OA
HETATM    8  H   UNL     1      41.821 -11.745   7.401  1.00  0.00     0.190 HD
BRANCH   6   9
HETATM    9  C   UNL     1      41.509  -9.405   8.258  1.00  0.00     0.158 A 
HETATM   10  C   UNL     1      42.481  -9.311   9.297  1.00  0.00     0.028 A 
HETATM   11  C   UNL     1      43.876  -9.471   9.402  1.00  0.00     0.016 A 
HETATM   12  C   UNL     1      41.760  -8.979  10.439  1.00  0.00     0.063 A 
HETATM   13  C   UNL     1      44.490  -9.294  10.647  1.00  0.00     0.001 A 
HETATM   14  C   UNL     1      43.737  -8.962  11.773  1.00  0.00     0.002 A 
HETATM   15  C   UNL     1      42.351  -8.796  11.693  1.00  0.00     0.032 A 
HETATM   16  N   UNL     1      40.458  -8.892  10.030  1.00  0.00    -0.277 N 
HETATM   17  H   UNL     1      39.649  -8.665  10.598  1.00  0.00     0.189 HD
HETATM   18  N   UNL     1      40.268  -9.143   8.724  1.00  0.00    -0.168 NA
ENDBRANCH   6   9
ENDBRANCH   1   5
BRANCH   2  19
HETATM   19  C   UNL     1      43.198 -12.632   3.488  1.00  0.00     0.114 C 
BRANCH  19  20
HETATM   20  C   UNL     1      42.644 -14.073   3.409  1.00  0.00    -0.031 C 
HETATM   21  C   UNL     1      41.107 -14.091   3.215  1.00  0.00     0.014 C 
HETATM   22  C   UNL     1      40.592 -15.536   3.081  1.00  0.00    -0.013 C 
HETATM   23  C   UNL     1      40.964 -16.326   4.346  1.00  0.00     0.009 C 
HETATM   24  C   UNL     1      41.247 -16.197   1.858  1.00  0.00     0.009 C 
HETATM   25  C   UNL     1      42.492 -16.353   4.524  1.00  0.00    -0.013 C 
HETATM   26  C   UNL     1      43.012 -14.911   4.661  1.00  0.00     0.014 C 
HETATM   27  C   UNL     1      43.135 -17.010   3.291  1.00  0.00     0.009 C 
HETATM   28  C   UNL     1      42.773 -16.216   2.027  1.00  0.00    -0.013 C 
HETATM   29  C   UNL     1      43.284 -14.772   2.173  1.00  0.00     0.014 C 
ENDBRANCH  19  20
ENDBRANCH   2  19
TORSDOF 4
ENDMDL
MODEL 9
REMARK VINA RESULT:      -8.0      2.829      8.913
REMARK  4 active torsions:
REMARK  status: ('A' for Active; 'I' for Inactive)
REMARK    1  A    between atoms: C_8  and  C_9 
REMARK       I    between atoms: C_9  and  N_10 
REMARK    2  A    between atoms: N_10  and  N_11 
REMARK       I    between atoms: N_11  and  C_12 
REMARK    3  A    between atoms: C_12  and  C_13 
REMARK    4  A    between atoms: C_13  and  C_14 
ROOT
HETATM    1  N   UNL     1      41.735 -14.726   0.814  1.00  0.00    -0.267 N 
HETATM    2  C   UNL     1      41.282 -15.676   1.710  1.00  0.00     0.236 C 
HETATM    3  O   UNL     1      40.095 -15.974   1.809  1.00  0.00    -0.272 OA
HETATM    4  H   UNL     1      42.719 -14.630   0.567  1.00  0.00     0.190 HD
ENDROOT
BRANCH   1   5
HETATM    5  N   UNL     1      40.814 -14.194  -0.093  1.00  0.00    -0.262 N 
HETATM    6  C   UNL     1      40.644 -12.826  -0.181  1.00  0.00     0.291 C 
HETATM    7  O   UNL     1      41.171 -12.040   0.606  1.00  0.00    -0.264 OA
HETATM    8  H   UNL     1      40.480 -14.791  -0.853  1.00  0.00     0.190 HD
BRANCH   6   9
HETATM    9  C   UNL     1      39.782 -12.420  -1.300  1.00  0.00     0.158 A 
HETATM   10  C   UNL     1      38.602 -11.622  -1.241  1.00  0.00     0.028 A 
HETATM   11  C   UNL     1      37.864 -10.971  -0.234  1.00  0.00     0.016 A 
HETATM   12  C   UNL     1      38.157 -11.535  -2.556  1.00  0.00     0.063 A 
HETATM   13  C   UNL     1      36.710 -10.261  -0.586  1.00  0.00     0.001 A 
HETATM   14  C   UNL     1      36.291 -10.196  -1.914  1.00  0.00     0.002 A 
HETATM   15  C   UNL     1      37.008 -10.833  -2.932  1.00  0.00     0.032 A 
HETATM   16  N   UNL     1      39.062 -12.251  -3.290  1.00  0.00    -0.277 N 
HETATM   17  H   UNL     1      39.057 -12.403  -4.293  1.00  0.00     0.189 HD
HETATM   18  N   UNL     1      40.054 -12.799  -2.568  1.00  0.00    -0.168 NA
ENDBRANCH   6   9
ENDBRANCH   1   5
BRANCH   2  19
HETATM   19  C   UNL     1      42.406 -16.267   2.548  1.00  0.00     0.114 C 
BRANCH  19  20
HETATM   20  C   UNL     1      42.449 -15.888   4.045  1.00  0.00    -0.031 C 
HETATM   21  C   UNL     1      41.212 -16.421   4.813  1.00  0.00     0.014 C 
HETATM   22  C   UNL     1      41.311 -16.080   6.310  1.00  0.00    -0.013 C 
HETATM   23  C   UNL     1      41.407 -14.554   6.478  1.00  0.00     0.009 C 
HETATM   24  C   UNL     1      42.570 -16.735   6.898  1.00  0.00     0.009 C 
HETATM   25  C   UNL     1      42.657 -14.020   5.758  1.00  0.00    -0.013 C 
HETATM   26  C   UNL     1      42.562 -14.356   4.259  1.00  0.00     0.014 C 
HETATM   27  C   UNL     1      43.908 -14.688   6.350  1.00  0.00     0.009 C 
HETATM   28  C   UNL     1      43.819 -16.211   6.175  1.00  0.00    -0.013 C 
HETATM   29  C   UNL     1      43.713 -16.542   4.677  1.00  0.00     0.014 C 
ENDBRANCH  19  20
ENDBRANCH   2  19
TORSDOF 4
ENDMDL
MODEL 10
REMARK VINA RESULT:      -7.7     15.297     17.668
REMARK  4 active torsions:
REMARK  status: ('A' for Active; 'I' for Inactive)
REMARK    1  A    between atoms: C_8  and  C_9 
REMARK       I    between atoms: C_9  and  N_10 
REMARK    2  A    between atoms: N_10  and  N_11 
REMARK       I    between atoms: N_11  and  C_12 
REMARK    3  A    between atoms: C_12  and  C_13 
REMARK    4  A    between atoms: C_13  and  C_14 
ROOT
HETATM    1  N   UNL     1      41.229  -8.497  15.577  1.00  0.00    -0.267 N 
HETATM    2  C   UNL     1      41.428  -7.248  16.135  1.00  0.00     0.236 C 
HETATM    3  O   UNL     1      42.386  -6.540  15.837  1.00  0.00    -0.272 OA
HETATM    4  H   UNL     1      40.340  -8.992  15.643  1.00  0.00     0.190 HD
ENDROOT
BRANCH   1   5
HETATM    5  N   UNL     1      42.083  -8.894  14.545  1.00  0.00    -0.262 N 
HETATM    6  C   UNL     1      41.573  -9.543  13.438  1.00  0.00     0.291 C 
HETATM    7  O   UNL     1      40.403  -9.919  13.370  1.00  0.00    -0.264 OA
HETATM    8  H   UNL     1      43.013  -8.471  14.494  1.00  0.00     0.190 HD
BRANCH   6   9
HETATM    9  C   UNL     1      42.563  -9.729  12.367  1.00  0.00     0.158 A 
HETATM   10  C   UNL     1      42.901  -8.811  11.329  1.00  0.00     0.028 A 
HETATM   11  C   UNL     1      42.494  -7.520  10.941  1.00  0.00     0.016 A 
HETATM   12  C   UNL     1      43.876  -9.458  10.578  1.00  0.00     0.063 A 
HETATM   13  C   UNL     1      43.080  -6.932   9.814  1.00  0.00     0.001 A 
HETATM   14  C   UNL     1      44.055  -7.608   9.082  1.00  0.00     0.002 A 
HETATM   15  C   UNL     1      44.476  -8.890   9.450  1.00  0.00     0.032 A 
HETATM   16  N   UNL     1      44.059 -10.667  11.189  1.00  0.00    -0.277 N 
HETATM   17  H   UNL     1      44.700 -11.404  10.915  1.00  0.00     0.189 HD
HETATM   18  N   UNL     1      43.285 -10.867  12.269  1.00  0.00    -0.168 NA
ENDBRANCH   6   9
ENDBRANCH   1   5
BRANCH   2  19
HETATM   19  C   UNL     1      40.354  -6.887  17.150  1.00  0.00     0.114 C 
BRANCH  19  20
HETATM   20  C   UNL     1      40.590  -7.319  18.615  1.00  0.00    -0.031 C 
HETATM   21  C   UNL     1      40.426  -6.133  19.600  1.00  0.00     0.014 C 
HETATM   22  C   UNL     1      40.608  -6.604  21.054  1.00  0.00    -0.013 C 
HETATM   23  C   UNL     1      42.006  -7.223  21.216  1.00  0.00     0.009 C 
HETATM   24  C   UNL     1      39.544  -7.662  21.383  1.00  0.00     0.009 C 
HETATM   25  C   UNL     1      42.164  -8.429  20.275  1.00  0.00    -0.013 C 
HETATM   26  C   UNL     1      41.985  -7.964  18.819  1.00  0.00     0.014 C 
HETATM   27  C   UNL     1      41.090  -9.477  20.609  1.00  0.00     0.009 C 
HETATM   28  C   UNL     1      39.691  -8.864  20.438  1.00  0.00    -0.013 C 
HETATM   29  C   UNL     1      39.521  -8.389  18.985  1.00  0.00     0.014 C 
ENDBRANCH  19  20
ENDBRANCH   2  19
TORSDOF 4
ENDMDL
