MODEL 1
REMARK VINA RESULT:      -8.7      0.000      0.000
REMARK  7 active torsions:
REMARK  status: ('A' for Active; 'I' for Inactive)
REMARK    1  A    between atoms: C_3  and  O_4 
REMARK    2  A    between atoms: O_4  and  C_5 
REMARK    3  A    between atoms: C_5  and  C_6 
REMARK    4  A    between atoms: C_7  and  C_8 
REMARK    5  A    between atoms: C_8  and  N_9 
REMARK       I    between atoms: N_9  and  C_10 
REMARK    6  A    between atoms: C_10  and  C_11 
REMARK    7  A    between atoms: C_15  and  C_16 
ROOT
HETATM    1  N   UNL     1      40.284 -14.698   4.846  1.00  0.00    -0.345 N 
HETATM    2  C   UNL     1      40.950 -13.672   4.225  1.00  0.00     0.270 C 
HETATM    3  O   UNL     1      41.675 -12.885   4.825  1.00  0.00    -0.266 OA
HETATM    4  H   UNL     1      39.797 -15.382   4.289  1.00  0.00     0.163 HD
ENDROOT
BRANCH   1   5
HETATM    5  C   UNL     1      40.448 -14.977   6.250  1.00  0.00     0.217 C 
BRANCH   5   6
HETATM    6  C   UNL     1      41.515 -15.963   6.441  1.00  0.00    -0.085 C 
HETATM    7  C   UNL     1      42.386 -16.782   6.573  1.00  0.00    -0.078 C 
BRANCH   7   8
HETATM    8  C   UNL     1      43.446 -17.792   6.705  1.00  0.00     0.269 C 
BRANCH   8   9
HETATM    9  O   UNL     1      44.269 -17.746   5.543  1.00  0.00    -0.339 OA
BRANCH   9  10
HETATM   10  C   UNL     1      44.016 -18.656   4.549  1.00  0.00     0.075 A 
HETATM   11  C   UNL     1      43.566 -18.116   3.330  1.00  0.00    -0.029 A 
HETATM   12  C   UNL     1      43.354 -16.637   3.161  1.00  0.00     0.051 C 
HETATM   13  C   UNL     1      43.256 -18.979   2.266  1.00  0.00     0.009 A 
HETATM   14  C   UNL     1      43.411 -20.356   2.401  1.00  0.00     0.001 A 
HETATM   15  C   UNL     1      43.866 -20.887   3.604  1.00  0.00     0.003 A 
HETATM   16  C   UNL     1      44.163 -20.041   4.676  1.00  0.00     0.037 A 
ENDBRANCH   9  10
ENDBRANCH   8   9
ENDBRANCH   7   8
ENDBRANCH   5   6
ENDBRANCH   1   5
BRANCH   2  17
HETATM   17  C   UNL     1      40.735 -13.571   2.807  1.00  0.00     0.120 A 
HETATM   18  N   UNL     1      41.677 -13.024   1.982  1.00  0.00    -0.272 N 
HETATM   19  H   UNL     1      42.584 -12.658   2.257  1.00  0.00     0.189 HD
HETATM   20  N   UNL     1      41.324 -12.985   0.691  1.00  0.00    -0.174 NA
HETATM   21  C   UNL     1      40.093 -13.521   0.654  1.00  0.00     0.089 A 
HETATM   22  C   UNL     1      39.693 -13.909   1.966  1.00  0.00     0.071 A 
BRANCH  21  23
HETATM   23  C   UNL     1      39.343 -13.638  -0.604  1.00  0.00    -0.006 A 
HETATM   24  C   UNL     1      39.492 -14.774  -1.418  1.00  0.00     0.014 A 
HETATM   25  C   UNL     1      38.793 -14.896  -2.622  1.00  0.00     0.001 A 
HETATM   26  C   UNL     1      37.932 -13.882  -3.032  1.00  0.00     0.000 A 
HETATM   27  C   UNL     1      37.769 -12.748  -2.239  1.00  0.00     0.001 A 
HETATM   28  C   UNL     1      38.470 -12.627  -1.033  1.00  0.00     0.014 A 
ENDBRANCH  21  23
ENDBRANCH   2  17
TORSDOF 7
ENDMDL
MODEL 2
REMARK VINA RESULT:      -8.6      6.722      9.951
REMARK  7 active torsions:
REMARK  status: ('A' for Active; 'I' for Inactive)
REMARK    1  A    between atoms: C_3  and  O_4 
REMARK    2  A    between atoms: O_4  and  C_5 
REMARK    3  A    between atoms: C_5  and  C_6 
REMARK    4  A    between atoms: C_7  and  C_8 
REMARK    5  A    between atoms: C_8  and  N_9 
REMARK       I    between atoms: N_9  and  C_10 
REMARK    6  A    between atoms: C_10  and  C_11 
REMARK    7  A    between atoms: C_15  and  C_16 
ROOT
HETATM    1  N   UNL     1      43.812 -11.500   7.951  1.00  0.00    -0.345 N 
HETATM    2  C   UNL     1      44.521 -10.801   8.896  1.00  0.00     0.270 C 
HETATM    3  O   UNL     1      45.742 -10.686   8.866  1.00  0.00    -0.266 OA
HETATM    4  H   UNL     1      42.806 -11.464   7.960  1.00  0.00     0.163 HD
ENDROOT
BRANCH   1   5
HETATM    5  C   UNL     1      44.448 -12.091   6.801  1.00  0.00     0.217 C 
BRANCH   5   6
HETATM    6  C   UNL     1      43.894 -13.425   6.556  1.00  0.00    -0.085 C 
HETATM    7  C   UNL     1      43.463 -14.530   6.358  1.00  0.00    -0.078 C 
BRANCH   7   8
HETATM    8  C   UNL     1      42.965 -15.893   6.124  1.00  0.00     0.269 C 
BRANCH   8   9
HETATM    9  O   UNL     1      42.763 -16.072   4.725  1.00  0.00    -0.339 OA
BRANCH   9  10
HETATM   10  C   UNL     1      43.154 -17.266   4.174  1.00  0.00     0.075 A 
HETATM   11  C   UNL     1      42.697 -17.513   2.867  1.00  0.00    -0.029 A 
HETATM   12  C   UNL     1      41.811 -16.530   2.150  1.00  0.00     0.051 C 
HETATM   13  C   UNL     1      43.027 -18.723   2.237  1.00  0.00     0.009 A 
HETATM   14  C   UNL     1      43.819 -19.667   2.886  1.00  0.00     0.001 A 
HETATM   15  C   UNL     1      44.278 -19.417   4.176  1.00  0.00     0.003 A 
HETATM   16  C   UNL     1      43.944 -18.223   4.820  1.00  0.00     0.037 A 
ENDBRANCH   9  10
ENDBRANCH   8   9
ENDBRANCH   7   8
ENDBRANCH   5   6
ENDBRANCH   1   5
BRANCH   2  17
HETATM   17  C   UNL     1      43.731 -10.210   9.943  1.00  0.00     0.120 A 
HETATM   18  N   UNL     1      42.391  -9.999   9.789  1.00  0.00    -0.272 N 
HETATM   19  H   UNL     1      41.831 -10.228   8.973  1.00  0.00     0.189 HD
HETATM   20  N   UNL     1      41.797  -9.426  10.844  1.00  0.00    -0.174 NA
HETATM   21  C   UNL     1      42.785  -9.243  11.736  1.00  0.00     0.089 A 
HETATM   22  C   UNL     1      44.015  -9.732  11.208  1.00  0.00     0.071 A 
BRANCH  21  23
HETATM   23  C   UNL     1      42.536  -8.610  13.039  1.00  0.00    -0.006 A 
HETATM   24  C   UNL     1      41.519  -9.092  13.881  1.00  0.00     0.014 A 
HETATM   25  C   UNL     1      41.264  -8.494  15.118  1.00  0.00     0.001 A 
HETATM   26  C   UNL     1      42.022  -7.405  15.535  1.00  0.00     0.000 A 
HETATM   27  C   UNL     1      43.036  -6.913  14.715  1.00  0.00     0.001 A 
HETATM   28  C   UNL     1      43.291  -7.511  13.476  1.00  0.00     0.014 A 
ENDBRANCH  21  23
ENDBRANCH   2  17
TORSDOF 7
ENDMDL
MODEL 3
REMARK VINA RESULT:      -8.6      6.610      9.979
REMARK  7 active torsions:
REMARK  status: ('A' for Active; 'I' for Inactive)
REMARK    1  A    between atoms: C_3  and  O_4 
REMARK    2  A    between atoms: O_4  and  C_5 
REMARK    3  A    between atoms: C_5  and  C_6 
REMARK    4  A    between atoms: C_7  and  C_8 
REMARK    5  A    between atoms: C_8  and  N_9 
REMARK       I    between atoms: N_9  and  C_10 
REMARK    6  A    between atoms: C_10  and  C_11 
REMARK    7  A    between atoms: C_15  and  C_16 
ROOT
HETATM    1  N   UNL     1      43.800 -11.741   7.885  1.00  0.00    -0.345 N 
HETATM    2  C   UNL     1      44.518 -10.964   8.759  1.00  0.00     0.270 C 
HETATM    3  O   UNL     1      45.733 -10.818   8.682  1.00  0.00    -0.266 OA
HETATM    4  H   UNL     1      42.794 -11.732   7.925  1.00  0.00     0.163 HD
ENDROOT
BRANCH   1   5
HETATM    5  C   UNL     1      44.417 -12.387   6.754  1.00  0.00     0.217 C 
BRANCH   5   6
HETATM    6  C   UNL     1      43.410 -13.136   5.997  1.00  0.00    -0.085 C 
HETATM    7  C   UNL     1      42.593 -13.773   5.387  1.00  0.00    -0.078 C 
BRANCH   7   8
HETATM    8  C   UNL     1      41.604 -14.578   4.656  1.00  0.00     0.269 C 
BRANCH   8   9
HETATM    9  O   UNL     1      41.689 -15.927   5.105  1.00  0.00    -0.339 OA
BRANCH   9  10
HETATM   10  C   UNL     1      42.422 -16.804   4.348  1.00  0.00     0.075 A 
HETATM   11  C   UNL     1      43.400 -17.540   5.043  1.00  0.00    -0.029 A 
HETATM   12  C   UNL     1      43.629 -17.339   6.516  1.00  0.00     0.051 C 
HETATM   13  C   UNL     1      44.215 -18.441   4.340  1.00  0.00     0.009 A 
HETATM   14  C   UNL     1      44.050 -18.627   2.970  1.00  0.00     0.001 A 
HETATM   15  C   UNL     1      43.076 -17.905   2.286  1.00  0.00     0.003 A 
HETATM   16  C   UNL     1      42.267 -16.993   2.971  1.00  0.00     0.037 A 
ENDBRANCH   9  10
ENDBRANCH   8   9
ENDBRANCH   7   8
ENDBRANCH   5   6
ENDBRANCH   1   5
BRANCH   2  17
HETATM   17  C   UNL     1      43.745 -10.330   9.792  1.00  0.00     0.120 A 
HETATM   18  N   UNL     1      42.432 -10.006   9.600  1.00  0.00    -0.272 N 
HETATM   19  H   UNL     1      41.883 -10.173   8.762  1.00  0.00     0.189 HD
HETATM   20  N   UNL     1      41.852  -9.405  10.648  1.00  0.00    -0.174 NA
HETATM   21  C   UNL     1      42.821  -9.320  11.575  1.00  0.00     0.089 A 
HETATM   22  C   UNL     1      44.023  -9.899  11.075  1.00  0.00     0.071 A 
BRANCH  21  23
HETATM   23  C   UNL     1      42.581  -8.693  12.882  1.00  0.00    -0.006 A 
HETATM   24  C   UNL     1      43.356  -7.597  13.298  1.00  0.00     0.014 A 
HETATM   25  C   UNL     1      43.146  -6.996  14.542  1.00  0.00     0.001 A 
HETATM   26  C   UNL     1      42.156  -7.481  15.391  1.00  0.00     0.000 A 
HETATM   27  C   UNL     1      41.375  -8.565  14.996  1.00  0.00     0.001 A 
HETATM   28  C   UNL     1      41.586  -9.167  13.750  1.00  0.00     0.014 A 
ENDBRANCH  21  23
ENDBRANCH   2  17
TORSDOF 7
ENDMDL
MODEL 4
REMARK VINA RESULT:      -7.9      5.144      8.442
REMARK  7 active torsions:
REMARK  status: ('A' for Active; 'I' for Inactive)
REMARK    1  A    between atoms: C_3  and  O_4 
REMARK    2  A    between atoms: O_4  and  C_5 
REMARK    3  A    between atoms: C_5  and  C_6 
REMARK    4  A    between atoms: C_7  and  C_8 
REMARK    5  A    between atoms: C_8  and  N_9 
REMARK       I    between atoms: N_9  and  C_10 
REMARK    6  A    between atoms: C_10  and  C_11 
REMARK    7  A    between atoms: C_15  and  C_16 
ROOT
HETATM    1  N   UNL     1      42.836 -11.083   4.748  1.00  0.00    -0.345 N 
HETATM    2  C   UNL     1      44.113 -11.108   5.250  1.00  0.00     0.270 C 
HETATM    3  O   UNL     1      45.099 -11.342   4.560  1.00  0.00    -0.266 OA
HETATM    4  H   UNL     1      42.078 -10.772   5.335  1.00  0.00     0.163 HD
ENDROOT
BRANCH   1   5
HETATM    5  C   UNL     1      42.564 -11.254   3.343  1.00  0.00     0.217 C 
BRANCH   5   6
HETATM    6  C   UNL     1      42.872 -12.629   2.941  1.00  0.00    -0.085 C 
HETATM    7  C   UNL     1      43.107 -13.766   2.626  1.00  0.00    -0.078 C 
BRANCH   7   8
HETATM    8  C   UNL     1      43.368 -15.165   2.259  1.00  0.00     0.269 C 
BRANCH   8   9
HETATM    9  O   UNL     1      42.977 -16.003   3.342  1.00  0.00    -0.339 OA
BRANCH   9  10
HETATM   10  C   UNL     1      43.223 -17.347   3.227  1.00  0.00     0.075 A 
HETATM   11  C   UNL     1      43.939 -17.929   4.288  1.00  0.00    -0.029 A 
HETATM   12  C   UNL     1      44.422 -17.105   5.451  1.00  0.00     0.051 C 
HETATM   13  C   UNL     1      44.259 -19.296   4.238  1.00  0.00     0.009 A 
HETATM   14  C   UNL     1      43.855 -20.080   3.161  1.00  0.00     0.001 A 
HETATM   15  C   UNL     1      43.137 -19.504   2.116  1.00  0.00     0.003 A 
HETATM   16  C   UNL     1      42.826 -18.142   2.146  1.00  0.00     0.037 A 
ENDBRANCH   9  10
ENDBRANCH   8   9
ENDBRANCH   7   8
ENDBRANCH   5   6
ENDBRANCH   1   5
BRANCH   2  17
HETATM   17  C   UNL     1      44.222 -10.848   6.661  1.00  0.00     0.120 A 
HETATM   18  N   UNL     1      45.280 -11.313   7.390  1.00  0.00    -0.272 N 
HETATM   19  H   UNL     1      46.066 -11.853   7.040  1.00  0.00     0.189 HD
HETATM   20  N   UNL     1      45.231 -11.004   8.692  1.00  0.00    -0.174 NA
HETATM   21  C   UNL     1      44.090 -10.310   8.838  1.00  0.00     0.089 A 
HETATM   22  C   UNL     1      43.433 -10.185   7.580  1.00  0.00     0.071 A 
BRANCH  21  23
HETATM   23  C   UNL     1      43.662  -9.803  10.150  1.00  0.00    -0.006 A 
HETATM   24  C   UNL     1      43.578  -8.421  10.385  1.00  0.00     0.014 A 
HETATM   25  C   UNL     1      43.182  -7.924  11.630  1.00  0.00     0.001 A 
HETATM   26  C   UNL     1      42.861  -8.803  12.660  1.00  0.00     0.000 A 
HETATM   27  C   UNL     1      42.936 -10.177  12.446  1.00  0.00     0.001 A 
HETATM   28  C   UNL     1      43.334 -10.675  11.200  1.00  0.00     0.014 A 
ENDBRANCH  21  23
ENDBRANCH   2  17
TORSDOF 7
ENDMDL
MODEL 5
REMARK VINA RESULT:      -7.9      6.924     10.217
REMARK  7 active torsions:
REMARK  status: ('A' for Active; 'I' for Inactive)
REMARK    1  A    between atoms: C_3  and  O_4 
REMARK    2  A    between atoms: O_4  and  C_5 
REMARK    3  A    between atoms: C_5  and  C_6 
REMARK    4  A    between atoms: C_7  and  C_8 
REMARK    5  A    between atoms: C_8  and  N_9 
REMARK       I    between atoms: N_9  and  C_10 
REMARK    6  A    between atoms: C_10  and  C_11 
REMARK    7  A    between atoms: C_15  and  C_16 
ROOT
HETATM    1  N   UNL     1      43.285 -11.236   8.114  1.00  0.00    -0.345 N 
HETATM    2  C   UNL     1      44.252 -10.808   8.989  1.00  0.00     0.270 C 
HETATM    3  O   UNL     1      45.448 -10.815   8.720  1.00  0.00    -0.266 OA
HETATM    4  H   UNL     1      42.314 -11.101   8.343  1.00  0.00     0.163 HD
ENDROOT
BRANCH   1   5
HETATM    5  C   UNL     1      43.602 -11.658   6.773  1.00  0.00     0.217 C 
BRANCH   5   6
HETATM    6  C   UNL     1      43.825 -13.105   6.745  1.00  0.00    -0.085 C 
HETATM    7  C   UNL     1      43.988 -14.296   6.705  1.00  0.00    -0.078 C 
BRANCH   7   8
HETATM    8  C   UNL     1      44.166 -15.754   6.633  1.00  0.00     0.269 C 
BRANCH   8   9
HETATM    9  O   UNL     1      42.911 -16.354   6.328  1.00  0.00    -0.339 OA
BRANCH   9  10
HETATM   10  C   UNL     1      42.583 -16.504   5.005  1.00  0.00     0.075 A 
HETATM   11  C   UNL     1      41.319 -16.013   4.631  1.00  0.00    -0.029 A 
HETATM   12  C   UNL     1      40.391 -15.393   5.640  1.00  0.00     0.051 C 
HETATM   13  C   UNL     1      40.891 -16.150   3.301  1.00  0.00     0.009 A 
HETATM   14  C   UNL     1      41.713 -16.748   2.349  1.00  0.00     0.001 A 
HETATM   15  C   UNL     1      42.967 -17.225   2.720  1.00  0.00     0.003 A 
HETATM   16  C   UNL     1      43.399 -17.108   4.043  1.00  0.00     0.037 A 
ENDBRANCH   9  10
ENDBRANCH   8   9
ENDBRANCH   7   8
ENDBRANCH   5   6
ENDBRANCH   1   5
BRANCH   2  17
HETATM   17  C   UNL     1      43.766 -10.352  10.264  1.00  0.00     0.120 A 
HETATM   18  N   UNL     1      43.350 -11.232  11.222  1.00  0.00    -0.272 N 
HETATM   19  H   UNL     1      43.345 -12.245  11.153  1.00  0.00     0.189 HD
HETATM   20  N   UNL     1      42.910 -10.655  12.348  1.00  0.00    -0.174 NA
HETATM   21  C   UNL     1      43.031  -9.335  12.128  1.00  0.00     0.089 A 
HETATM   22  C   UNL     1      43.575  -9.107  10.830  1.00  0.00     0.071 A 
BRANCH  21  23
HETATM   23  C   UNL     1      42.625  -8.347  13.137  1.00  0.00    -0.006 A 
HETATM   24  C   UNL     1      42.665  -6.974  12.844  1.00  0.00     0.014 A 
HETATM   25  C   UNL     1      42.291  -6.022  13.796  1.00  0.00     0.001 A 
HETATM   26  C   UNL     1      41.870  -6.429  15.059  1.00  0.00     0.000 A 
HETATM   27  C   UNL     1      41.822  -7.786  15.369  1.00  0.00     0.001 A 
HETATM   28  C   UNL     1      42.197  -8.739  14.415  1.00  0.00     0.014 A 
ENDBRANCH  21  23
ENDBRANCH   2  17
TORSDOF 7
ENDMDL
MODEL 6
REMARK VINA RESULT:      -7.9      5.173      8.923
REMARK  7 active torsions:
REMARK  status: ('A' for Active; 'I' for Inactive)
REMARK    1  A    between atoms: C_3  and  O_4 
REMARK    2  A    between atoms: O_4  and  C_5 
REMARK    3  A    between atoms: C_5  and  C_6 
REMARK    4  A    between atoms: C_7  and  C_8 
REMARK    5  A    between atoms: C_8  and  N_9 
REMARK       I    between atoms: N_9  and  C_10 
REMARK    6  A    between atoms: C_10  and  C_11 
REMARK    7  A    between atoms: C_15  and  C_16 
ROOT
HETATM    1  N   UNL     1      42.653 -12.679   4.551  1.00  0.00    -0.345 N 
HETATM    2  C   UNL     1      42.662 -13.006   3.218  1.00  0.00     0.270 C 
HETATM    3  O   UNL     1      42.423 -12.196   2.329  1.00  0.00    -0.266 OA
HETATM    4  H   UNL     1      42.970 -13.353   5.229  1.00  0.00     0.163 HD
ENDROOT
BRANCH   1   5
HETATM    5  C   UNL     1      42.435 -11.329   5.005  1.00  0.00     0.217 C 
BRANCH   5   6
HETATM    6  C   UNL     1      43.274 -11.054   6.174  1.00  0.00    -0.085 C 
HETATM    7  C   UNL     1      43.969 -10.806   7.124  1.00  0.00    -0.078 C 
BRANCH   7   8
HETATM    8  C   UNL     1      44.822 -10.473   8.273  1.00  0.00     0.269 C 
BRANCH   8   9
HETATM    9  O   UNL     1      44.726  -9.074   8.525  1.00  0.00    -0.339 OA
BRANCH   9  10
HETATM   10  C   UNL     1      44.082  -8.676   9.668  1.00  0.00     0.075 A 
HETATM   11  C   UNL     1      43.081  -7.703   9.496  1.00  0.00    -0.029 A 
HETATM   12  C   UNL     1      42.775  -7.127   8.140  1.00  0.00     0.051 C 
HETATM   13  C   UNL     1      42.389  -7.218  10.617  1.00  0.00     0.009 A 
HETATM   14  C   UNL     1      42.670  -7.708  11.890  1.00  0.00     0.001 A 
HETATM   15  C   UNL     1      43.654  -8.678  12.057  1.00  0.00     0.003 A 
HETATM   16  C   UNL     1      44.361  -9.158  10.951  1.00  0.00     0.037 A 
ENDBRANCH   9  10
ENDBRANCH   8   9
ENDBRANCH   7   8
ENDBRANCH   5   6
ENDBRANCH   1   5
BRANCH   2  17
HETATM   17  C   UNL     1      42.967 -14.381   2.926  1.00  0.00     0.120 A 
HETATM   18  N   UNL     1      43.251 -14.792   1.655  1.00  0.00    -0.272 N 
HETATM   19  H   UNL     1      43.286 -14.210   0.824  1.00  0.00     0.189 HD
HETATM   20  N   UNL     1      43.497 -16.104   1.541  1.00  0.00    -0.174 NA
HETATM   21  C   UNL     1      43.365 -16.588   2.787  1.00  0.00     0.089 A 
HETATM   22  C   UNL     1      43.041 -15.532   3.687  1.00  0.00     0.071 A 
BRANCH  21  23
HETATM   23  C   UNL     1      43.540 -18.018   3.078  1.00  0.00    -0.006 A 
HETATM   24  C   UNL     1      43.172 -18.987   2.130  1.00  0.00     0.014 A 
HETATM   25  C   UNL     1      43.323 -20.351   2.396  1.00  0.00     0.001 A 
HETATM   26  C   UNL     1      43.845 -20.768   3.616  1.00  0.00     0.000 A 
HETATM   27  C   UNL     1      44.217 -19.823   4.570  1.00  0.00     0.001 A 
HETATM   28  C   UNL     1      44.066 -18.457   4.303  1.00  0.00     0.014 A 
ENDBRANCH  21  23
ENDBRANCH   2  17
TORSDOF 7
ENDMDL
MODEL 7
REMARK VINA RESULT:      -7.9      4.163      8.110
REMARK  7 active torsions:
REMARK  status: ('A' for Active; 'I' for Inactive)
REMARK    1  A    between atoms: C_3  and  O_4 
REMARK    2  A    between atoms: O_4  and  C_5 
REMARK    3  A    between atoms: C_5  and  C_6 
REMARK    4  A    between atoms: C_7  and  C_8 
REMARK    5  A    between atoms: C_8  and  N_9 
REMARK       I    between atoms: N_9  and  C_10 
REMARK    6  A    between atoms: C_10  and  C_11 
REMARK    7  A    between atoms: C_15  and  C_16 
ROOT
HETATM    1  N   UNL     1      42.581 -12.235   2.545  1.00  0.00    -0.345 N 
HETATM    2  C   UNL     1      41.686 -13.271   2.444  1.00  0.00     0.270 C 
HETATM    3  O   UNL     1      40.472 -13.106   2.419  1.00  0.00    -0.266 OA
HETATM    4  H   UNL     1      43.566 -12.419   2.444  1.00  0.00     0.163 HD
ENDROOT
BRANCH   1   5
HETATM    5  C   UNL     1      42.157 -10.858   2.553  1.00  0.00     0.217 C 
BRANCH   5   6
HETATM    6  C   UNL     1      42.082 -10.367   3.931  1.00  0.00    -0.085 C 
HETATM    7  C   UNL     1      42.047  -9.959   5.062  1.00  0.00    -0.078 C 
BRANCH   7   8
HETATM    8  C   UNL     1      42.033  -9.451   6.441  1.00  0.00     0.269 C 
BRANCH   8   9
HETATM    9  O   UNL     1      42.484 -10.482   7.314  1.00  0.00    -0.339 OA
BRANCH   9  10
HETATM   10  C   UNL     1      43.392 -10.143   8.284  1.00  0.00     0.075 A 
HETATM   11  C   UNL     1      44.703 -10.613   8.082  1.00  0.00    -0.029 A 
HETATM   12  C   UNL     1      45.056 -11.457   6.888  1.00  0.00     0.051 C 
HETATM   13  C   UNL     1      45.690 -10.335   9.041  1.00  0.00     0.009 A 
HETATM   14  C   UNL     1      45.388  -9.583  10.173  1.00  0.00     0.001 A 
HETATM   15  C   UNL     1      44.093  -9.111  10.366  1.00  0.00     0.003 A 
HETATM   16  C   UNL     1      43.097  -9.393   9.427  1.00  0.00     0.037 A 
ENDBRANCH   9  10
ENDBRANCH   8   9
ENDBRANCH   7   8
ENDBRANCH   5   6
ENDBRANCH   1   5
BRANCH   2  17
HETATM   17  C   UNL     1      42.273 -14.583   2.376  1.00  0.00     0.120 A 
HETATM   18  N   UNL     1      42.907 -15.020   1.248  1.00  0.00    -0.272 N 
HETATM   19  H   UNL     1      43.037 -14.500   0.385  1.00  0.00     0.189 HD
HETATM   20  N   UNL     1      43.385 -16.268   1.333  1.00  0.00    -0.174 NA
HETATM   21  C   UNL     1      43.050 -16.682   2.566  1.00  0.00     0.089 A 
HETATM   22  C   UNL     1      42.357 -15.645   3.255  1.00  0.00     0.071 A 
BRANCH  21  23
HETATM   23  C   UNL     1      43.386 -18.032   3.042  1.00  0.00    -0.006 A 
HETATM   24  C   UNL     1      43.226 -19.143   2.197  1.00  0.00     0.014 A 
HETATM   25  C   UNL     1      43.532 -20.434   2.638  1.00  0.00     0.001 A 
HETATM   26  C   UNL     1      44.003 -20.633   3.932  1.00  0.00     0.000 A 
HETATM   27  C   UNL     1      44.170 -19.544   4.785  1.00  0.00     0.001 A 
HETATM   28  C   UNL     1      43.863 -18.252   4.343  1.00  0.00     0.014 A 
ENDBRANCH  21  23
ENDBRANCH   2  17
TORSDOF 7
ENDMDL
MODEL 8
REMARK VINA RESULT:      -7.8      2.053      2.873
REMARK  7 active torsions:
REMARK  status: ('A' for Active; 'I' for Inactive)
REMARK    1  A    between atoms: C_3  and  O_4 
REMARK    2  A    between atoms: O_4  and  C_5 
REMARK    3  A    between atoms: C_5  and  C_6 
REMARK    4  A    between atoms: C_7  and  C_8 
REMARK    5  A    between atoms: C_8  and  N_9 
REMARK       I    between atoms: N_9  and  C_10 
REMARK    6  A    between atoms: C_10  and  C_11 
REMARK    7  A    between atoms: C_15  and  C_16 
ROOT
HETATM    1  N   UNL     1      42.672 -12.144   4.829  1.00  0.00    -0.345 N 
HETATM    2  C   UNL     1      43.250 -11.752   3.648  1.00  0.00     0.270 C 
HETATM    3  O   UNL     1      44.428 -11.425   3.556  1.00  0.00    -0.266 OA
HETATM    4  H   UNL     1      41.734 -12.511   4.825  1.00  0.00     0.163 HD
ENDROOT
BRANCH   1   5
HETATM    5  C   UNL     1      43.434 -12.276   6.046  1.00  0.00     0.217 C 
BRANCH   5   6
HETATM    6  C   UNL     1      43.710 -13.690   6.309  1.00  0.00    -0.085 C 
HETATM    7  C   UNL     1      43.919 -14.858   6.508  1.00  0.00    -0.078 C 
BRANCH   7   8
HETATM    8  C   UNL     1      44.157 -16.292   6.725  1.00  0.00     0.269 C 
BRANCH   8   9
HETATM    9  O   UNL     1      43.024 -17.020   6.259  1.00  0.00    -0.339 OA
BRANCH   9  10
HETATM   10  C   UNL     1      42.674 -16.876   4.941  1.00  0.00     0.075 A 
HETATM   11  C   UNL     1      41.383 -16.370   4.705  1.00  0.00    -0.029 A 
HETATM   12  C   UNL     1      40.452 -16.043   5.840  1.00  0.00     0.051 C 
HETATM   13  C   UNL     1      40.933 -16.217   3.384  1.00  0.00     0.009 A 
HETATM   14  C   UNL     1      41.759 -16.541   2.310  1.00  0.00     0.001 A 
HETATM   15  C   UNL     1      43.039 -17.033   2.546  1.00  0.00     0.003 A 
HETATM   16  C   UNL     1      43.495 -17.204   3.856  1.00  0.00     0.037 A 
ENDBRANCH   9  10
ENDBRANCH   8   9
ENDBRANCH   7   8
ENDBRANCH   5   6
ENDBRANCH   1   5
BRANCH   2  17
HETATM   17  C   UNL     1      42.371 -11.740   2.510  1.00  0.00     0.120 A 
HETATM   18  N   UNL     1      42.059 -10.577   1.865  1.00  0.00    -0.272 N 
HETATM   19  H   UNL     1      42.397  -9.647   2.094  1.00  0.00     0.189 HD
HETATM   20  N   UNL     1      41.216 -10.726   0.835  1.00  0.00    -0.174 NA
HETATM   21  C   UNL     1      40.950 -12.043   0.796  1.00  0.00     0.089 A 
HETATM   22  C   UNL     1      41.666 -12.714   1.830  1.00  0.00     0.071 A 
BRANCH  21  23
HETATM   23  C   UNL     1      40.031 -12.612  -0.200  1.00  0.00    -0.006 A 
HETATM   24  C   UNL     1      38.946 -11.859  -0.679  1.00  0.00     0.014 A 
HETATM   25  C   UNL     1      38.058 -12.390  -1.619  1.00  0.00     0.001 A 
HETATM   26  C   UNL     1      38.242 -13.684  -2.095  1.00  0.00     0.000 A 
HETATM   27  C   UNL     1      39.312 -14.447  -1.634  1.00  0.00     0.001 A 
HETATM   28  C   UNL     1      40.201 -13.915  -0.692  1.00  0.00     0.014 A 
ENDBRANCH  21  23
ENDBRANCH   2  17
TORSDOF 7
ENDMDL
MODEL 9
REMARK VINA RESULT:      -7.7      2.528      8.302
REMARK  7 active torsions:
REMARK  status: ('A' for Active; 'I' for Inactive)
REMARK    1  A    between atoms: C_3  and  O_4 
REMARK    2  A    between atoms: O_4  and  C_5 
REMARK    3  A    between atoms: C_5  and  C_6 
REMARK    4  A    between atoms: C_7  and  C_8 
REMARK    5  A    between atoms: C_8  and  N_9 
REMARK       I    between atoms: N_9  and  C_10 
REMARK    6  A    between atoms: C_10  and  C_11 
REMARK    7  A    between atoms: C_15  and  C_16 
ROOT
HETATM    1  N   UNL     1      41.915 -12.616   2.090  1.00  0.00    -0.345 N 
HETATM    2  C   UNL     1      42.847 -13.183   2.922  1.00  0.00     0.270 C 
HETATM    3  O   UNL     1      43.454 -12.549   3.778  1.00  0.00    -0.266 OA
HETATM    4  H   UNL     1      41.364 -13.205   1.487  1.00  0.00     0.163 HD
ENDROOT
BRANCH   1   5
HETATM    5  C   UNL     1      41.521 -11.235   2.213  1.00  0.00     0.217 C 
BRANCH   5   6
HETATM    6  C   UNL     1      41.311 -10.656   0.884  1.00  0.00    -0.085 C 
HETATM    7  C   UNL     1      41.140 -10.157  -0.197  1.00  0.00    -0.078 C 
BRANCH   7   8
HETATM    8  C   UNL     1      40.937  -9.519  -1.506  1.00  0.00     0.269 C 
BRANCH   8   9
HETATM    9  O   UNL     1      39.769 -10.070  -2.107  1.00  0.00    -0.339 OA
BRANCH   9  10
HETATM   10  C   UNL     1      39.725 -11.429  -2.283  1.00  0.00     0.075 A 
HETATM   11  C   UNL     1      38.600 -12.077  -1.741  1.00  0.00    -0.029 A 
HETATM   12  C   UNL     1      37.541 -11.313  -0.994  1.00  0.00     0.051 C 
HETATM   13  C   UNL     1      38.488 -13.473  -1.851  1.00  0.00     0.009 A 
HETATM   14  C   UNL     1      39.467 -14.213  -2.509  1.00  0.00     0.001 A 
HETATM   15  C   UNL     1      40.574 -13.568  -3.053  1.00  0.00     0.003 A 
HETATM   16  C   UNL     1      40.705 -12.182  -2.937  1.00  0.00     0.037 A 
ENDBRANCH   9  10
ENDBRANCH   8   9
ENDBRANCH   7   8
ENDBRANCH   5   6
ENDBRANCH   1   5
BRANCH   2  17
HETATM   17  C   UNL     1      43.075 -14.589   2.718  1.00  0.00     0.120 A 
HETATM   18  N   UNL     1      43.179 -15.117   1.463  1.00  0.00    -0.272 N 
HETATM   19  H   UNL     1      43.118 -14.610   0.585  1.00  0.00     0.189 HD
HETATM   20  N   UNL     1      43.374 -16.442   1.436  1.00  0.00    -0.174 NA
HETATM   21  C   UNL     1      43.396 -16.813   2.727  1.00  0.00     0.089 A 
HETATM   22  C   UNL     1      43.219 -15.672   3.563  1.00  0.00     0.071 A 
BRANCH  21  23
HETATM   23  C   UNL     1      43.571 -18.218   3.121  1.00  0.00    -0.006 A 
HETATM   24  C   UNL     1      43.979 -18.545   4.425  1.00  0.00     0.014 A 
HETATM   25  C   UNL     1      44.159 -19.876   4.812  1.00  0.00     0.001 A 
HETATM   26  C   UNL     1      43.934 -20.902   3.899  1.00  0.00     0.000 A 
HETATM   27  C   UNL     1      43.528 -20.599   2.601  1.00  0.00     0.001 A 
HETATM   28  C   UNL     1      43.348 -19.265   2.214  1.00  0.00     0.014 A 
ENDBRANCH  21  23
ENDBRANCH   2  17
TORSDOF 7
ENDMDL
MODEL 10
REMARK VINA RESULT:      -7.6      5.970      9.368
REMARK  7 active torsions:
REMARK  status: ('A' for Active; 'I' for Inactive)
REMARK    1  A    between atoms: C_3  and  O_4 
REMARK    2  A    between atoms: O_4  and  C_5 
REMARK    3  A    between atoms: C_5  and  C_6 
REMARK    4  A    between atoms: C_7  and  C_8 
REMARK    5  A    between atoms: C_8  and  N_9 
REMARK       I    between atoms: N_9  and  C_10 
REMARK    6  A    between atoms: C_10  and  C_11 
REMARK    7  A    between atoms: C_15  and  C_16 
ROOT
HETATM    1  N   UNL     1      43.524 -10.851   6.283  1.00  0.00    -0.345 N 
HETATM    2  C   UNL     1      44.601 -11.118   7.090  1.00  0.00     0.270 C 
HETATM    3  O   UNL     1      45.564 -11.784   6.723  1.00  0.00    -0.266 OA
HETATM    4  H   UNL     1      42.818 -10.205   6.596  1.00  0.00     0.163 HD
ENDROOT
BRANCH   1   5
HETATM    5  C   UNL     1      43.479 -11.272   4.906  1.00  0.00     0.217 C 
BRANCH   5   6
HETATM    6  C   UNL     1      42.528 -12.376   4.753  1.00  0.00    -0.085 C 
HETATM    7  C   UNL     1      41.733 -13.272   4.648  1.00  0.00    -0.078 C 
BRANCH   7   8
HETATM    8  C   UNL     1      40.744 -14.354   4.541  1.00  0.00     0.269 C 
BRANCH   8   9
HETATM    9  O   UNL     1      41.277 -15.383   3.712  1.00  0.00    -0.339 OA
BRANCH   9  10
HETATM   10  C   UNL     1      42.135 -16.283   4.289  1.00  0.00     0.075 A 
HETATM   11  C   UNL     1      43.103 -16.838   3.432  1.00  0.00    -0.029 A 
HETATM   12  C   UNL     1      43.155 -16.475   1.974  1.00  0.00     0.051 C 
HETATM   13  C   UNL     1      44.004 -17.790   3.934  1.00  0.00     0.009 A 
HETATM   14  C   UNL     1      43.961 -18.172   5.273  1.00  0.00     0.001 A 
HETATM   15  C   UNL     1      43.009 -17.615   6.121  1.00  0.00     0.003 A 
HETATM   16  C   UNL     1      42.096 -16.677   5.631  1.00  0.00     0.037 A 
ENDBRANCH   9  10
ENDBRANCH   8   9
ENDBRANCH   7   8
ENDBRANCH   5   6
ENDBRANCH   1   5
BRANCH   2  17
HETATM   17  C   UNL     1      44.525 -10.568   8.417  1.00  0.00     0.120 A 
HETATM   18  N   UNL     1      45.650 -10.206   9.102  1.00  0.00    -0.272 N 
HETATM   19  H   UNL     1      46.608 -10.272   8.772  1.00  0.00     0.189 HD
HETATM   20  N   UNL     1      45.417  -9.725  10.331  1.00  0.00    -0.174 NA
HETATM   21  C   UNL     1      44.082  -9.775  10.472  1.00  0.00     0.089 A 
HETATM   22  C   UNL     1      43.487 -10.292   9.285  1.00  0.00     0.071 A 
BRANCH  21  23
HETATM   23  C   UNL     1      43.425  -9.346  11.715  1.00  0.00    -0.006 A 
HETATM   24  C   UNL     1      43.702  -8.084  12.266  1.00  0.00     0.014 A 
HETATM   25  C   UNL     1      43.092  -7.665  13.452  1.00  0.00     0.001 A 
HETATM   26  C   UNL     1      42.193  -8.503  14.106  1.00  0.00     0.000 A 
HETATM   27  C   UNL     1      41.904  -9.759  13.574  1.00  0.00     0.001 A 
HETATM   28  C   UNL     1      42.516 -10.177  12.387  1.00  0.00     0.014 A 
ENDBRANCH  21  23
ENDBRANCH   2  17
TORSDOF 7
ENDMDL
