MODEL 1
REMARK VINA RESULT:      -9.8      0.000      0.000
REMARK  9 active torsions:
REMARK  status: ('A' for Active; 'I' for Inactive)
REMARK    1  A    between atoms: C_2  and  C_3 
REMARK    2  A    between atoms: C_3  and  O_4 
REMARK    3  A    between atoms: O_4  and  C_5 
REMARK    4  A    between atoms: C_6  and  C_7 
REMARK    5  A    between atoms: C_7  and  N_8 
REMARK    6  A    between atoms: C_17  and  C_18 
REMARK    7  A    between atoms: C_18  and  N_19 
REMARK    8  A    between atoms: C_23  and  O_24 
REMARK    9  A    between atoms: C_23  and  C_25 
ROOT
HETATM    1  N   UNL     1      41.910 -16.089   3.114  1.00  0.00    -0.061 N 
HETATM    2  H   UNL     1      41.334 -16.924   3.269  1.00  0.00     0.280 HD
HETATM    3  C   UNL     1      41.402 -15.081   4.119  1.00  0.00     0.276 C 
HETATM    4  C   UNL     1      42.174 -13.794   4.204  1.00  0.00     0.002 A 
HETATM    5  C   UNL     1      42.219 -12.934   3.106  1.00  0.00     0.076 A 
HETATM    6  O   UNL     1      41.587 -13.254   1.937  1.00  0.00    -0.349 OA
HETATM    7  C   UNL     1      42.240 -14.346   1.272  1.00  0.00     0.203 C 
HETATM    8  C   UNL     1      41.621 -15.690   1.674  1.00  0.00     0.262 C 
HETATM    9  C   UNL     1      42.834 -13.407   5.385  1.00  0.00     0.020 A 
HETATM   10  C   UNL     1      43.533 -12.187   5.464  1.00  0.00    -0.032 A 
HETATM   11  C   UNL     1      43.521 -11.331   4.352  1.00  0.00     0.011 A 
HETATM   12  C   UNL     1      42.857 -11.700   3.183  1.00  0.00     0.038 A 
ENDROOT
BRANCH  10  13
HETATM   13  C   UNL     1      44.322 -11.814   6.695  1.00  0.00     0.273 C 
BRANCH  13  14
HETATM   14  N   UNL     1      44.286 -10.342   7.053  1.00  0.00    -0.067 N 
HETATM   15  H   UNL     1      44.737  -9.837   6.277  1.00  0.00     0.280 HD
HETATM   16  C   UNL     1      42.876  -9.817   7.175  1.00  0.00     0.238 C 
HETATM   17  C   UNL     1      42.880  -8.355   7.596  1.00  0.00     0.071 C 
HETATM   18  C   UNL     1      43.657  -8.110   8.905  1.00  0.00     0.089 C 
HETATM   19  C   UNL     1      45.091  -8.611   8.647  1.00  0.00     0.071 C 
HETATM   20  C   UNL     1      45.116 -10.086   8.293  1.00  0.00     0.238 C 
BRANCH  18  21
HETATM   21  O   UNL     1      43.745  -6.694   9.060  1.00  0.00    -0.385 OA
HETATM   22  H   UNL     1      42.963  -6.259   8.669  1.00  0.00     0.211 HD
ENDBRANCH  18  21
BRANCH  18  23
HETATM   23  C   UNL     1      43.028  -8.695  10.166  1.00  0.00    -0.006 A 
HETATM   24  C   UNL     1      41.708  -9.141  10.214  1.00  0.00     0.126 A 
HETATM   25  N   UNL     1      41.130  -9.731  11.283  1.00  0.00    -0.272 NA
HETATM   26  C   UNL     1      41.857  -9.811  12.414  1.00  0.00     0.116 A 
HETATM   27  C   UNL     1      43.151  -9.341  12.510  1.00  0.00     0.020 A 
HETATM   28  C   UNL     1      43.737  -8.776  11.377  1.00  0.00     0.013 A 
ENDBRANCH  18  23
ENDBRANCH  13  14
ENDBRANCH  10  13
BRANCH   1  29
HETATM   29  C   UNL     1      43.341 -16.558   3.331  1.00  0.00     0.276 C 
BRANCH  29  30
HETATM   30  C   UNL     1      43.509 -18.058   3.388  1.00  0.00     0.001 A 
HETATM   31  C   UNL     1      43.935 -18.697   4.571  1.00  0.00     0.077 A 
HETATM   32  C   UNL     1      44.071 -20.087   4.595  1.00  0.00     0.037 A 
HETATM   33  C   UNL     1      43.792 -20.845   3.456  1.00  0.00     0.003 A 
HETATM   34  C   UNL     1      43.393 -20.221   2.280  1.00  0.00     0.001 A 
HETATM   35  C   UNL     1      43.263 -18.834   2.239  1.00  0.00     0.012 A 
BRANCH  31  36
HETATM   36  O   UNL     1      44.191 -17.869   5.632  1.00  0.00    -0.347 OA
BRANCH  36  37
HETATM   37  C   UNL     1      43.382 -17.943   6.809  1.00  0.00     0.202 C 
BRANCH  37  38
HETATM   38  C   UNL     1      42.697 -16.643   7.087  1.00  0.00    -0.011 C 
HETATM   39  C   UNL     1      43.109 -15.749   7.996  1.00  0.00     0.009 C 
ENDBRANCH  37  38
ENDBRANCH  36  37
ENDBRANCH  31  36
ENDBRANCH  29  30
ENDBRANCH   1  29
TORSDOF 9
ENDMDL
MODEL 2
REMARK VINA RESULT:      -8.9      1.897      2.295
REMARK  9 active torsions:
REMARK  status: ('A' for Active; 'I' for Inactive)
REMARK    1  A    between atoms: C_2  and  C_3 
REMARK    2  A    between atoms: C_3  and  O_4 
REMARK    3  A    between atoms: O_4  and  C_5 
REMARK    4  A    between atoms: C_6  and  C_7 
REMARK    5  A    between atoms: C_7  and  N_8 
REMARK    6  A    between atoms: C_17  and  C_18 
REMARK    7  A    between atoms: C_18  and  N_19 
REMARK    8  A    between atoms: C_23  and  O_24 
REMARK    9  A    between atoms: C_23  and  C_25 
ROOT
HETATM    1  N   UNL     1      41.017 -15.225   2.206  1.00  0.00    -0.061 N 
HETATM    2  H   UNL     1      40.826 -16.233   2.179  1.00  0.00     0.280 HD
HETATM    3  C   UNL     1      39.867 -14.638   2.992  1.00  0.00     0.276 C 
HETATM    4  C   UNL     1      39.967 -13.171   3.305  1.00  0.00     0.002 A 
HETATM    5  C   UNL     1      39.963 -12.236   2.270  1.00  0.00     0.076 A 
HETATM    6  O   UNL     1      39.892 -12.633   0.964  1.00  0.00    -0.349 OA
HETATM    7  C   UNL     1      41.103 -13.280   0.547  1.00  0.00     0.203 C 
HETATM    8  C   UNL     1      41.017 -14.798   0.745  1.00  0.00     0.262 C 
HETATM    9  C   UNL     1      40.033 -12.703   4.631  1.00  0.00     0.020 A 
HETATM   10  C   UNL     1      40.100 -11.326   4.916  1.00  0.00    -0.032 A 
HETATM   11  C   UNL     1      40.052 -10.415   3.849  1.00  0.00     0.011 A 
HETATM   12  C   UNL     1      39.973 -10.870   2.534  1.00  0.00     0.038 A 
ENDROOT
BRANCH  10  13
HETATM   13  C   UNL     1      40.267 -10.825   6.329  1.00  0.00     0.273 C 
BRANCH  13  14
HETATM   14  N   UNL     1      41.495  -9.969   6.560  1.00  0.00    -0.067 N 
HETATM   15  H   UNL     1      41.760  -9.577   5.645  1.00  0.00     0.280 HD
HETATM   16  C   UNL     1      41.219  -8.808   7.485  1.00  0.00     0.238 C 
HETATM   17  C   UNL     1      42.488  -8.009   7.742  1.00  0.00     0.071 C 
HETATM   18  C   UNL     1      43.637  -8.873   8.298  1.00  0.00     0.089 C 
HETATM   19  C   UNL     1      43.885  -9.974   7.249  1.00  0.00     0.071 C 
HETATM   20  C   UNL     1      42.651 -10.828   7.028  1.00  0.00     0.238 C 
BRANCH  18  21
HETATM   21  O   UNL     1      44.799  -8.043   8.295  1.00  0.00    -0.385 OA
HETATM   22  H   UNL     1      45.172  -7.983   7.396  1.00  0.00     0.211 HD
ENDBRANCH  18  21
BRANCH  18  23
HETATM   23  C   UNL     1      43.435  -9.415   9.709  1.00  0.00    -0.006 A 
HETATM   24  C   UNL     1      43.966 -10.633  10.133  1.00  0.00     0.126 A 
HETATM   25  N   UNL     1      43.876 -11.120  11.390  1.00  0.00    -0.272 NA
HETATM   26  C   UNL     1      43.143 -10.417  12.274  1.00  0.00     0.116 A 
HETATM   27  C   UNL     1      42.512  -9.232  11.954  1.00  0.00     0.020 A 
HETATM   28  C   UNL     1      42.658  -8.732  10.660  1.00  0.00     0.013 A 
ENDBRANCH  18  23
ENDBRANCH  13  14
ENDBRANCH  10  13
BRANCH   1  29
HETATM   29  C   UNL     1      42.382 -15.105   2.866  1.00  0.00     0.276 C 
BRANCH  29  30
HETATM   30  C   UNL     1      43.018 -16.423   3.237  1.00  0.00     0.001 A 
HETATM   31  C   UNL     1      43.605 -16.615   4.506  1.00  0.00     0.077 A 
HETATM   32  C   UNL     1      44.177 -17.849   4.824  1.00  0.00     0.037 A 
HETATM   33  C   UNL     1      44.173 -18.891   3.894  1.00  0.00     0.003 A 
HETATM   34  C   UNL     1      43.617 -18.703   2.633  1.00  0.00     0.001 A 
HETATM   35  C   UNL     1      43.052 -17.474   2.300  1.00  0.00     0.012 A 
BRANCH  31  36
HETATM   36  O   UNL     1      43.566 -15.534   5.346  1.00  0.00    -0.347 OA
BRANCH  36  37
HETATM   37  C   UNL     1      43.055 -15.678   6.674  1.00  0.00     0.202 C 
BRANCH  37  38
HETATM   38  C   UNL     1      41.636 -15.217   6.769  1.00  0.00    -0.011 C 
HETATM   39  C   UNL     1      40.575 -15.955   6.414  1.00  0.00     0.009 C 
ENDBRANCH  37  38
ENDBRANCH  36  37
ENDBRANCH  31  36
ENDBRANCH  29  30
ENDBRANCH   1  29
TORSDOF 9
ENDMDL
MODEL 3
REMARK VINA RESULT:      -8.9      1.996      3.417
REMARK  9 active torsions:
REMARK  status: ('A' for Active; 'I' for Inactive)
REMARK    1  A    between atoms: C_2  and  C_3 
REMARK    2  A    between atoms: C_3  and  O_4 
REMARK    3  A    between atoms: O_4  and  C_5 
REMARK    4  A    between atoms: C_6  and  C_7 
REMARK    5  A    between atoms: C_7  and  N_8 
REMARK    6  A    between atoms: C_17  and  C_18 
REMARK    7  A    between atoms: C_18  and  N_19 
REMARK    8  A    between atoms: C_23  and  O_24 
REMARK    9  A    between atoms: C_23  and  C_25 
ROOT
HETATM    1  N   UNL     1      41.362 -15.008   2.574  1.00  0.00    -0.061 N 
HETATM    2  H   UNL     1      41.439 -16.029   2.628  1.00  0.00     0.280 HD
HETATM    3  C   UNL     1      40.181 -14.664   3.451  1.00  0.00     0.276 C 
HETATM    4  C   UNL     1      39.926 -13.198   3.664  1.00  0.00     0.002 A 
HETATM    5  C   UNL     1      39.580 -12.386   2.583  1.00  0.00     0.076 A 
HETATM    6  O   UNL     1      39.489 -12.900   1.320  1.00  0.00    -0.349 OA
HETATM    7  C   UNL     1      40.781 -13.255   0.805  1.00  0.00     0.203 C 
HETATM    8  C   UNL     1      41.112 -14.722   1.100  1.00  0.00     0.262 C 
HETATM    9  C   UNL     1      39.995 -12.616   4.944  1.00  0.00     0.020 A 
HETATM   10  C   UNL     1      39.729 -11.247   5.137  1.00  0.00    -0.032 A 
HETATM   11  C   UNL     1      39.344 -10.473   4.032  1.00  0.00     0.011 A 
HETATM   12  C   UNL     1      39.260 -11.045   2.763  1.00  0.00     0.038 A 
ENDROOT
BRANCH  10  13
HETATM   13  C   UNL     1      39.895 -10.600   6.491  1.00  0.00     0.273 C 
BRANCH  13  14
HETATM   14  N   UNL     1      41.172  -9.804   6.663  1.00  0.00    -0.067 N 
HETATM   15  H   UNL     1      41.399  -9.403   5.742  1.00  0.00     0.280 HD
HETATM   16  C   UNL     1      41.005  -8.654   7.626  1.00  0.00     0.238 C 
HETATM   17  C   UNL     1      42.322  -7.918   7.822  1.00  0.00     0.071 C 
HETATM   18  C   UNL     1      43.463  -8.844   8.289  1.00  0.00     0.089 C 
HETATM   19  C   UNL     1      43.597  -9.931   7.204  1.00  0.00     0.071 C 
HETATM   20  C   UNL     1      42.314 -10.724   7.042  1.00  0.00     0.238 C 
BRANCH  18  21
HETATM   21  O   UNL     1      44.658  -8.067   8.232  1.00  0.00    -0.385 OA
HETATM   22  H   UNL     1      44.561  -7.253   8.761  1.00  0.00     0.211 HD
ENDBRANCH  18  21
BRANCH  18  23
HETATM   23  C   UNL     1      43.322  -9.409   9.699  1.00  0.00    -0.006 A 
HETATM   24  C   UNL     1      43.912 -10.609  10.093  1.00  0.00     0.126 A 
HETATM   25  N   UNL     1      43.876 -11.113  11.346  1.00  0.00    -0.272 NA
HETATM   26  C   UNL     1      43.140 -10.449  12.258  1.00  0.00     0.116 A 
HETATM   27  C   UNL     1      42.454  -9.287  11.970  1.00  0.00     0.020 A 
HETATM   28  C   UNL     1      42.545  -8.768  10.678  1.00  0.00     0.013 A 
ENDBRANCH  18  23
ENDBRANCH  13  14
ENDBRANCH  10  13
BRANCH   1  29
HETATM   29  C   UNL     1      42.707 -14.492   3.064  1.00  0.00     0.276 C 
BRANCH  29  30
HETATM   30  C   UNL     1      43.172 -15.092   4.370  1.00  0.00     0.001 A 
HETATM   31  C   UNL     1      43.531 -16.453   4.456  1.00  0.00     0.077 A 
HETATM   32  C   UNL     1      43.968 -16.976   5.676  1.00  0.00     0.037 A 
HETATM   33  C   UNL     1      44.047 -16.162   6.807  1.00  0.00     0.003 A 
HETATM   34  C   UNL     1      43.673 -14.825   6.736  1.00  0.00     0.001 A 
HETATM   35  C   UNL     1      43.227 -14.292   5.528  1.00  0.00     0.012 A 
BRANCH  31  36
HETATM   36  O   UNL     1      43.414 -17.171   3.297  1.00  0.00    -0.347 OA
BRANCH  36  37
HETATM   37  C   UNL     1      43.925 -18.505   3.225  1.00  0.00     0.202 C 
BRANCH  37  38
HETATM   38  C   UNL     1      43.255 -19.293   2.146  1.00  0.00    -0.011 C 
HETATM   39  C   UNL     1      43.600 -20.539   1.793  1.00  0.00     0.009 C 
ENDBRANCH  37  38
ENDBRANCH  36  37
ENDBRANCH  31  36
ENDBRANCH  29  30
ENDBRANCH   1  29
TORSDOF 9
ENDMDL
MODEL 4
REMARK VINA RESULT:      -8.5      3.964      9.718
REMARK  9 active torsions:
REMARK  status: ('A' for Active; 'I' for Inactive)
REMARK    1  A    between atoms: C_2  and  C_3 
REMARK    2  A    between atoms: C_3  and  O_4 
REMARK    3  A    between atoms: O_4  and  C_5 
REMARK    4  A    between atoms: C_6  and  C_7 
REMARK    5  A    between atoms: C_7  and  N_8 
REMARK    6  A    between atoms: C_17  and  C_18 
REMARK    7  A    between atoms: C_18  and  N_19 
REMARK    8  A    between atoms: C_23  and  O_24 
REMARK    9  A    between atoms: C_23  and  C_25 
ROOT
HETATM    1  N   UNL     1      42.749 -13.823   6.750  1.00  0.00    -0.061 N 
HETATM    2  H   UNL     1      42.695 -13.393   7.680  1.00  0.00     0.280 HD
HETATM    3  C   UNL     1      41.309 -14.052   6.350  1.00  0.00     0.276 C 
HETATM    4  C   UNL     1      41.089 -14.554   4.951  1.00  0.00     0.002 A 
HETATM    5  C   UNL     1      41.573 -15.807   4.575  1.00  0.00     0.076 A 
HETATM    6  O   UNL     1      42.271 -16.584   5.457  1.00  0.00    -0.349 OA
HETATM    7  C   UNL     1      43.563 -16.025   5.738  1.00  0.00     0.203 C 
HETATM    8  C   UNL     1      43.518 -15.117   6.972  1.00  0.00     0.262 C 
HETATM    9  C   UNL     1      40.369 -13.802   4.003  1.00  0.00     0.020 A 
HETATM   10  C   UNL     1      40.145 -14.291   2.702  1.00  0.00    -0.032 A 
HETATM   11  C   UNL     1      40.613 -15.573   2.374  1.00  0.00     0.011 A 
HETATM   12  C   UNL     1      41.314 -16.330   3.312  1.00  0.00     0.038 A 
ENDROOT
BRANCH  10  13
HETATM   13  C   UNL     1      39.458 -13.448   1.655  1.00  0.00     0.273 C 
BRANCH  13  14
HETATM   14  N   UNL     1      40.179 -13.373   0.325  1.00  0.00    -0.067 N 
HETATM   15  H   UNL     1      41.071 -13.876   0.442  1.00  0.00     0.280 HD
HETATM   16  C   UNL     1      39.415 -14.061  -0.780  1.00  0.00     0.238 C 
HETATM   17  C   UNL     1      40.138 -13.910  -2.111  1.00  0.00     0.071 C 
HETATM   18  C   UNL     1      40.408 -12.438  -2.483  1.00  0.00     0.089 C 
HETATM   19  C   UNL     1      41.251 -11.857  -1.330  1.00  0.00     0.071 C 
HETATM   20  C   UNL     1      40.518 -11.934  -0.004  1.00  0.00     0.238 C 
BRANCH  18  21
HETATM   21  O   UNL     1      41.256 -12.464  -3.631  1.00  0.00    -0.385 OA
HETATM   22  H   UNL     1      42.188 -12.342  -3.369  1.00  0.00     0.211 HD
ENDBRANCH  18  21
BRANCH  18  23
HETATM   23  C   UNL     1      39.176 -11.602  -2.813  1.00  0.00    -0.006 A 
HETATM   24  C   UNL     1      39.257 -10.308  -3.327  1.00  0.00     0.126 A 
HETATM   25  N   UNL     1      38.199  -9.557  -3.702  1.00  0.00    -0.272 NA
HETATM   26  C   UNL     1      36.971 -10.064  -3.478  1.00  0.00     0.116 A 
HETATM   27  C   UNL     1      36.762 -11.304  -2.912  1.00  0.00     0.020 A 
HETATM   28  C   UNL     1      37.874 -12.075  -2.574  1.00  0.00     0.013 A 
ENDBRANCH  18  23
ENDBRANCH  13  14
ENDBRANCH  10  13
BRANCH   1  29
HETATM   29  C   UNL     1      43.505 -12.814   5.898  1.00  0.00     0.276 C 
BRANCH  29  30
HETATM   30  C   UNL     1      44.115 -11.669   6.672  1.00  0.00     0.001 A 
HETATM   31  C   UNL     1      43.313 -10.619   7.168  1.00  0.00     0.077 A 
HETATM   32  C   UNL     1      43.905  -9.580   7.889  1.00  0.00     0.037 A 
HETATM   33  C   UNL     1      45.282  -9.573   8.119  1.00  0.00     0.003 A 
HETATM   34  C   UNL     1      46.082 -10.592   7.614  1.00  0.00     0.001 A 
HETATM   35  C   UNL     1      45.506 -11.630   6.885  1.00  0.00     0.012 A 
BRANCH  31  36
HETATM   36  O   UNL     1      41.976 -10.712   6.887  1.00  0.00    -0.347 OA
BRANCH  36  37
HETATM   37  C   UNL     1      41.333  -9.690   6.120  1.00  0.00     0.202 C 
BRANCH  37  38
HETATM   38  C   UNL     1      40.985 -10.170   4.747  1.00  0.00    -0.011 C 
HETATM   39  C   UNL     1      41.865 -10.297   3.745  1.00  0.00     0.009 C 
ENDBRANCH  37  38
ENDBRANCH  36  37
ENDBRANCH  31  36
ENDBRANCH  29  30
ENDBRANCH   1  29
TORSDOF 9
ENDMDL
MODEL 5
REMARK VINA RESULT:      -8.4      2.268      9.913
REMARK  9 active torsions:
REMARK  status: ('A' for Active; 'I' for Inactive)
REMARK    1  A    between atoms: C_2  and  C_3 
REMARK    2  A    between atoms: C_3  and  O_4 
REMARK    3  A    between atoms: O_4  and  C_5 
REMARK    4  A    between atoms: C_6  and  C_7 
REMARK    5  A    between atoms: C_7  and  N_8 
REMARK    6  A    between atoms: C_17  and  C_18 
REMARK    7  A    between atoms: C_18  and  N_19 
REMARK    8  A    between atoms: C_23  and  O_24 
REMARK    9  A    between atoms: C_23  and  C_25 
ROOT
HETATM    1  N   UNL     1      41.578  -8.326   8.764  1.00  0.00    -0.061 N 
HETATM    2  H   UNL     1      42.405  -7.816   9.094  1.00  0.00     0.280 HD
HETATM    3  C   UNL     1      41.978  -8.866   7.410  1.00  0.00     0.276 C 
HETATM    4  C   UNL     1      40.986  -9.783   6.750  1.00  0.00     0.002 A 
HETATM    5  C   UNL     1      39.731  -9.302   6.380  1.00  0.00     0.076 A 
HETATM    6  O   UNL     1      39.374  -8.006   6.628  1.00  0.00    -0.349 OA
HETATM    7  C   UNL     1      39.191  -7.773   8.033  1.00  0.00     0.203 C 
HETATM    8  C   UNL     1      40.485  -7.271   8.684  1.00  0.00     0.262 C 
HETATM    9  C   UNL     1      41.302 -11.124   6.461  1.00  0.00     0.020 A 
HETATM   10  C   UNL     1      40.376 -11.969   5.819  1.00  0.00    -0.032 A 
HETATM   11  C   UNL     1      39.139 -11.437   5.426  1.00  0.00     0.011 A 
HETATM   12  C   UNL     1      38.824 -10.105   5.696  1.00  0.00     0.038 A 
ENDROOT
BRANCH  10  13
HETATM   13  C   UNL     1      40.675 -13.431   5.594  1.00  0.00     0.273 C 
BRANCH  13  14
HETATM   14  N   UNL     1      41.173 -13.773   4.205  1.00  0.00    -0.067 N 
HETATM   15  H   UNL     1      40.799 -13.053   3.570  1.00  0.00     0.280 HD
HETATM   16  C   UNL     1      42.678 -13.722   4.108  1.00  0.00     0.238 C 
HETATM   17  C   UNL     1      43.143 -14.131   2.718  1.00  0.00     0.071 C 
HETATM   18  C   UNL     1      42.627 -15.523   2.299  1.00  0.00     0.089 C 
HETATM   19  C   UNL     1      41.089 -15.441   2.362  1.00  0.00     0.071 C 
HETATM   20  C   UNL     1      40.601 -15.102   3.758  1.00  0.00     0.238 C 
BRANCH  18  21
HETATM   21  O   UNL     1      42.967 -15.678   0.922  1.00  0.00    -0.385 OA
HETATM   22  H   UNL     1      43.401 -14.871   0.585  1.00  0.00     0.211 HD
ENDBRANCH  18  21
BRANCH  18  23
HETATM   23  C   UNL     1      43.203 -16.703   3.074  1.00  0.00    -0.006 A 
HETATM   24  C   UNL     1      43.307 -17.984   2.531  1.00  0.00     0.126 A 
HETATM   25  N   UNL     1      43.875 -19.042   3.149  1.00  0.00    -0.272 NA
HETATM   26  C   UNL     1      44.289 -18.867   4.419  1.00  0.00     0.116 A 
HETATM   27  C   UNL     1      44.177 -17.665   5.087  1.00  0.00     0.020 A 
HETATM   28  C   UNL     1      43.625 -16.578   4.408  1.00  0.00     0.013 A 
ENDBRANCH  18  23
ENDBRANCH  13  14
ENDBRANCH  10  13
BRANCH   1  29
HETATM   29  C   UNL     1      41.319  -9.379   9.831  1.00  0.00     0.276 C 
BRANCH  29  30
HETATM   30  C   UNL     1      41.688  -8.956  11.233  1.00  0.00     0.001 A 
HETATM   31  C   UNL     1      43.013  -8.601  11.561  1.00  0.00     0.077 A 
HETATM   32  C   UNL     1      43.320  -8.204  12.865  1.00  0.00     0.037 A 
HETATM   33  C   UNL     1      42.326  -8.161  13.844  1.00  0.00     0.003 A 
HETATM   34  C   UNL     1      41.022  -8.532  13.535  1.00  0.00     0.001 A 
HETATM   35  C   UNL     1      40.704  -8.938  12.241  1.00  0.00     0.012 A 
BRANCH  31  36
HETATM   36  O   UNL     1      43.918  -8.681  10.536  1.00  0.00    -0.347 OA
BRANCH  36  37
HETATM   37  C   UNL     1      44.864  -9.752  10.498  1.00  0.00     0.202 C 
BRANCH  37  38
HETATM   38  C   UNL     1      45.578  -9.808   9.185  1.00  0.00    -0.011 C 
HETATM   39  C   UNL     1      45.644  -8.791   8.316  1.00  0.00     0.009 C 
ENDBRANCH  37  38
ENDBRANCH  36  37
ENDBRANCH  31  36
ENDBRANCH  29  30
ENDBRANCH   1  29
TORSDOF 9
ENDMDL
MODEL 6
REMARK VINA RESULT:      -8.3      3.219      6.259
REMARK  9 active torsions:
REMARK  status: ('A' for Active; 'I' for Inactive)
REMARK    1  A    between atoms: C_2  and  C_3 
REMARK    2  A    between atoms: C_3  and  O_4 
REMARK    3  A    between atoms: O_4  and  C_5 
REMARK    4  A    between atoms: C_6  and  C_7 
REMARK    5  A    between atoms: C_7  and  N_8 
REMARK    6  A    between atoms: C_17  and  C_18 
REMARK    7  A    between atoms: C_18  and  N_19 
REMARK    8  A    between atoms: C_23  and  O_24 
REMARK    9  A    between atoms: C_23  and  C_25 
ROOT
HETATM    1  N   UNL     1      43.643 -11.414   6.258  1.00  0.00    -0.061 N 
HETATM    2  H   UNL     1      43.193 -11.453   5.337  1.00  0.00     0.280 HD
HETATM    3  C   UNL     1      43.117 -10.145   6.888  1.00  0.00     0.276 C 
HETATM    4  C   UNL     1      43.514  -9.909   8.319  1.00  0.00     0.002 A 
HETATM    5  C   UNL     1      44.856  -9.721   8.648  1.00  0.00     0.076 A 
HETATM    6  O   UNL     1      45.828  -9.771   7.689  1.00  0.00    -0.349 OA
HETATM    7  C   UNL     1      46.004 -11.105   7.190  1.00  0.00     0.203 C 
HETATM    8  C   UNL     1      45.133 -11.354   5.954  1.00  0.00     0.262 C 
HETATM    9  C   UNL     1      42.555  -9.838   9.347  1.00  0.00     0.020 A 
HETATM   10  C   UNL     1      42.933  -9.591  10.681  1.00  0.00    -0.032 A 
HETATM   11  C   UNL     1      44.289  -9.367  10.966  1.00  0.00     0.011 A 
HETATM   12  C   UNL     1      45.243  -9.422   9.950  1.00  0.00     0.038 A 
ENDROOT
BRANCH  10  13
HETATM   13  C   UNL     1      41.920  -9.609  11.799  1.00  0.00     0.273 C 
BRANCH  13  14
HETATM   14  N   UNL     1      42.358  -8.905  13.067  1.00  0.00    -0.067 N 
HETATM   15  H   UNL     1      43.196  -9.399  13.406  1.00  0.00     0.280 HD
HETATM   16  C   UNL     1      42.750  -7.469  12.819  1.00  0.00     0.238 C 
HETATM   17  C   UNL     1      43.123  -6.779  14.122  1.00  0.00     0.071 C 
HETATM   18  C   UNL     1      42.004  -6.853  15.181  1.00  0.00     0.089 C 
HETATM   19  C   UNL     1      41.737  -8.353  15.411  1.00  0.00     0.071 C 
HETATM   20  C   UNL     1      41.295  -9.047  14.136  1.00  0.00     0.238 C 
BRANCH  18  21
HETATM   21  O   UNL     1      42.567  -6.352  16.393  1.00  0.00    -0.385 OA
HETATM   22  H   UNL     1      43.356  -6.869  16.642  1.00  0.00     0.211 HD
ENDBRANCH  18  21
BRANCH  18  23
HETATM   23  C   UNL     1      40.743  -6.053  14.869  1.00  0.00    -0.006 A 
HETATM   24  C   UNL     1      40.722  -5.008  13.946  1.00  0.00     0.126 A 
HETATM   25  N   UNL     1      39.618  -4.319  13.582  1.00  0.00    -0.272 NA
HETATM   26  C   UNL     1      38.471  -4.606  14.227  1.00  0.00     0.116 A 
HETATM   27  C   UNL     1      38.381  -5.572  15.209  1.00  0.00     0.020 A 
HETATM   28  C   UNL     1      39.529  -6.297  15.532  1.00  0.00     0.013 A 
ENDBRANCH  18  23
ENDBRANCH  13  14
ENDBRANCH  10  13
BRANCH   1  29
HETATM   29  C   UNL     1      43.223 -12.703   6.949  1.00  0.00     0.276 C 
BRANCH  29  30
HETATM   30  C   UNL     1      43.237 -13.925   6.063  1.00  0.00     0.001 A 
HETATM   31  C   UNL     1      42.548 -13.938   4.832  1.00  0.00     0.077 A 
HETATM   32  C   UNL     1      42.588 -15.080   4.029  1.00  0.00     0.037 A 
HETATM   33  C   UNL     1      43.303 -16.208   4.438  1.00  0.00     0.003 A 
HETATM   34  C   UNL     1      43.965 -16.212   5.661  1.00  0.00     0.001 A 
HETATM   35  C   UNL     1      43.925 -15.082   6.475  1.00  0.00     0.012 A 
BRANCH  31  36
HETATM   36  O   UNL     1      41.872 -12.789   4.520  1.00  0.00    -0.347 OA
BRANCH  36  37
HETATM   37  C   UNL     1      40.508 -12.853   4.093  1.00  0.00     0.202 C 
BRANCH  37  38
HETATM   38  C   UNL     1      39.565 -12.639   5.233  1.00  0.00    -0.011 C 
HETATM   39  C   UNL     1      39.746 -11.735   6.206  1.00  0.00     0.009 C 
ENDBRANCH  37  38
ENDBRANCH  36  37
ENDBRANCH  31  36
ENDBRANCH  29  30
ENDBRANCH   1  29
TORSDOF 9
ENDMDL
MODEL 7
REMARK VINA RESULT:      -8.3      3.896      9.630
REMARK  9 active torsions:
REMARK  status: ('A' for Active; 'I' for Inactive)
REMARK    1  A    between atoms: C_2  and  C_3 
REMARK    2  A    between atoms: C_3  and  O_4 
REMARK    3  A    between atoms: O_4  and  C_5 
REMARK    4  A    between atoms: C_6  and  C_7 
REMARK    5  A    between atoms: C_7  and  N_8 
REMARK    6  A    between atoms: C_17  and  C_18 
REMARK    7  A    between atoms: C_18  and  N_19 
REMARK    8  A    between atoms: C_23  and  O_24 
REMARK    9  A    between atoms: C_23  and  C_25 
ROOT
HETATM    1  N   UNL     1      42.900 -13.975   6.509  1.00  0.00    -0.061 N 
HETATM    2  H   UNL     1      42.851 -13.538   7.436  1.00  0.00     0.280 HD
HETATM    3  C   UNL     1      41.463 -14.281   6.153  1.00  0.00     0.276 C 
HETATM    4  C   UNL     1      41.229 -14.808   4.765  1.00  0.00     0.002 A 
HETATM    5  C   UNL     1      41.766 -16.039   4.386  1.00  0.00     0.076 A 
HETATM    6  O   UNL     1      42.527 -16.770   5.255  1.00  0.00    -0.349 OA
HETATM    7  C   UNL     1      43.796 -16.143   5.494  1.00  0.00     0.203 C 
HETATM    8  C   UNL     1      43.740 -15.226   6.720  1.00  0.00     0.262 C 
HETATM    9  C   UNL     1      40.445 -14.104   3.832  1.00  0.00     0.020 A 
HETATM   10  C   UNL     1      40.209 -14.618   2.542  1.00  0.00    -0.032 A 
HETATM   11  C   UNL     1      40.733 -15.877   2.213  1.00  0.00     0.011 A 
HETATM   12  C   UNL     1      41.498 -16.588   3.137  1.00  0.00     0.038 A 
ENDROOT
BRANCH  10  13
HETATM   13  C   UNL     1      39.451 -13.822   1.508  1.00  0.00     0.273 C 
BRANCH  13  14
HETATM   14  N   UNL     1      40.186 -13.613   0.201  1.00  0.00    -0.067 N 
HETATM   15  H   UNL     1      41.099 -14.081   0.295  1.00  0.00     0.280 HD
HETATM   16  C   UNL     1      39.471 -14.248  -0.967  1.00  0.00     0.238 C 
HETATM   17  C   UNL     1      40.206 -13.964  -2.269  1.00  0.00     0.071 C 
HETATM   18  C   UNL     1      40.411 -12.457  -2.524  1.00  0.00     0.089 C 
HETATM   19  C   UNL     1      41.210 -11.928  -1.316  1.00  0.00     0.071 C 
HETATM   20  C   UNL     1      40.462 -12.139  -0.013  1.00  0.00     0.238 C 
BRANCH  18  21
HETATM   21  O   UNL     1      41.276 -12.357  -3.655  1.00  0.00    -0.385 OA
HETATM   22  H   UNL     1      40.925 -12.881  -4.400  1.00  0.00     0.211 HD
ENDBRANCH  18  21
BRANCH  18  23
HETATM   23  C   UNL     1      39.146 -11.656  -2.813  1.00  0.00    -0.006 A 
HETATM   24  C   UNL     1      37.865 -12.179  -2.635  1.00  0.00     0.126 A 
HETATM   25  N   UNL     1      36.717 -11.488  -2.807  1.00  0.00    -0.272 NA
HETATM   26  C   UNL     1      36.819 -10.227  -3.271  1.00  0.00     0.116 A 
HETATM   27  C   UNL     1      38.028  -9.623  -3.550  1.00  0.00     0.020 A 
HETATM   28  C   UNL     1      39.198 -10.347  -3.322  1.00  0.00     0.013 A 
ENDBRANCH  18  23
ENDBRANCH  13  14
ENDBRANCH  10  13
BRANCH   1  29
HETATM   29  C   UNL     1      43.579 -12.938   5.626  1.00  0.00     0.276 C 
BRANCH  29  30
HETATM   30  C   UNL     1      42.933 -11.573   5.649  1.00  0.00     0.001 A 
HETATM   31  C   UNL     1      42.907 -10.801   6.829  1.00  0.00     0.077 A 
HETATM   32  C   UNL     1      42.311  -9.537   6.815  1.00  0.00     0.037 A 
HETATM   33  C   UNL     1      41.740  -9.038   5.643  1.00  0.00     0.003 A 
HETATM   34  C   UNL     1      41.741  -9.802   4.481  1.00  0.00     0.001 A 
HETATM   35  C   UNL     1      42.324 -11.067   4.484  1.00  0.00     0.012 A 
BRANCH  31  36
HETATM   36  O   UNL     1      43.486 -11.378   7.927  1.00  0.00    -0.347 OA
BRANCH  36  37
HETATM   37  C   UNL     1      44.439 -10.645   8.703  1.00  0.00     0.202 C 
BRANCH  37  38
HETATM   38  C   UNL     1      45.693 -10.385   7.930  1.00  0.00    -0.011 C 
HETATM   39  C   UNL     1      46.405  -9.253   8.003  1.00  0.00     0.009 C 
ENDBRANCH  37  38
ENDBRANCH  36  37
ENDBRANCH  31  36
ENDBRANCH  29  30
ENDBRANCH   1  29
TORSDOF 9
ENDMDL
MODEL 8
REMARK VINA RESULT:      -8.3      2.768      3.882
REMARK  9 active torsions:
REMARK  status: ('A' for Active; 'I' for Inactive)
REMARK    1  A    between atoms: C_2  and  C_3 
REMARK    2  A    between atoms: C_3  and  O_4 
REMARK    3  A    between atoms: O_4  and  C_5 
REMARK    4  A    between atoms: C_6  and  C_7 
REMARK    5  A    between atoms: C_7  and  N_8 
REMARK    6  A    between atoms: C_17  and  C_18 
REMARK    7  A    between atoms: C_18  and  N_19 
REMARK    8  A    between atoms: C_23  and  O_24 
REMARK    9  A    between atoms: C_23  and  C_25 
ROOT
HETATM    1  N   UNL     1      40.052 -13.521   4.053  1.00  0.00    -0.061 N 
HETATM    2  H   UNL     1      39.819 -14.515   4.152  1.00  0.00     0.280 HD
HETATM    3  C   UNL     1      39.545 -12.880   5.325  1.00  0.00     0.276 C 
HETATM    4  C   UNL     1      39.883 -11.427   5.508  1.00  0.00     0.002 A 
HETATM    5  C   UNL     1      39.376 -10.476   4.622  1.00  0.00     0.076 A 
HETATM    6  O   UNL     1      38.589 -10.847   3.569  1.00  0.00    -0.349 OA
HETATM    7  C   UNL     1      39.344 -11.558   2.576  1.00  0.00     0.203 C 
HETATM    8  C   UNL     1      39.290 -13.071   2.816  1.00  0.00     0.262 C 
HETATM    9  C   UNL     1      40.681 -10.986   6.581  1.00  0.00     0.020 A 
HETATM   10  C   UNL     1      40.971  -9.620   6.760  1.00  0.00    -0.032 A 
HETATM   11  C   UNL     1      40.410  -8.690   5.871  1.00  0.00     0.011 A 
HETATM   12  C   UNL     1      39.607  -9.118   4.814  1.00  0.00     0.038 A 
ENDROOT
BRANCH  10  13
HETATM   13  C   UNL     1      41.903  -9.153   7.851  1.00  0.00     0.273 C 
BRANCH  13  14
HETATM   14  N   UNL     1      41.601  -9.708   9.227  1.00  0.00    -0.067 N 
HETATM   15  H   UNL     1      41.480 -10.726   9.117  1.00  0.00     0.280 HD
HETATM   16  C   UNL     1      42.739  -9.492  10.195  1.00  0.00     0.238 C 
HETATM   17  C   UNL     1      42.375 -10.006  11.580  1.00  0.00     0.071 C 
HETATM   18  C   UNL     1      41.078  -9.378  12.130  1.00  0.00     0.089 C 
HETATM   19  C   UNL     1      39.975  -9.721  11.109  1.00  0.00     0.071 C 
HETATM   20  C   UNL     1      40.286  -9.156   9.736  1.00  0.00     0.238 C 
BRANCH  18  21
HETATM   21  O   UNL     1      40.762 -10.095  13.323  1.00  0.00    -0.385 OA
HETATM   22  H   UNL     1      40.596  -9.476  14.059  1.00  0.00     0.211 HD
ENDBRANCH  18  21
BRANCH  18  23
HETATM   23  C   UNL     1      41.153  -7.892  12.466  1.00  0.00    -0.006 A 
HETATM   24  C   UNL     1      40.059  -7.035  12.346  1.00  0.00     0.126 A 
HETATM   25  N   UNL     1      40.056  -5.731  12.699  1.00  0.00    -0.272 NA
HETATM   26  C   UNL     1      41.223  -5.200  13.112  1.00  0.00     0.116 A 
HETATM   27  C   UNL     1      42.390  -5.931  13.207  1.00  0.00     0.020 A 
HETATM   28  C   UNL     1      42.352  -7.286  12.877  1.00  0.00     0.013 A 
ENDBRANCH  18  23
ENDBRANCH  13  14
ENDBRANCH  10  13
BRANCH   1  29
HETATM   29  C   UNL     1      41.562 -13.493   3.871  1.00  0.00     0.276 C 
BRANCH  29  30
HETATM   30  C   UNL     1      42.146 -14.749   3.271  1.00  0.00     0.001 A 
HETATM   31  C   UNL     1      42.006 -15.996   3.918  1.00  0.00     0.077 A 
HETATM   32  C   UNL     1      42.549 -17.142   3.332  1.00  0.00     0.037 A 
HETATM   33  C   UNL     1      43.231 -17.061   2.117  1.00  0.00     0.003 A 
HETATM   34  C   UNL     1      43.393 -15.833   1.485  1.00  0.00     0.001 A 
HETATM   35  C   UNL     1      42.865 -14.680   2.063  1.00  0.00     0.012 A 
BRANCH  31  36
HETATM   36  O   UNL     1      41.328 -15.973   5.107  1.00  0.00    -0.347 OA
BRANCH  36  37
HETATM   37  C   UNL     1      41.966 -16.425   6.304  1.00  0.00     0.202 C 
BRANCH  37  38
HETATM   38  C   UNL     1      42.267 -15.290   7.228  1.00  0.00    -0.011 C 
HETATM   39  C   UNL     1      43.215 -14.368   7.011  1.00  0.00     0.009 C 
ENDBRANCH  37  38
ENDBRANCH  36  37
ENDBRANCH  31  36
ENDBRANCH  29  30
ENDBRANCH   1  29
TORSDOF 9
ENDMDL
MODEL 9
REMARK VINA RESULT:      -8.1      4.678      9.210
REMARK  9 active torsions:
REMARK  status: ('A' for Active; 'I' for Inactive)
REMARK    1  A    between atoms: C_2  and  C_3 
REMARK    2  A    between atoms: C_3  and  O_4 
REMARK    3  A    between atoms: O_4  and  C_5 
REMARK    4  A    between atoms: C_6  and  C_7 
REMARK    5  A    between atoms: C_7  and  N_8 
REMARK    6  A    between atoms: C_17  and  C_18 
REMARK    7  A    between atoms: C_18  and  N_19 
REMARK    8  A    between atoms: C_23  and  O_24 
REMARK    9  A    between atoms: C_23  and  C_25 
ROOT
HETATM    1  N   UNL     1      39.751 -11.724  -1.041  1.00  0.00    -0.061 N 
HETATM    2  H   UNL     1      40.102 -10.899  -1.540  1.00  0.00     0.280 HD
HETATM    3  C   UNL     1      40.834 -12.058  -0.042  1.00  0.00     0.276 C 
HETATM    4  C   UNL     1      40.514 -13.160   0.929  1.00  0.00     0.002 A 
HETATM    5  C   UNL     1      40.302 -14.459   0.465  1.00  0.00     0.076 A 
HETATM    6  O   UNL     1      40.358 -14.745  -0.870  1.00  0.00    -0.349 OA
HETATM    7  C   UNL     1      39.246 -14.173  -1.575  1.00  0.00     0.203 C 
HETATM    8  C   UNL     1      39.591 -12.783  -2.122  1.00  0.00     0.262 C 
HETATM    9  C   UNL     1      40.454 -12.926   2.316  1.00  0.00     0.020 A 
HETATM   10  C   UNL     1      40.179 -13.970   3.220  1.00  0.00    -0.032 A 
HETATM   11  C   UNL     1      40.012 -15.269   2.718  1.00  0.00     0.011 A 
HETATM   12  C   UNL     1      40.084 -15.512   1.347  1.00  0.00     0.038 A 
ENDROOT
BRANCH  10  13
HETATM   13  C   UNL     1      40.019 -13.705   4.697  1.00  0.00     0.273 C 
BRANCH  13  14
HETATM   14  N   UNL     1      41.129 -14.257   5.567  1.00  0.00    -0.067 N 
HETATM   15  H   UNL     1      41.165 -13.668   6.412  1.00  0.00     0.280 HD
HETATM   16  C   UNL     1      40.855 -15.672   6.016  1.00  0.00     0.238 C 
HETATM   17  C   UNL     1      42.018 -16.213   6.834  1.00  0.00     0.071 C 
HETATM   18  C   UNL     1      43.363 -16.142   6.083  1.00  0.00     0.089 C 
HETATM   19  C   UNL     1      43.578 -14.654   5.740  1.00  0.00     0.071 C 
HETATM   20  C   UNL     1      42.463 -14.113   4.866  1.00  0.00     0.238 C 
BRANCH  18  21
HETATM   21  O   UNL     1      44.371 -16.487   7.034  1.00  0.00    -0.385 OA
HETATM   22  H   UNL     1      45.011 -15.757   7.132  1.00  0.00     0.211 HD
ENDBRANCH  18  21
BRANCH  18  23
HETATM   23  C   UNL     1      43.499 -17.068   4.879  1.00  0.00    -0.006 A 
HETATM   24  C   UNL     1      43.926 -18.391   4.990  1.00  0.00     0.126 A 
HETATM   25  N   UNL     1      43.993 -19.270   3.966  1.00  0.00    -0.272 NA
HETATM   26  C   UNL     1      43.713 -18.804   2.733  1.00  0.00     0.116 A 
HETATM   27  C   UNL     1      43.346 -17.497   2.488  1.00  0.00     0.020 A 
HETATM   28  C   UNL     1      43.243 -16.623   3.571  1.00  0.00     0.013 A 
ENDBRANCH  18  23
ENDBRANCH  13  14
ENDBRANCH  10  13
BRANCH   1  29
HETATM   29  C   UNL     1      38.427 -11.278  -0.438  1.00  0.00     0.276 C 
BRANCH  29  30
HETATM   30  C   UNL     1      38.526 -10.086   0.483  1.00  0.00     0.001 A 
HETATM   31  C   UNL     1      39.126  -8.883   0.053  1.00  0.00     0.077 A 
HETATM   32  C   UNL     1      39.192  -7.794   0.925  1.00  0.00     0.037 A 
HETATM   33  C   UNL     1      38.673  -7.890   2.217  1.00  0.00     0.003 A 
HETATM   34  C   UNL     1      38.100  -9.078   2.656  1.00  0.00     0.001 A 
HETATM   35  C   UNL     1      38.036 -10.175   1.800  1.00  0.00     0.012 A 
BRANCH  31  36
HETATM   36  O   UNL     1      39.611  -8.889  -1.227  1.00  0.00    -0.347 OA
BRANCH  36  37
HETATM   37  C   UNL     1      40.613  -7.946  -1.618  1.00  0.00     0.202 C 
BRANCH  37  38
HETATM   38  C   UNL     1      41.963  -8.583  -1.705  1.00  0.00    -0.011 C 
HETATM   39  C   UNL     1      43.121  -7.925  -1.562  1.00  0.00     0.009 C 
ENDBRANCH  37  38
ENDBRANCH  36  37
ENDBRANCH  31  36
ENDBRANCH  29  30
ENDBRANCH   1  29
TORSDOF 9
ENDMDL
MODEL 10
REMARK VINA RESULT:      -8.0      2.412      9.963
REMARK  9 active torsions:
REMARK  status: ('A' for Active; 'I' for Inactive)
REMARK    1  A    between atoms: C_2  and  C_3 
REMARK    2  A    between atoms: C_3  and  O_4 
REMARK    3  A    between atoms: O_4  and  C_5 
REMARK    4  A    between atoms: C_6  and  C_7 
REMARK    5  A    between atoms: C_7  and  N_8 
REMARK    6  A    between atoms: C_17  and  C_18 
REMARK    7  A    between atoms: C_18  and  N_19 
REMARK    8  A    between atoms: C_23  and  O_24 
REMARK    9  A    between atoms: C_23  and  C_25 
ROOT
HETATM    1  N   UNL     1      43.268  -8.512   9.802  1.00  0.00    -0.061 N 
HETATM    2  H   UNL     1      42.605  -8.143  10.493  1.00  0.00     0.280 HD
HETATM    3  C   UNL     1      42.532  -9.653   9.138  1.00  0.00     0.276 C 
HETATM    4  C   UNL     1      43.231 -10.294   7.972  1.00  0.00     0.002 A 
HETATM    5  C   UNL     1      44.442 -10.959   8.165  1.00  0.00     0.076 A 
HETATM    6  O   UNL     1      45.021 -11.020   9.402  1.00  0.00    -0.349 OA
HETATM    7  C   UNL     1      45.513  -9.736   9.813  1.00  0.00     0.203 C 
HETATM    8  C   UNL     1      44.461  -8.973  10.627  1.00  0.00     0.262 C 
HETATM    9  C   UNL     1      42.678 -10.272   6.678  1.00  0.00     0.020 A 
HETATM   10  C   UNL     1      43.327 -10.898   5.596  1.00  0.00    -0.032 A 
HETATM   11  C   UNL     1      44.523 -11.591   5.839  1.00  0.00     0.011 A 
HETATM   12  C   UNL     1      45.070 -11.630   7.121  1.00  0.00     0.038 A 
ENDROOT
BRANCH  10  13
HETATM   13  C   UNL     1      42.787 -10.794   4.191  1.00  0.00     0.273 C 
BRANCH  13  14
HETATM   14  N   UNL     1      42.132 -12.055   3.667  1.00  0.00    -0.067 N 
HETATM   15  H   UNL     1      41.551 -11.776   2.863  1.00  0.00     0.280 HD
HETATM   16  C   UNL     1      43.141 -13.059   3.165  1.00  0.00     0.238 C 
HETATM   17  C   UNL     1      42.451 -14.335   2.705  1.00  0.00     0.071 C 
HETATM   18  C   UNL     1      41.568 -14.966   3.800  1.00  0.00     0.089 C 
HETATM   19  C   UNL     1      40.533 -13.889   4.183  1.00  0.00     0.071 C 
HETATM   20  C   UNL     1      41.199 -12.633   4.711  1.00  0.00     0.238 C 
BRANCH  18  21
HETATM   21  O   UNL     1      40.840 -16.019   3.169  1.00  0.00    -0.385 OA
HETATM   22  H   UNL     1      40.702 -15.820   2.224  1.00  0.00     0.211 HD
ENDBRANCH  18  21
BRANCH  18  23
HETATM   23  C   UNL     1      42.311 -15.545   4.999  1.00  0.00    -0.006 A 
HETATM   24  C   UNL     1      43.534 -16.206   4.881  1.00  0.00     0.126 A 
HETATM   25  N   UNL     1      44.264 -16.672   5.917  1.00  0.00    -0.272 NA
HETATM   26  C   UNL     1      43.727 -16.569   7.148  1.00  0.00     0.116 A 
HETATM   27  C   UNL     1      42.493 -15.997   7.384  1.00  0.00     0.020 A 
HETATM   28  C   UNL     1      41.781 -15.486   6.299  1.00  0.00     0.013 A 
ENDBRANCH  18  23
ENDBRANCH  13  14
ENDBRANCH  10  13
BRANCH   1  29
HETATM   29  C   UNL     1      43.585  -7.330   8.898  1.00  0.00     0.276 C 
BRANCH  29  30
HETATM   30  C   UNL     1      42.464  -6.328   8.757  1.00  0.00     0.001 A 
HETATM   31  C   UNL     1      41.958  -5.640   9.880  1.00  0.00     0.077 A 
HETATM   32  C   UNL     1      40.927  -4.712   9.715  1.00  0.00     0.037 A 
HETATM   33  C   UNL     1      40.395  -4.464   8.448  1.00  0.00     0.003 A 
HETATM   34  C   UNL     1      40.872  -5.155   7.340  1.00  0.00     0.001 A 
HETATM   35  C   UNL     1      41.893  -6.090   7.492  1.00  0.00     0.012 A 
BRANCH  31  36
HETATM   36  O   UNL     1      42.540  -5.955  11.078  1.00  0.00    -0.347 OA
BRANCH  36  37
HETATM   37  C   UNL     1      41.749  -5.998  12.269  1.00  0.00     0.202 C 
BRANCH  37  38
HETATM   38  C   UNL     1      42.584  -6.298  13.472  1.00  0.00    -0.011 C 
HETATM   39  C   UNL     1      43.107  -7.500  13.750  1.00  0.00     0.009 C 
ENDBRANCH  37  38
ENDBRANCH  36  37
ENDBRANCH  31  36
ENDBRANCH  29  30
ENDBRANCH   1  29
TORSDOF 9
ENDMDL
