MODEL 1
REMARK VINA RESULT:      -9.1      0.000      0.000
REMARK  8 active torsions:
REMARK  status: ('A' for Active; 'I' for Inactive)
REMARK    1  A    between atoms: C_12  and  S_13 
REMARK    2  A    between atoms: S_13  and  C_14 
REMARK    3  A    between atoms: C_14  and  C_15 
REMARK       I    between atoms: C_15  and  N_16 
REMARK    4  A    between atoms: N_16  and  C_17 
REMARK    5  A    between atoms: C_17  and  C_18 
REMARK    6  A    between atoms: C_18  and  C_19 
REMARK    7  A    between atoms: C_21  and  O_22 
REMARK    8  A    between atoms: C_24  and  O_25 
ROOT
HETATM    1  C   UNL     1      41.385 -12.470   5.692  1.00  0.00     0.185 C 
ENDROOT
BRANCH   1   2
HETATM    2  S   UNL     1      43.032 -13.120   5.282  1.00  0.00    -0.080 SA
BRANCH   2   3
HETATM    3  C   UNL     1      43.047 -14.581   6.212  1.00  0.00     0.197 A 
HETATM    4  N   UNL     1      43.181 -15.877   5.739  1.00  0.00    -0.271 N 
HETATM    5  C   UNL     1      43.230 -16.466   4.442  1.00  0.00     0.054 A 
HETATM    6  C   UNL     1      43.287 -16.633   6.901  1.00  0.00     0.159 A 
HETATM    7  C   UNL     1      43.478 -17.860   4.384  1.00  0.00    -0.003 A 
HETATM    8  C   UNL     1      43.024 -15.744   3.261  1.00  0.00     0.031 A 
HETATM    9  C   UNL     1      43.652 -18.642   5.636  1.00  0.00    -0.046 A 
HETATM   10  C   UNL     1      43.543 -18.479   3.124  1.00  0.00     0.014 A 
HETATM   11  C   UNL     1      43.946 -20.114   5.573  1.00  0.00     0.049 C 
HETATM   12  C   UNL     1      43.538 -18.019   6.820  1.00  0.00     0.060 A 
HETATM   13  C   UNL     1      43.353 -17.747   1.952  1.00  0.00     0.001 A 
HETATM   14  C   UNL     1      43.089 -16.386   2.022  1.00  0.00     0.002 A 
HETATM   15  N   UNL     1      43.131 -15.868   7.959  1.00  0.00    -0.129 NA
HETATM   16  N   UNL     1      42.979 -14.583   7.526  1.00  0.00    -0.122 NA
ENDBRANCH   2   3
ENDBRANCH   1   2
BRANCH   1  17
HETATM   17  C   UNL     1      40.357 -13.581   5.583  1.00  0.00     0.227 C 
HETATM   18  N   UNL     1      40.063 -14.109   4.352  1.00  0.00    -0.360 N 
HETATM   19  H   UNL     1      39.308 -14.786   4.406  1.00  0.00     0.162 HD
HETATM   20  O   UNL     1      39.790 -14.047   6.573  1.00  0.00    -0.273 OA
BRANCH  18  21
HETATM   21  C   UNL     1      40.333 -13.502   3.060  1.00  0.00     0.127 C 
BRANCH  21  22
HETATM   22  C   UNL     1      39.854 -14.374   1.899  1.00  0.00     0.058 C 
BRANCH  22  23
HETATM   23  C   UNL     1      40.135 -13.710   0.573  1.00  0.00    -0.054 A 
HETATM   24  C   UNL     1      39.776 -14.350  -0.625  1.00  0.00     0.046 A 
HETATM   25  C   UNL     1      40.084 -13.780  -1.864  1.00  0.00     0.102 A 
HETATM   26  C   UNL     1      40.734 -12.532  -1.915  1.00  0.00     0.101 A 
HETATM   27  C   UNL     1      41.077 -11.889  -0.722  1.00  0.00     0.040 A 
HETATM   28  C   UNL     1      40.787 -12.476   0.513  1.00  0.00     0.010 A 
BRANCH  25  29
HETATM   29  O   UNL     1      39.776 -14.359  -3.071  1.00  0.00    -0.353 OA
HETATM   30  C   UNL     1      38.407 -14.664  -3.306  1.00  0.00     0.210 C 
ENDBRANCH  25  29
BRANCH  26  31
HETATM   31  O   UNL     1      40.992 -12.036  -3.168  1.00  0.00    -0.353 OA
HETATM   32  C   UNL     1      40.685 -10.673  -3.415  1.00  0.00     0.210 C 
ENDBRANCH  26  31
ENDBRANCH  22  23
ENDBRANCH  21  22
ENDBRANCH  18  21
ENDBRANCH   1  17
TORSDOF 8
ENDMDL
MODEL 2
REMARK VINA RESULT:      -9.1      1.210      2.571
REMARK  8 active torsions:
REMARK  status: ('A' for Active; 'I' for Inactive)
REMARK    1  A    between atoms: C_12  and  S_13 
REMARK    2  A    between atoms: S_13  and  C_14 
REMARK    3  A    between atoms: C_14  and  C_15 
REMARK       I    between atoms: C_15  and  N_16 
REMARK    4  A    between atoms: N_16  and  C_17 
REMARK    5  A    between atoms: C_17  and  C_18 
REMARK    6  A    between atoms: C_18  and  C_19 
REMARK    7  A    between atoms: C_21  and  O_22 
REMARK    8  A    between atoms: C_24  and  O_25 
ROOT
HETATM    1  C   UNL     1      41.218 -12.161   5.185  1.00  0.00     0.185 C 
ENDROOT
BRANCH   1   2
HETATM    2  S   UNL     1      42.909 -12.771   5.454  1.00  0.00    -0.080 SA
BRANCH   2   3
HETATM    3  C   UNL     1      43.152 -13.703   4.015  1.00  0.00     0.197 A 
HETATM    4  N   UNL     1      43.264 -15.081   3.915  1.00  0.00    -0.271 N 
HETATM    5  C   UNL     1      43.338 -16.147   4.859  1.00  0.00     0.054 A 
HETATM    6  C   UNL     1      43.287 -15.302   2.543  1.00  0.00     0.159 A 
HETATM    7  C   UNL     1      43.351 -17.463   4.333  1.00  0.00    -0.003 A 
HETATM    8  C   UNL     1      43.420 -15.947   6.241  1.00  0.00     0.031 A 
HETATM    9  C   UNL     1      43.310 -17.683   2.864  1.00  0.00    -0.046 A 
HETATM   10  C   UNL     1      43.414 -18.544   5.229  1.00  0.00     0.014 A 
HETATM   11  C   UNL     1      43.292 -19.079   2.308  1.00  0.00     0.049 C 
HETATM   12  C   UNL     1      43.295 -16.621   2.041  1.00  0.00     0.060 A 
HETATM   13  C   UNL     1      43.478 -18.334   6.607  1.00  0.00     0.001 A 
HETATM   14  C   UNL     1      43.487 -17.040   7.109  1.00  0.00     0.002 A 
HETATM   15  N   UNL     1      43.288 -14.157   1.896  1.00  0.00    -0.129 NA
HETATM   16  N   UNL     1      43.206 -13.157   2.819  1.00  0.00    -0.122 NA
ENDBRANCH   2   3
ENDBRANCH   1   2
BRANCH   1  17
HETATM   17  C   UNL     1      40.231 -13.300   5.364  1.00  0.00     0.227 C 
HETATM   18  N   UNL     1      39.651 -13.871   4.261  1.00  0.00    -0.360 N 
HETATM   19  H   UNL     1      38.957 -14.564   4.519  1.00  0.00     0.162 HD
HETATM   20  O   UNL     1      39.950 -13.753   6.475  1.00  0.00    -0.273 OA
BRANCH  18  21
HETATM   21  C   UNL     1      39.565 -13.293   2.929  1.00  0.00     0.127 C 
BRANCH  21  22
HETATM   22  C   UNL     1      39.839 -14.323   1.834  1.00  0.00     0.058 C 
BRANCH  22  23
HETATM   23  C   UNL     1      40.018 -13.651   0.494  1.00  0.00    -0.054 A 
HETATM   24  C   UNL     1      39.714 -14.346  -0.688  1.00  0.00     0.046 A 
HETATM   25  C   UNL     1      39.934 -13.763  -1.941  1.00  0.00     0.102 A 
HETATM   26  C   UNL     1      40.434 -12.449  -2.020  1.00  0.00     0.101 A 
HETATM   27  C   UNL     1      40.723 -11.753  -0.842  1.00  0.00     0.040 A 
HETATM   28  C   UNL     1      40.524 -12.352   0.406  1.00  0.00     0.010 A 
BRANCH  25  29
HETATM   29  O   UNL     1      39.672 -14.391  -3.134  1.00  0.00    -0.353 OA
HETATM   30  C   UNL     1      38.325 -14.780  -3.374  1.00  0.00     0.210 C 
ENDBRANCH  25  29
BRANCH  26  31
HETATM   31  O   UNL     1      40.613 -11.946  -3.284  1.00  0.00    -0.353 OA
HETATM   32  C   UNL     1      40.853 -10.553  -3.412  1.00  0.00     0.210 C 
ENDBRANCH  26  31
ENDBRANCH  22  23
ENDBRANCH  21  22
ENDBRANCH  18  21
ENDBRANCH   1  17
TORSDOF 8
ENDMDL
MODEL 3
REMARK VINA RESULT:      -9.0      0.496      1.645
REMARK  8 active torsions:
REMARK  status: ('A' for Active; 'I' for Inactive)
REMARK    1  A    between atoms: C_12  and  S_13 
REMARK    2  A    between atoms: S_13  and  C_14 
REMARK    3  A    between atoms: C_14  and  C_15 
REMARK       I    between atoms: C_15  and  N_16 
REMARK    4  A    between atoms: N_16  and  C_17 
REMARK    5  A    between atoms: C_17  and  C_18 
REMARK    6  A    between atoms: C_18  and  C_19 
REMARK    7  A    between atoms: C_21  and  O_22 
REMARK    8  A    between atoms: C_24  and  O_25 
ROOT
HETATM    1  C   UNL     1      41.366 -12.441   5.692  1.00  0.00     0.185 C 
ENDROOT
BRANCH   1   2
HETATM    2  S   UNL     1      43.006 -13.100   5.268  1.00  0.00    -0.080 SA
BRANCH   2   3
HETATM    3  C   UNL     1      43.024 -14.559   6.201  1.00  0.00     0.197 A 
HETATM    4  N   UNL     1      43.170 -15.854   5.732  1.00  0.00    -0.271 N 
HETATM    5  C   UNL     1      43.233 -16.445   4.436  1.00  0.00     0.054 A 
HETATM    6  C   UNL     1      43.271 -16.607   6.896  1.00  0.00     0.159 A 
HETATM    7  C   UNL     1      43.491 -17.838   4.383  1.00  0.00    -0.003 A 
HETATM    8  C   UNL     1      43.032 -15.727   3.252  1.00  0.00     0.031 A 
HETATM    9  C   UNL     1      43.660 -18.616   5.638  1.00  0.00    -0.046 A 
HETATM   10  C   UNL     1      43.570 -18.459   3.124  1.00  0.00     0.014 A 
HETATM   11  C   UNL     1      43.964 -20.087   5.580  1.00  0.00     0.049 C 
HETATM   12  C   UNL     1      43.532 -17.992   6.820  1.00  0.00     0.060 A 
HETATM   13  C   UNL     1      43.385 -17.730   1.950  1.00  0.00     0.001 A 
HETATM   14  C   UNL     1      43.112 -16.371   2.015  1.00  0.00     0.002 A 
HETATM   15  N   UNL     1      43.101 -15.841   7.952  1.00  0.00    -0.129 NA
HETATM   16  N   UNL     1      42.945 -14.559   7.515  1.00  0.00    -0.122 NA
ENDBRANCH   2   3
ENDBRANCH   1   2
BRANCH   1  17
HETATM   17  C   UNL     1      40.303 -13.474   5.364  1.00  0.00     0.227 C 
HETATM   18  N   UNL     1      39.873 -13.613   4.070  1.00  0.00    -0.360 N 
HETATM   19  H   UNL     1      39.110 -14.279   3.999  1.00  0.00     0.162 HD
HETATM   20  O   UNL     1      39.826 -14.216   6.225  1.00  0.00    -0.273 OA
BRANCH  18  21
HETATM   21  C   UNL     1      40.029 -12.647   2.995  1.00  0.00     0.127 C 
BRANCH  21  22
HETATM   22  C   UNL     1      41.231 -12.962   2.105  1.00  0.00     0.058 C 
BRANCH  22  23
HETATM   23  C   UNL     1      40.788 -13.315   0.705  1.00  0.00    -0.054 A 
HETATM   24  C   UNL     1      41.001 -12.411  -0.349  1.00  0.00     0.046 A 
HETATM   25  C   UNL     1      40.542 -12.692  -1.640  1.00  0.00     0.102 A 
HETATM   26  C   UNL     1      39.887 -13.912  -1.896  1.00  0.00     0.101 A 
HETATM   27  C   UNL     1      39.688 -14.817  -0.849  1.00  0.00     0.040 A 
HETATM   28  C   UNL     1      40.129 -14.518   0.444  1.00  0.00     0.010 A 
BRANCH  25  29
HETATM   29  O   UNL     1      40.704 -11.848  -2.711  1.00  0.00    -0.353 OA
HETATM   30  C   UNL     1      39.722 -10.834  -2.884  1.00  0.00     0.210 C 
ENDBRANCH  25  29
BRANCH  26  31
HETATM   31  O   UNL     1      39.475 -14.117  -3.190  1.00  0.00    -0.353 OA
HETATM   32  C   UNL     1      38.239 -14.785  -3.391  1.00  0.00     0.210 C 
ENDBRANCH  26  31
ENDBRANCH  22  23
ENDBRANCH  21  22
ENDBRANCH  18  21
ENDBRANCH   1  17
TORSDOF 8
ENDMDL
MODEL 4
REMARK VINA RESULT:      -9.0      4.770      8.751
REMARK  8 active torsions:
REMARK  status: ('A' for Active; 'I' for Inactive)
REMARK    1  A    between atoms: C_12  and  S_13 
REMARK    2  A    between atoms: S_13  and  C_14 
REMARK    3  A    between atoms: C_14  and  C_15 
REMARK       I    between atoms: C_15  and  N_16 
REMARK    4  A    between atoms: N_16  and  C_17 
REMARK    5  A    between atoms: C_17  and  C_18 
REMARK    6  A    between atoms: C_18  and  C_19 
REMARK    7  A    between atoms: C_21  and  O_22 
REMARK    8  A    between atoms: C_24  and  O_25 
ROOT
HETATM    1  C   UNL     1      44.146 -12.067   6.810  1.00  0.00     0.185 C 
ENDROOT
BRANCH   1   2
HETATM    2  S   UNL     1      43.128 -13.040   5.661  1.00  0.00    -0.080 SA
BRANCH   2   3
HETATM    3  C   UNL     1      43.128 -14.581   6.450  1.00  0.00     0.197 A 
HETATM    4  N   UNL     1      43.247 -15.829   5.857  1.00  0.00    -0.271 N 
HETATM    5  C   UNL     1      43.286 -16.294   4.511  1.00  0.00     0.054 A 
HETATM    6  C   UNL     1      43.346 -16.691   6.943  1.00  0.00     0.159 A 
HETATM    7  C   UNL     1      43.519 -17.678   4.321  1.00  0.00    -0.003 A 
HETATM    8  C   UNL     1      43.087 -15.462   3.403  1.00  0.00     0.031 A 
HETATM    9  C   UNL     1      43.687 -18.576   5.494  1.00  0.00    -0.046 A 
HETATM   10  C   UNL     1      43.575 -18.178   3.008  1.00  0.00     0.014 A 
HETATM   11  C   UNL     1      43.964 -20.040   5.292  1.00  0.00     0.049 C 
HETATM   12  C   UNL     1      43.581 -18.066   6.732  1.00  0.00     0.060 A 
HETATM   13  C   UNL     1      43.392 -17.336   1.911  1.00  0.00     0.001 A 
HETATM   14  C   UNL     1      43.143 -15.985   2.109  1.00  0.00     0.002 A 
HETATM   15  N   UNL     1      43.200 -16.027   8.069  1.00  0.00    -0.129 NA
HETATM   16  N   UNL     1      43.062 -14.706   7.759  1.00  0.00    -0.122 NA
ENDBRANCH   2   3
ENDBRANCH   1   2
BRANCH   1  17
HETATM   17  C   UNL     1      45.217 -11.321   6.035  1.00  0.00     0.227 C 
HETATM   18  N   UNL     1      46.250 -10.726   6.712  1.00  0.00    -0.360 N 
HETATM   19  H   UNL     1      46.852 -10.199   6.088  1.00  0.00     0.162 HD
HETATM   20  O   UNL     1      45.205 -11.253   4.804  1.00  0.00    -0.273 OA
BRANCH  18  21
HETATM   21  C   UNL     1      46.281 -10.388   8.125  1.00  0.00     0.127 C 
BRANCH  21  22
HETATM   22  C   UNL     1      45.700  -9.001   8.400  1.00  0.00     0.058 C 
BRANCH  22  23
HETATM   23  C   UNL     1      44.655  -9.060   9.488  1.00  0.00    -0.054 A 
HETATM   24  C   UNL     1      43.752  -7.997   9.655  1.00  0.00     0.046 A 
HETATM   25  C   UNL     1      42.818  -8.004  10.696  1.00  0.00     0.102 A 
HETATM   26  C   UNL     1      42.758  -9.106  11.570  1.00  0.00     0.101 A 
HETATM   27  C   UNL     1      43.648 -10.170  11.394  1.00  0.00     0.040 A 
HETATM   28  C   UNL     1      44.594 -10.145  10.366  1.00  0.00     0.010 A 
BRANCH  25  29
HETATM   29  O   UNL     1      41.918  -6.992  10.925  1.00  0.00    -0.353 OA
HETATM   30  C   UNL     1      42.377  -5.663  10.708  1.00  0.00     0.210 C 
ENDBRANCH  25  29
BRANCH  26  31
HETATM   31  O   UNL     1      41.809  -9.041  12.559  1.00  0.00    -0.353 OA
HETATM   32  C   UNL     1      42.259  -8.899  13.898  1.00  0.00     0.210 C 
ENDBRANCH  26  31
ENDBRANCH  22  23
ENDBRANCH  21  22
ENDBRANCH  18  21
ENDBRANCH   1  17
TORSDOF 8
ENDMDL
MODEL 5
REMARK VINA RESULT:      -8.6      5.257      9.409
REMARK  8 active torsions:
REMARK  status: ('A' for Active; 'I' for Inactive)
REMARK    1  A    between atoms: C_12  and  S_13 
REMARK    2  A    between atoms: S_13  and  C_14 
REMARK    3  A    between atoms: C_14  and  C_15 
REMARK       I    between atoms: C_15  and  N_16 
REMARK    4  A    between atoms: N_16  and  C_17 
REMARK    5  A    between atoms: C_17  and  C_18 
REMARK    6  A    between atoms: C_18  and  C_19 
REMARK    7  A    between atoms: C_21  and  O_22 
REMARK    8  A    between atoms: C_24  and  O_25 
ROOT
HETATM    1  C   UNL     1      43.225 -11.536   6.834  1.00  0.00     0.185 C 
ENDROOT
BRANCH   1   2
HETATM    2  S   UNL     1      43.213 -12.740   5.473  1.00  0.00    -0.080 SA
BRANCH   2   3
HETATM    3  C   UNL     1      43.176 -14.230   6.355  1.00  0.00     0.197 A 
HETATM    4  N   UNL     1      43.253 -15.514   5.840  1.00  0.00    -0.271 N 
HETATM    5  C   UNL     1      43.267 -16.062   4.525  1.00  0.00     0.054 A 
HETATM    6  C   UNL     1      43.337 -16.311   6.976  1.00  0.00     0.159 A 
HETATM    7  C   UNL     1      43.457 -17.462   4.420  1.00  0.00    -0.003 A 
HETATM    8  C   UNL     1      43.082 -15.295   3.369  1.00  0.00     0.031 A 
HETATM    9  C   UNL     1      43.609 -18.291   5.644  1.00  0.00    -0.046 A 
HETATM   10  C   UNL     1      43.487 -18.043   3.140  1.00  0.00     0.014 A 
HETATM   11  C   UNL     1      43.842 -19.771   5.532  1.00  0.00     0.049 C 
HETATM   12  C   UNL     1      43.530 -17.702   6.849  1.00  0.00     0.060 A 
HETATM   13  C   UNL     1      43.318 -17.266   1.994  1.00  0.00     0.001 A 
HETATM   14  C   UNL     1      43.110 -15.898   2.110  1.00  0.00     0.002 A 
HETATM   15  N   UNL     1      43.221 -15.575   8.060  1.00  0.00    -0.129 NA
HETATM   16  N   UNL     1      43.119 -14.272   7.670  1.00  0.00    -0.122 NA
ENDBRANCH   2   3
ENDBRANCH   1   2
BRANCH   1  17
HETATM   17  C   UNL     1      44.650 -11.318   7.308  1.00  0.00     0.227 C 
HETATM   18  N   UNL     1      44.883 -10.994   8.620  1.00  0.00    -0.360 N 
HETATM   19  H   UNL     1      45.865 -10.801   8.789  1.00  0.00     0.162 HD
HETATM   20  O   UNL     1      45.617 -11.449   6.556  1.00  0.00    -0.273 OA
BRANCH  18  21
HETATM   21  C   UNL     1      43.917 -10.461   9.567  1.00  0.00     0.127 C 
BRANCH  21  22
HETATM   22  C   UNL     1      44.582  -9.639  10.671  1.00  0.00     0.058 C 
BRANCH  22  23
HETATM   23  C   UNL     1      43.582  -9.252  11.733  1.00  0.00    -0.054 A 
HETATM   24  C   UNL     1      42.492 -10.092  12.013  1.00  0.00     0.046 A 
HETATM   25  C   UNL     1      41.520  -9.721  12.948  1.00  0.00     0.102 A 
HETATM   26  C   UNL     1      41.652  -8.505  13.644  1.00  0.00     0.101 A 
HETATM   27  C   UNL     1      42.746  -7.676  13.375  1.00  0.00     0.040 A 
HETATM   28  C   UNL     1      43.700  -8.043  12.421  1.00  0.00     0.010 A 
BRANCH  25  29
HETATM   29  O   UNL     1      40.423 -10.488  13.258  1.00  0.00    -0.353 OA
HETATM   30  C   UNL     1      39.379 -10.534  12.294  1.00  0.00     0.210 C 
ENDBRANCH  25  29
BRANCH  26  31
HETATM   31  O   UNL     1      40.663  -8.217  14.551  1.00  0.00    -0.353 OA
HETATM   32  C   UNL     1      39.973  -6.986  14.407  1.00  0.00     0.210 C 
ENDBRANCH  26  31
ENDBRANCH  22  23
ENDBRANCH  21  22
ENDBRANCH  18  21
ENDBRANCH   1  17
TORSDOF 8
ENDMDL
MODEL 6
REMARK VINA RESULT:      -8.3      3.639      7.431
REMARK  8 active torsions:
REMARK  status: ('A' for Active; 'I' for Inactive)
REMARK    1  A    between atoms: C_12  and  S_13 
REMARK    2  A    between atoms: S_13  and  C_14 
REMARK    3  A    between atoms: C_14  and  C_15 
REMARK       I    between atoms: C_15  and  N_16 
REMARK    4  A    between atoms: N_16  and  C_17 
REMARK    5  A    between atoms: C_17  and  C_18 
REMARK    6  A    between atoms: C_18  and  C_19 
REMARK    7  A    between atoms: C_21  and  O_22 
REMARK    8  A    between atoms: C_24  and  O_25 
ROOT
HETATM    1  C   UNL     1      41.724 -13.021   4.393  1.00  0.00     0.185 C 
ENDROOT
BRANCH   1   2
HETATM    2  S   UNL     1      42.028 -11.236   4.243  1.00  0.00    -0.080 SA
BRANCH   2   3
HETATM    3  C   UNL     1      43.505 -11.080   5.135  1.00  0.00     0.197 A 
HETATM    4  N   UNL     1      43.653 -10.666   6.449  1.00  0.00    -0.271 N 
HETATM    5  C   UNL     1      42.767 -10.144   7.437  1.00  0.00     0.054 A 
HETATM    6  C   UNL     1      45.004 -10.876   6.701  1.00  0.00     0.159 A 
HETATM    7  C   UNL     1      43.310  -9.926   8.728  1.00  0.00    -0.003 A 
HETATM    8  C   UNL     1      41.429  -9.827   7.180  1.00  0.00     0.031 A 
HETATM    9  C   UNL     1      44.742 -10.217   8.997  1.00  0.00    -0.046 A 
HETATM   10  C   UNL     1      42.468  -9.421   9.734  1.00  0.00     0.014 A 
HETATM   11  C   UNL     1      45.309 -10.015  10.374  1.00  0.00     0.049 C 
HETATM   12  C   UNL     1      45.522 -10.656   7.995  1.00  0.00     0.060 A 
HETATM   13  C   UNL     1      41.131  -9.125   9.471  1.00  0.00     0.001 A 
HETATM   14  C   UNL     1      40.616  -9.322   8.197  1.00  0.00     0.002 A 
HETATM   15  N   UNL     1      45.614 -11.283   5.610  1.00  0.00    -0.129 NA
HETATM   16  N   UNL     1      44.675 -11.409   4.629  1.00  0.00    -0.122 NA
ENDBRANCH   2   3
ENDBRANCH   1   2
BRANCH   1  17
HETATM   17  C   UNL     1      40.872 -13.291   5.620  1.00  0.00     0.227 C 
HETATM   18  N   UNL     1      41.449 -13.840   6.736  1.00  0.00    -0.360 N 
HETATM   19  H   UNL     1      40.760 -14.041   7.454  1.00  0.00     0.162 HD
HETATM   20  O   UNL     1      39.673 -13.007   5.659  1.00  0.00    -0.273 OA
BRANCH  18  21
HETATM   21  C   UNL     1      42.714 -14.555   6.796  1.00  0.00     0.127 C 
BRANCH  21  22
HETATM   22  C   UNL     1      42.524 -16.044   7.080  1.00  0.00     0.058 C 
BRANCH  22  23
HETATM   23  C   UNL     1      43.018 -16.882   5.926  1.00  0.00    -0.054 A 
HETATM   24  C   UNL     1      42.845 -16.433   4.606  1.00  0.00     0.046 A 
HETATM   25  C   UNL     1      43.238 -17.223   3.521  1.00  0.00     0.102 A 
HETATM   26  C   UNL     1      43.848 -18.471   3.753  1.00  0.00     0.101 A 
HETATM   27  C   UNL     1      44.032 -18.911   5.067  1.00  0.00     0.040 A 
HETATM   28  C   UNL     1      43.614 -18.125   6.146  1.00  0.00     0.010 A 
BRANCH  25  29
HETATM   29  O   UNL     1      43.085 -16.852   2.207  1.00  0.00    -0.353 OA
HETATM   30  C   UNL     1      41.814 -16.338   1.829  1.00  0.00     0.210 C 
ENDBRANCH  25  29
BRANCH  26  31
HETATM   31  O   UNL     1      44.213 -19.181   2.637  1.00  0.00    -0.353 OA
HETATM   32  C   UNL     1      43.464 -20.344   2.320  1.00  0.00     0.210 C 
ENDBRANCH  26  31
ENDBRANCH  22  23
ENDBRANCH  21  22
ENDBRANCH  18  21
ENDBRANCH   1  17
TORSDOF 8
ENDMDL
MODEL 7
REMARK VINA RESULT:      -8.3      2.643      5.883
REMARK  8 active torsions:
REMARK  status: ('A' for Active; 'I' for Inactive)
REMARK    1  A    between atoms: C_12  and  S_13 
REMARK    2  A    between atoms: S_13  and  C_14 
REMARK    3  A    between atoms: C_14  and  C_15 
REMARK       I    between atoms: C_15  and  N_16 
REMARK    4  A    between atoms: N_16  and  C_17 
REMARK    5  A    between atoms: C_17  and  C_18 
REMARK    6  A    between atoms: C_18  and  C_19 
REMARK    7  A    between atoms: C_21  and  O_22 
REMARK    8  A    between atoms: C_24  and  O_25 
ROOT
HETATM    1  C   UNL     1      40.937 -13.786   0.626  1.00  0.00     0.185 C 
ENDROOT
BRANCH   1   2
HETATM    2  S   UNL     1      40.060 -15.073   1.564  1.00  0.00    -0.080 SA
BRANCH   2   3
HETATM    3  C   UNL     1      40.631 -14.755   3.167  1.00  0.00     0.197 A 
HETATM    4  N   UNL     1      41.640 -15.420   3.847  1.00  0.00    -0.271 N 
HETATM    5  C   UNL     1      42.432 -16.574   3.578  1.00  0.00     0.054 A 
HETATM    6  C   UNL     1      41.792 -14.669   5.007  1.00  0.00     0.159 A 
HETATM    7  C   UNL     1      43.451 -16.879   4.514  1.00  0.00    -0.003 A 
HETATM    8  C   UNL     1      42.230 -17.404   2.470  1.00  0.00     0.031 A 
HETATM    9  C   UNL     1      43.642 -16.028   5.717  1.00  0.00    -0.046 A 
HETATM   10  C   UNL     1      44.262 -18.004   4.282  1.00  0.00     0.014 A 
HETATM   11  C   UNL     1      44.743 -16.334   6.693  1.00  0.00     0.049 C 
HETATM   12  C   UNL     1      42.817 -14.988   5.924  1.00  0.00     0.060 A 
HETATM   13  C   UNL     1      44.063 -18.815   3.165  1.00  0.00     0.001 A 
HETATM   14  C   UNL     1      43.047 -18.519   2.267  1.00  0.00     0.002 A 
HETATM   15  N   UNL     1      40.893 -13.711   5.054  1.00  0.00    -0.129 NA
HETATM   16  N   UNL     1      40.165 -13.767   3.901  1.00  0.00    -0.122 NA
ENDBRANCH   2   3
ENDBRANCH   1   2
BRANCH   1  17
HETATM   17  C   UNL     1      39.930 -12.874  -0.050  1.00  0.00     0.227 C 
HETATM   18  N   UNL     1      39.718 -11.615   0.448  1.00  0.00    -0.360 N 
HETATM   19  H   UNL     1      38.969 -11.138  -0.044  1.00  0.00     0.162 HD
HETATM   20  O   UNL     1      39.309 -13.219  -1.058  1.00  0.00    -0.273 OA
BRANCH  18  21
HETATM   21  C   UNL     1      40.060 -11.139   1.779  1.00  0.00     0.127 C 
BRANCH  21  22
HETATM   22  C   UNL     1      41.433 -10.468   1.817  1.00  0.00     0.058 C 
BRANCH  22  23
HETATM   23  C   UNL     1      42.146 -10.772   3.113  1.00  0.00    -0.054 A 
HETATM   24  C   UNL     1      41.680 -10.222   4.318  1.00  0.00     0.046 A 
HETATM   25  C   UNL     1      42.363 -10.439   5.519  1.00  0.00     0.102 A 
HETATM   26  C   UNL     1      43.516 -11.248   5.528  1.00  0.00     0.101 A 
HETATM   27  C   UNL     1      43.970 -11.807   4.330  1.00  0.00     0.040 A 
HETATM   28  C   UNL     1      43.295 -11.565   3.130  1.00  0.00     0.010 A 
BRANCH  25  29
HETATM   29  O   UNL     1      41.971  -9.920   6.729  1.00  0.00    -0.353 OA
HETATM   30  C   UNL     1      42.062  -8.509   6.882  1.00  0.00     0.210 C 
ENDBRANCH  25  29
BRANCH  26  31
HETATM   31  O   UNL     1      44.123 -11.421   6.747  1.00  0.00    -0.353 OA
HETATM   32  C   UNL     1      45.533 -11.271   6.808  1.00  0.00     0.210 C 
ENDBRANCH  26  31
ENDBRANCH  22  23
ENDBRANCH  21  22
ENDBRANCH  18  21
ENDBRANCH   1  17
TORSDOF 8
ENDMDL
MODEL 8
REMARK VINA RESULT:      -8.2      3.787      7.998
REMARK  8 active torsions:
REMARK  status: ('A' for Active; 'I' for Inactive)
REMARK    1  A    between atoms: C_12  and  S_13 
REMARK    2  A    between atoms: S_13  and  C_14 
REMARK    3  A    between atoms: C_14  and  C_15 
REMARK       I    between atoms: C_15  and  N_16 
REMARK    4  A    between atoms: N_16  and  C_17 
REMARK    5  A    between atoms: C_17  and  C_18 
REMARK    6  A    between atoms: C_18  and  C_19 
REMARK    7  A    between atoms: C_21  and  O_22 
REMARK    8  A    between atoms: C_24  and  O_25 
ROOT
HETATM    1  C   UNL     1      41.887 -12.663   3.779  1.00  0.00     0.185 C 
ENDROOT
BRANCH   1   2
HETATM    2  S   UNL     1      41.738 -11.056   4.614  1.00  0.00    -0.080 SA
BRANCH   2   3
HETATM    3  C   UNL     1      43.278 -10.952   5.399  1.00  0.00     0.197 A 
HETATM    4  N   UNL     1      43.533 -10.544   6.699  1.00  0.00    -0.271 N 
HETATM    5  C   UNL     1      42.738  -9.995   7.747  1.00  0.00     0.054 A 
HETATM    6  C   UNL     1      44.890 -10.801   6.855  1.00  0.00     0.159 A 
HETATM    7  C   UNL     1      43.377  -9.797   8.996  1.00  0.00    -0.003 A 
HETATM    8  C   UNL     1      41.396  -9.633   7.585  1.00  0.00     0.031 A 
HETATM    9  C   UNL     1      44.815 -10.137   9.163  1.00  0.00    -0.046 A 
HETATM   10  C   UNL     1      42.627  -9.266  10.059  1.00  0.00     0.014 A 
HETATM   11  C   UNL     1      45.484  -9.957  10.496  1.00  0.00     0.049 C 
HETATM   12  C   UNL     1      45.507 -10.601   8.109  1.00  0.00     0.060 A 
HETATM   13  C   UNL     1      41.285  -8.924   9.891  1.00  0.00     0.001 A 
HETATM   14  C   UNL     1      40.675  -9.102   8.657  1.00  0.00     0.002 A 
HETATM   15  N   UNL     1      45.408 -11.226   5.723  1.00  0.00    -0.129 NA
HETATM   16  N   UNL     1      44.398 -11.319   4.812  1.00  0.00    -0.122 NA
ENDBRANCH   2   3
ENDBRANCH   1   2
BRANCH   1  17
HETATM   17  C   UNL     1      42.042 -12.448   2.285  1.00  0.00     0.227 C 
HETATM   18  N   UNL     1      41.751 -13.472   1.421  1.00  0.00    -0.360 N 
HETATM   19  H   UNL     1      41.968 -13.226   0.461  1.00  0.00     0.162 HD
HETATM   20  O   UNL     1      42.399 -11.366   1.814  1.00  0.00    -0.273 OA
BRANCH  18  21
HETATM   21  C   UNL     1      41.657 -14.885   1.751  1.00  0.00     0.127 C 
BRANCH  21  22
HETATM   22  C   UNL     1      42.955 -15.635   1.453  1.00  0.00     0.058 C 
BRANCH  22  23
HETATM   23  C   UNL     1      43.216 -16.696   2.495  1.00  0.00    -0.054 A 
HETATM   24  C   UNL     1      43.233 -16.355   3.857  1.00  0.00     0.046 A 
HETATM   25  C   UNL     1      43.536 -17.311   4.833  1.00  0.00     0.102 A 
HETATM   26  C   UNL     1      43.794 -18.641   4.449  1.00  0.00     0.101 A 
HETATM   27  C   UNL     1      43.763 -18.982   3.094  1.00  0.00     0.040 A 
HETATM   28  C   UNL     1      43.483 -18.016   2.123  1.00  0.00     0.010 A 
BRANCH  25  29
HETATM   29  O   UNL     1      43.585 -17.042   6.179  1.00  0.00    -0.353 OA
HETATM   30  C   UNL     1      44.644 -16.206   6.630  1.00  0.00     0.210 C 
ENDBRANCH  25  29
BRANCH  26  31
HETATM   31  O   UNL     1      44.074 -19.519   5.466  1.00  0.00    -0.353 OA
HETATM   32  C   UNL     1      44.136 -20.901   5.146  1.00  0.00     0.210 C 
ENDBRANCH  26  31
ENDBRANCH  22  23
ENDBRANCH  21  22
ENDBRANCH  18  21
ENDBRANCH   1  17
TORSDOF 8
ENDMDL
MODEL 9
REMARK VINA RESULT:      -8.2      5.643      9.141
REMARK  8 active torsions:
REMARK  status: ('A' for Active; 'I' for Inactive)
REMARK    1  A    between atoms: C_12  and  S_13 
REMARK    2  A    between atoms: S_13  and  C_14 
REMARK    3  A    between atoms: C_14  and  C_15 
REMARK       I    between atoms: C_15  and  N_16 
REMARK    4  A    between atoms: N_16  and  C_17 
REMARK    5  A    between atoms: C_17  and  C_18 
REMARK    6  A    between atoms: C_18  and  C_19 
REMARK    7  A    between atoms: C_21  and  O_22 
REMARK    8  A    between atoms: C_24  and  O_25 
ROOT
HETATM    1  C   UNL     1      43.412 -11.059   7.295  1.00  0.00     0.185 C 
ENDROOT
BRANCH   1   2
HETATM    2  S   UNL     1      44.118  -9.581   8.083  1.00  0.00    -0.080 SA
BRANCH   2   3
HETATM    3  C   UNL     1      43.909  -9.971   9.757  1.00  0.00     0.197 A 
HETATM    4  N   UNL     1      43.418  -9.147  10.757  1.00  0.00    -0.271 N 
HETATM    5  C   UNL     1      43.049  -7.772  10.826  1.00  0.00     0.054 A 
HETATM    6  C   UNL     1      43.315  -9.999  11.852  1.00  0.00     0.159 A 
HETATM    7  C   UNL     1      42.487  -7.324  12.047  1.00  0.00    -0.003 A 
HETATM    8  C   UNL     1      43.237  -6.871   9.772  1.00  0.00     0.031 A 
HETATM    9  C   UNL     1      42.325  -8.264  13.187  1.00  0.00    -0.046 A 
HETATM   10  C   UNL     1      42.100  -5.977  12.154  1.00  0.00     0.014 A 
HETATM   11  C   UNL     1      41.700  -7.796  14.470  1.00  0.00     0.049 C 
HETATM   12  C   UNL     1      42.749  -9.532  13.057  1.00  0.00     0.060 A 
HETATM   13  C   UNL     1      42.277  -5.091  11.091  1.00  0.00     0.001 A 
HETATM   14  C   UNL     1      42.849  -5.537   9.907  1.00  0.00     0.002 A 
HETATM   15  N   UNL     1      43.793 -11.187  11.553  1.00  0.00    -0.129 NA
HETATM   16  N   UNL     1      44.166 -11.168  10.241  1.00  0.00    -0.122 NA
ENDBRANCH   2   3
ENDBRANCH   1   2
BRANCH   1  17
HETATM   17  C   UNL     1      44.532 -11.959   6.806  1.00  0.00     0.227 C 
HETATM   18  N   UNL     1      44.245 -13.240   6.411  1.00  0.00    -0.360 N 
HETATM   19  H   UNL     1      45.087 -13.758   6.181  1.00  0.00     0.162 HD
HETATM   20  O   UNL     1      45.698 -11.567   6.726  1.00  0.00    -0.273 OA
BRANCH  18  21
HETATM   21  C   UNL     1      43.052 -14.002   6.738  1.00  0.00     0.127 C 
BRANCH  21  22
HETATM   22  C   UNL     1      43.360 -15.476   6.999  1.00  0.00     0.058 C 
BRANCH  22  23
HETATM   23  C   UNL     1      43.355 -16.264   5.711  1.00  0.00    -0.054 A 
HETATM   24  C   UNL     1      42.364 -16.027   4.744  1.00  0.00     0.046 A 
HETATM   25  C   UNL     1      42.305 -16.790   3.574  1.00  0.00     0.102 A 
HETATM   26  C   UNL     1      43.271 -17.788   3.343  1.00  0.00     0.101 A 
HETATM   27  C   UNL     1      44.265 -18.014   4.300  1.00  0.00     0.040 A 
HETATM   28  C   UNL     1      44.303 -17.263   5.479  1.00  0.00     0.010 A 
BRANCH  25  29
HETATM   29  O   UNL     1      41.356 -16.620   2.596  1.00  0.00    -0.353 OA
HETATM   30  C   UNL     1      40.660 -15.379   2.584  1.00  0.00     0.210 C 
ENDBRANCH  25  29
BRANCH  26  31
HETATM   31  O   UNL     1      43.150 -18.486   2.168  1.00  0.00    -0.353 OA
HETATM   32  C   UNL     1      43.312 -19.896   2.217  1.00  0.00     0.210 C 
ENDBRANCH  26  31
ENDBRANCH  22  23
ENDBRANCH  21  22
ENDBRANCH  18  21
ENDBRANCH   1  17
TORSDOF 8
ENDMDL
MODEL 10
REMARK VINA RESULT:      -8.1      2.687      7.612
REMARK  8 active torsions:
REMARK  status: ('A' for Active; 'I' for Inactive)
REMARK    1  A    between atoms: C_12  and  S_13 
REMARK    2  A    between atoms: S_13  and  C_14 
REMARK    3  A    between atoms: C_14  and  C_15 
REMARK       I    between atoms: C_15  and  N_16 
REMARK    4  A    between atoms: N_16  and  C_17 
REMARK    5  A    between atoms: C_17  and  C_18 
REMARK    6  A    between atoms: C_18  and  C_19 
REMARK    7  A    between atoms: C_21  and  O_22 
REMARK    8  A    between atoms: C_24  and  O_25 
ROOT
HETATM    1  C   UNL     1      40.976 -12.140   4.550  1.00  0.00     0.185 C 
ENDROOT
BRANCH   1   2
HETATM    2  S   UNL     1      40.802 -13.045   2.983  1.00  0.00    -0.080 SA
BRANCH   2   3
HETATM    3  C   UNL     1      41.307 -11.836   1.850  1.00  0.00     0.197 A 
HETATM    4  N   UNL     1      41.066 -11.810   0.486  1.00  0.00    -0.271 N 
HETATM    5  C   UNL     1      40.482 -12.721  -0.442  1.00  0.00     0.054 A 
HETATM    6  C   UNL     1      41.545 -10.563   0.100  1.00  0.00     0.159 A 
HETATM    7  C   UNL     1      40.332 -12.265  -1.775  1.00  0.00    -0.003 A 
HETATM    8  C   UNL     1      40.086 -14.019  -0.100  1.00  0.00     0.031 A 
HETATM    9  C   UNL     1      40.792 -10.904  -2.156  1.00  0.00    -0.046 A 
HETATM   10  C   UNL     1      39.752 -13.128  -2.720  1.00  0.00     0.014 A 
HETATM   11  C   UNL     1      40.604 -10.408  -3.563  1.00  0.00     0.049 C 
HETATM   12  C   UNL     1      41.381 -10.127  -1.232  1.00  0.00     0.060 A 
HETATM   13  C   UNL     1      39.346 -14.414  -2.365  1.00  0.00     0.001 A 
HETATM   14  C   UNL     1      39.518 -14.859  -1.061  1.00  0.00     0.002 A 
HETATM   15  N   UNL     1      42.105  -9.952   1.121  1.00  0.00    -0.129 NA
HETATM   16  N   UNL     1      41.957 -10.751   2.216  1.00  0.00    -0.122 NA
ENDBRANCH   2   3
ENDBRANCH   1   2
BRANCH   1  17
HETATM   17  C   UNL     1      40.224 -12.873   5.646  1.00  0.00     0.227 C 
HETATM   18  N   UNL     1      40.904 -13.724   6.479  1.00  0.00    -0.360 N 
HETATM   19  H   UNL     1      40.276 -14.206   7.115  1.00  0.00     0.162 HD
HETATM   20  O   UNL     1      39.017 -12.708   5.833  1.00  0.00    -0.273 OA
BRANCH  18  21
HETATM   21  C   UNL     1      42.207 -14.320   6.235  1.00  0.00     0.127 C 
BRANCH  21  22
HETATM   22  C   UNL     1      42.294 -15.753   6.759  1.00  0.00     0.058 C 
BRANCH  22  23
HETATM   23  C   UNL     1      42.863 -16.678   5.710  1.00  0.00    -0.054 A 
HETATM   24  C   UNL     1      42.813 -16.318   4.353  1.00  0.00     0.046 A 
HETATM   25  C   UNL     1      43.276 -17.189   3.362  1.00  0.00     0.102 A 
HETATM   26  C   UNL     1      43.832 -18.430   3.728  1.00  0.00     0.101 A 
HETATM   27  C   UNL     1      43.894 -18.780   5.080  1.00  0.00     0.040 A 
HETATM   28  C   UNL     1      43.407 -17.914   6.064  1.00  0.00     0.010 A 
BRANCH  25  29
HETATM   29  O   UNL     1      43.244 -16.907   2.017  1.00  0.00    -0.353 OA
HETATM   30  C   UNL     1      43.451 -15.551   1.641  1.00  0.00     0.210 C 
ENDBRANCH  25  29
BRANCH  26  31
HETATM   31  O   UNL     1      44.273 -19.222   2.698  1.00  0.00    -0.353 OA
HETATM   32  C   UNL     1      43.639 -20.479   2.516  1.00  0.00     0.210 C 
ENDBRANCH  26  31
ENDBRANCH  22  23
ENDBRANCH  21  22
ENDBRANCH  18  21
ENDBRANCH   1  17
TORSDOF 8
ENDMDL
