MODEL 1
REMARK VINA RESULT:      -7.0      0.000      0.000
REMARK  5 active torsions:
REMARK  status: ('A' for Active; 'I' for Inactive)
REMARK    1  A    between atoms: C_2  and  O_3 
REMARK    2  A    between atoms: C_4  and  C_5 
REMARK    3  A    between atoms: C_5  and  O_6 
REMARK    4  A    between atoms: C_9  and  C_10 
REMARK    5  A    between atoms: C_22  and  O_23 
ROOT
HETATM    1  C   UNL     1      43.241 -15.705   8.079  1.00  0.00     0.047 C 
HETATM    2  C   UNL     1      43.108 -16.566   6.813  1.00  0.00     0.073 C 
HETATM    3  C   UNL     1      41.900 -16.152   5.898  1.00  0.00     0.133 C 
HETATM    4  C   UNL     1      41.846 -16.830   4.483  1.00  0.00     0.074 C 
HETATM    5  C   UNL     1      43.118 -17.523   4.121  1.00  0.00     0.030 A 
HETATM    6  C   UNL     1      44.294 -17.395   4.826  1.00  0.00     0.042 A 
HETATM    7  N   UNL     1      45.219 -18.190   4.212  1.00  0.00    -0.279 N 
HETATM    8  H   UNL     1      46.193 -18.340   4.458  1.00  0.00     0.189 HD
HETATM    9  N   UNL     1      44.699 -18.885   3.178  1.00  0.00    -0.149 NA
HETATM   10  C   UNL     1      43.440 -18.468   3.145  1.00  0.00     0.190 A 
HETATM   11  C   UNL     1      44.474 -16.607   6.068  1.00  0.00     0.097 C 
ENDROOT
BRANCH   4  12
HETATM   12  C   UNL     1      41.534 -15.922   3.296  1.00  0.00    -0.048 A 
HETATM   13  C   UNL     1      42.538 -15.235   2.585  1.00  0.00     0.009 A 
HETATM   14  C   UNL     1      42.220 -14.388   1.521  1.00  0.00     0.019 A 
HETATM   15  C   UNL     1      40.890 -14.218   1.153  1.00  0.00     0.011 A 
HETATM   16 BR   UNL     1      40.456 -13.071  -0.285  1.00  0.00    -0.051 Br
HETATM   17  C   UNL     1      39.878 -14.885   1.839  1.00  0.00     0.019 A 
HETATM   18  C   UNL     1      40.199 -15.730   2.906  1.00  0.00     0.009 A 
ENDBRANCH   4  12
BRANCH   3  19
HETATM   19  C   UNL     1      41.749 -14.647   5.816  1.00  0.00     0.266 C 
HETATM   20  O   UNL     1      42.636 -13.867   5.502  1.00  0.00    -0.265 OA
BRANCH  19  21
HETATM   21  O   UNL     1      40.471 -14.293   6.142  1.00  0.00    -0.326 OA
HETATM   22  C   UNL     1      40.032 -13.063   5.568  1.00  0.00     0.213 C 
ENDBRANCH  19  21
ENDBRANCH   3  19
BRANCH   2  23
HETATM   23  O   UNL     1      42.824 -17.891   7.331  1.00  0.00    -0.389 OA
HETATM   24  H   UNL     1      42.738 -17.834   8.300  1.00  0.00     0.210 HD
ENDBRANCH   2  23
BRANCH  10  25
HETATM   25  O   UNL     1      42.672 -19.036   2.223  1.00  0.00    -0.343 OA
HETATM   26  H   UNL     1      43.227 -19.737   1.840  1.00  0.00     0.219 HD
ENDBRANCH  10  25
TORSDOF 5
ENDMDL
MODEL 2
REMARK VINA RESULT:      -6.7      3.153      4.846
REMARK  5 active torsions:
REMARK  status: ('A' for Active; 'I' for Inactive)
REMARK    1  A    between atoms: C_2  and  O_3 
REMARK    2  A    between atoms: C_4  and  C_5 
REMARK    3  A    between atoms: C_5  and  O_6 
REMARK    4  A    between atoms: C_9  and  C_10 
REMARK    5  A    between atoms: C_22  and  O_23 
ROOT
HETATM    1  C   UNL     1      42.564 -11.001   3.018  1.00  0.00     0.047 C 
HETATM    2  C   UNL     1      42.272 -12.105   4.046  1.00  0.00     0.073 C 
HETATM    3  C   UNL     1      41.769 -13.445   3.399  1.00  0.00     0.133 C 
HETATM    4  C   UNL     1      41.678 -14.681   4.363  1.00  0.00     0.074 C 
HETATM    5  C   UNL     1      42.377 -14.457   5.664  1.00  0.00     0.030 A 
HETATM    6  C   UNL     1      43.210 -13.392   5.918  1.00  0.00     0.042 A 
HETATM    7  N   UNL     1      43.638 -13.515   7.209  1.00  0.00    -0.279 N 
HETATM    8  H   UNL     1      44.263 -12.910   7.733  1.00  0.00     0.189 HD
HETATM    9  N   UNL     1      43.078 -14.570   7.841  1.00  0.00    -0.149 NA
HETATM   10  C   UNL     1      42.328 -15.117   6.893  1.00  0.00     0.190 A 
HETATM   11  C   UNL     1      43.504 -12.283   4.980  1.00  0.00     0.097 C 
ENDROOT
BRANCH   4  12
HETATM   12  C   UNL     1      42.227 -16.006   3.838  1.00  0.00    -0.048 A 
HETATM   13  C   UNL     1      43.434 -16.563   4.305  1.00  0.00     0.009 A 
HETATM   14  C   UNL     1      43.926 -17.762   3.785  1.00  0.00     0.019 A 
HETATM   15  C   UNL     1      43.214 -18.422   2.788  1.00  0.00     0.011 A 
HETATM   16 BR   UNL     1      43.878 -20.043   2.081  1.00  0.00    -0.051 Br
HETATM   17  C   UNL     1      42.018 -17.893   2.310  1.00  0.00     0.019 A 
HETATM   18  C   UNL     1      41.529 -16.691   2.830  1.00  0.00     0.009 A 
ENDBRANCH   4  12
BRANCH   3  19
HETATM   19  C   UNL     1      42.520 -13.769   2.125  1.00  0.00     0.266 C 
HETATM   20  O   UNL     1      43.709 -14.049   2.060  1.00  0.00    -0.265 OA
BRANCH  19  21
HETATM   21  O   UNL     1      41.669 -13.707   1.059  1.00  0.00    -0.326 OA
HETATM   22  C   UNL     1      40.309 -13.449   1.401  1.00  0.00     0.213 C 
ENDBRANCH  19  21
ENDBRANCH   3  19
BRANCH   2  23
HETATM   23  O   UNL     1      41.175 -11.563   4.826  1.00  0.00    -0.389 OA
HETATM   24  H   UNL     1      40.794 -12.280   5.365  1.00  0.00     0.210 HD
ENDBRANCH   2  23
BRANCH  10  25
HETATM   25  O   UNL     1      41.618 -16.176   7.265  1.00  0.00    -0.343 OA
HETATM   26  H   UNL     1      42.145 -16.590   7.969  1.00  0.00     0.219 HD
ENDBRANCH  10  25
TORSDOF 5
ENDMDL
MODEL 3
REMARK VINA RESULT:      -6.6      2.779      4.268
REMARK  5 active torsions:
REMARK  status: ('A' for Active; 'I' for Inactive)
REMARK    1  A    between atoms: C_2  and  O_3 
REMARK    2  A    between atoms: C_4  and  C_5 
REMARK    3  A    between atoms: C_5  and  O_6 
REMARK    4  A    between atoms: C_9  and  C_10 
REMARK    5  A    between atoms: C_22  and  O_23 
ROOT
HETATM    1  C   UNL     1      42.984 -17.703   6.362  1.00  0.00     0.047 C 
HETATM    2  C   UNL     1      43.376 -16.254   6.034  1.00  0.00     0.073 C 
HETATM    3  C   UNL     1      43.027 -15.828   4.563  1.00  0.00     0.133 C 
HETATM    4  C   UNL     1      43.182 -14.301   4.234  1.00  0.00     0.074 C 
HETATM    5  C   UNL     1      43.339 -13.456   5.456  1.00  0.00     0.030 A 
HETATM    6  C   UNL     1      43.137 -13.911   6.740  1.00  0.00     0.042 A 
HETATM    7  N   UNL     1      43.396 -12.867   7.581  1.00  0.00    -0.279 N 
HETATM    8  H   UNL     1      43.347 -12.840   8.595  1.00  0.00     0.189 HD
HETATM    9  N   UNL     1      43.821 -11.767   6.924  1.00  0.00    -0.149 NA
HETATM   10  C   UNL     1      43.778 -12.146   5.654  1.00  0.00     0.190 A 
HETATM   11  C   UNL     1      42.791 -15.302   7.117  1.00  0.00     0.097 C 
ENDROOT
BRANCH   4  12
HETATM   12  C   UNL     1      42.053 -13.649   3.440  1.00  0.00    -0.048 A 
HETATM   13  C   UNL     1      40.889 -13.146   4.055  1.00  0.00     0.009 A 
HETATM   14  C   UNL     1      39.859 -12.581   3.299  1.00  0.00     0.019 A 
HETATM   15  C   UNL     1      39.981 -12.511   1.916  1.00  0.00     0.011 A 
HETATM   16 BR   UNL     1      38.588 -11.750   0.891  1.00  0.00    -0.051 Br
HETATM   17  C   UNL     1      41.121 -13.001   1.284  1.00  0.00     0.019 A 
HETATM   18  C   UNL     1      42.149 -13.569   2.042  1.00  0.00     0.009 A 
ENDBRANCH   4  12
BRANCH   3  19
HETATM   19  C   UNL     1      41.684 -16.373   4.125  1.00  0.00     0.266 C 
HETATM   20  O   UNL     1      40.654 -16.317   4.781  1.00  0.00    -0.265 OA
BRANCH  19  21
HETATM   21  O   UNL     1      41.795 -16.932   2.884  1.00  0.00    -0.326 OA
HETATM   22  C   UNL     1      43.006 -17.653   2.665  1.00  0.00     0.213 C 
ENDBRANCH  19  21
ENDBRANCH   3  19
BRANCH   2  23
HETATM   23  O   UNL     1      44.821 -16.256   6.153  1.00  0.00    -0.389 OA
HETATM   24  H   UNL     1      45.056 -16.441   7.081  1.00  0.00     0.210 HD
ENDBRANCH   2  23
BRANCH  10  25
HETATM   25  O   UNL     1      44.194 -11.244   4.772  1.00  0.00    -0.343 OA
HETATM   26  H   UNL     1      44.854 -11.713   4.235  1.00  0.00     0.219 HD
ENDBRANCH  10  25
TORSDOF 5
ENDMDL
MODEL 4
REMARK VINA RESULT:      -6.5      2.553      4.335
REMARK  5 active torsions:
REMARK  status: ('A' for Active; 'I' for Inactive)
REMARK    1  A    between atoms: C_2  and  O_3 
REMARK    2  A    between atoms: C_4  and  C_5 
REMARK    3  A    between atoms: C_5  and  O_6 
REMARK    4  A    between atoms: C_9  and  C_10 
REMARK    5  A    between atoms: C_22  and  O_23 
ROOT
HETATM    1  C   UNL     1      44.267 -17.310   5.287  1.00  0.00     0.047 C 
HETATM    2  C   UNL     1      43.329 -16.093   5.246  1.00  0.00     0.073 C 
HETATM    3  C   UNL     1      43.294 -15.377   3.848  1.00  0.00     0.133 C 
HETATM    4  C   UNL     1      42.187 -14.279   3.666  1.00  0.00     0.074 C 
HETATM    5  C   UNL     1      41.153 -14.311   4.744  1.00  0.00     0.030 A 
HETATM    6  C   UNL     1      41.032 -15.325   5.666  1.00  0.00     0.042 A 
HETATM    7  N   UNL     1      39.999 -14.994   6.495  1.00  0.00    -0.279 N 
HETATM    8  H   UNL     1      39.627 -15.509   7.287  1.00  0.00     0.189 HD
HETATM    9  N   UNL     1      39.474 -13.782   6.208  1.00  0.00    -0.149 NA
HETATM   10  C   UNL     1      40.183 -13.395   5.156  1.00  0.00     0.190 A 
HETATM   11  C   UNL     1      41.924 -16.504   5.775  1.00  0.00     0.097 C 
ENDROOT
BRANCH   4  12
HETATM   12  C   UNL     1      41.401 -14.303   2.358  1.00  0.00    -0.048 A 
HETATM   13  C   UNL     1      40.470 -15.315   2.053  1.00  0.00     0.009 A 
HETATM   14  C   UNL     1      39.787 -15.327   0.835  1.00  0.00     0.019 A 
HETATM   15  C   UNL     1      40.027 -14.323  -0.096  1.00  0.00     0.011 A 
HETATM   16 BR   UNL     1      39.106 -14.338  -1.746  1.00  0.00    -0.051 Br
HETATM   17  C   UNL     1      40.942 -13.311   0.180  1.00  0.00     0.019 A 
HETATM   18  C   UNL     1      41.627 -13.302   1.398  1.00  0.00     0.009 A 
ENDBRANCH   4  12
BRANCH   3  19
HETATM   19  C   UNL     1      43.303 -16.373   2.707  1.00  0.00     0.266 C 
HETATM   20  O   UNL     1      43.861 -16.206   1.632  1.00  0.00    -0.265 OA
BRANCH  19  21
HETATM   21  O   UNL     1      42.598 -17.487   3.061  1.00  0.00    -0.326 OA
HETATM   22  C   UNL     1      42.888 -18.645   2.280  1.00  0.00     0.213 C 
ENDBRANCH  19  21
ENDBRANCH   3  19
BRANCH   2  23
HETATM   23  O   UNL     1      43.927 -15.169   6.191  1.00  0.00    -0.389 OA
HETATM   24  H   UNL     1      44.556 -15.660   6.749  1.00  0.00     0.210 HD
ENDBRANCH   2  23
BRANCH  10  25
HETATM   25  O   UNL     1      39.894 -12.189   4.682  1.00  0.00    -0.343 OA
HETATM   26  H   UNL     1      40.214 -11.575   5.365  1.00  0.00     0.219 HD
ENDBRANCH  10  25
TORSDOF 5
ENDMDL
MODEL 5
REMARK VINA RESULT:      -6.5      4.154      6.473
REMARK  5 active torsions:
REMARK  status: ('A' for Active; 'I' for Inactive)
REMARK    1  A    between atoms: C_2  and  O_3 
REMARK    2  A    between atoms: C_4  and  C_5 
REMARK    3  A    between atoms: C_5  and  O_6 
REMARK    4  A    between atoms: C_9  and  C_10 
REMARK    5  A    between atoms: C_22  and  O_23 
ROOT
HETATM    1  C   UNL     1      40.658 -15.076   0.967  1.00  0.00     0.047 C 
HETATM    2  C   UNL     1      40.265 -14.398   2.289  1.00  0.00     0.073 C 
HETATM    3  C   UNL     1      41.306 -14.625   3.443  1.00  0.00     0.133 C 
HETATM    4  C   UNL     1      41.089 -13.770   4.742  1.00  0.00     0.074 C 
HETATM    5  C   UNL     1      40.111 -12.659   4.551  1.00  0.00     0.030 A 
HETATM    6  C   UNL     1      39.623 -12.263   3.325  1.00  0.00     0.042 A 
HETATM    7  N   UNL     1      38.743 -11.244   3.553  1.00  0.00    -0.279 N 
HETATM    8  H   UNL     1      38.198 -10.711   2.882  1.00  0.00     0.189 HD
HETATM    9  N   UNL     1      38.576 -10.989   4.869  1.00  0.00    -0.149 NA
HETATM   10  C   UNL     1      39.406 -11.850   5.444  1.00  0.00     0.190 A 
HETATM   11  C   UNL     1      39.940 -12.899   2.024  1.00  0.00     0.097 C 
ENDROOT
BRANCH   4  12
HETATM   12  C   UNL     1      42.327 -13.114   5.349  1.00  0.00    -0.048 A 
HETATM   13  C   UNL     1      43.116 -13.749   6.328  1.00  0.00     0.009 A 
HETATM   14  C   UNL     1      44.227 -13.112   6.886  1.00  0.00     0.019 A 
HETATM   15  C   UNL     1      44.563 -11.828   6.470  1.00  0.00     0.011 A 
HETATM   16 BR   UNL     1      46.063 -10.962   7.225  1.00  0.00    -0.051 Br
HETATM   17  C   UNL     1      43.799 -11.178   5.504  1.00  0.00     0.019 A 
HETATM   18  C   UNL     1      42.687 -11.817   4.949  1.00  0.00     0.009 A 
ENDBRANCH   4  12
BRANCH   3  19
HETATM   19  C   UNL     1      42.731 -14.543   2.937  1.00  0.00     0.266 C 
HETATM   20  O   UNL     1      43.193 -13.620   2.282  1.00  0.00    -0.265 OA
BRANCH  19  21
HETATM   21  O   UNL     1      43.424 -15.653   3.327  1.00  0.00    -0.326 OA
HETATM   22  C   UNL     1      42.608 -16.780   3.642  1.00  0.00     0.213 C 
ENDBRANCH  19  21
ENDBRANCH   3  19
BRANCH   2  23
HETATM   23  O   UNL     1      39.041 -15.076   2.670  1.00  0.00    -0.389 OA
HETATM   24  H   UNL     1      39.068 -15.248   3.629  1.00  0.00     0.210 HD
ENDBRANCH   2  23
BRANCH  10  25
HETATM   25  O   UNL     1      39.411 -11.841   6.772  1.00  0.00    -0.343 OA
HETATM   26  H   UNL     1      39.697 -12.736   7.022  1.00  0.00     0.219 HD
ENDBRANCH  10  25
TORSDOF 5
ENDMDL
MODEL 6
REMARK VINA RESULT:      -6.5      4.001      5.936
REMARK  5 active torsions:
REMARK  status: ('A' for Active; 'I' for Inactive)
REMARK    1  A    between atoms: C_2  and  O_3 
REMARK    2  A    between atoms: C_4  and  C_5 
REMARK    3  A    between atoms: C_5  and  O_6 
REMARK    4  A    between atoms: C_9  and  C_10 
REMARK    5  A    between atoms: C_22  and  O_23 
ROOT
HETATM    1  C   UNL     1      40.095 -10.556   4.770  1.00  0.00     0.047 C 
HETATM    2  C   UNL     1      40.311 -11.105   3.351  1.00  0.00     0.073 C 
HETATM    3  C   UNL     1      41.534 -12.084   3.238  1.00  0.00     0.133 C 
HETATM    4  C   UNL     1      41.668 -12.862   1.880  1.00  0.00     0.074 C 
HETATM    5  C   UNL     1      40.440 -12.774   1.036  1.00  0.00     0.030 A 
HETATM    6  C   UNL     1      39.234 -12.276   1.477  1.00  0.00     0.042 A 
HETATM    7  N   UNL     1      38.366 -12.337   0.425  1.00  0.00    -0.279 N 
HETATM    8  H   UNL     1      37.391 -12.056   0.388  1.00  0.00     0.189 HD
HETATM    9  N   UNL     1      38.952 -12.787  -0.705  1.00  0.00    -0.149 NA
HETATM   10  C   UNL     1      40.194 -13.043  -0.312  1.00  0.00     0.190 A 
HETATM   11  C   UNL     1      38.976 -11.705   2.820  1.00  0.00     0.097 C 
ENDROOT
BRANCH   4  12
HETATM   12  C   UNL     1      41.987 -14.352   1.969  1.00  0.00    -0.048 A 
HETATM   13  C   UNL     1      40.995 -15.325   2.203  1.00  0.00     0.009 A 
HETATM   14  C   UNL     1      41.321 -16.679   2.308  1.00  0.00     0.019 A 
HETATM   15  C   UNL     1      42.647 -17.079   2.179  1.00  0.00     0.011 A 
HETATM   16 BR   UNL     1      43.091 -18.910   2.323  1.00  0.00    -0.051 Br
HETATM   17  C   UNL     1      43.646 -16.137   1.948  1.00  0.00     0.019 A 
HETATM   18  C   UNL     1      43.318 -14.782   1.846  1.00  0.00     0.009 A 
ENDBRANCH   4  12
BRANCH   3  19
HETATM   19  C   UNL     1      41.627 -13.007   4.435  1.00  0.00     0.266 C 
HETATM   20  O   UNL     1      40.699 -13.658   4.896  1.00  0.00    -0.265 OA
BRANCH  19  21
HETATM   21  O   UNL     1      42.903 -13.005   4.921  1.00  0.00    -0.326 OA
HETATM   22  C   UNL     1      43.206 -14.095   5.791  1.00  0.00     0.213 C 
ENDBRANCH  19  21
ENDBRANCH   3  19
BRANCH   2  23
HETATM   23  O   UNL     1      40.629  -9.924   2.572  1.00  0.00    -0.389 OA
HETATM   24  H   UNL     1      41.489 -10.063   2.135  1.00  0.00     0.210 HD
ENDBRANCH   2  23
BRANCH  10  25
HETATM   25  O   UNL     1      41.018 -13.471  -1.260  1.00  0.00    -0.343 OA
HETATM   26  H   UNL     1      40.459 -14.009  -1.846  1.00  0.00     0.219 HD
ENDBRANCH  10  25
TORSDOF 5
ENDMDL
MODEL 7
REMARK VINA RESULT:      -6.4      2.754      4.634
REMARK  5 active torsions:
REMARK  status: ('A' for Active; 'I' for Inactive)
REMARK    1  A    between atoms: C_2  and  O_3 
REMARK    2  A    between atoms: C_4  and  C_5 
REMARK    3  A    between atoms: C_5  and  O_6 
REMARK    4  A    between atoms: C_9  and  C_10 
REMARK    5  A    between atoms: C_22  and  O_23 
ROOT
HETATM    1  C   UNL     1      42.451 -17.577   2.679  1.00  0.00     0.047 C 
HETATM    2  C   UNL     1      42.829 -16.639   3.836  1.00  0.00     0.073 C 
HETATM    3  C   UNL     1      42.601 -15.119   3.511  1.00  0.00     0.133 C 
HETATM    4  C   UNL     1      42.740 -14.128   4.721  1.00  0.00     0.074 C 
HETATM    5  C   UNL     1      42.764 -14.824   6.042  1.00  0.00     0.030 A 
HETATM    6  C   UNL     1      42.462 -16.155   6.219  1.00  0.00     0.042 A 
HETATM    7  N   UNL     1      42.615 -16.429   7.548  1.00  0.00    -0.279 N 
HETATM    8  H   UNL     1      42.476 -17.309   8.036  1.00  0.00     0.189 HD
HETATM    9  N   UNL     1      43.066 -15.365   8.247  1.00  0.00    -0.149 NA
HETATM   10  C   UNL     1      43.146 -14.417   7.322  1.00  0.00     0.190 A 
HETATM   11  C   UNL     1      42.123 -17.113   5.140  1.00  0.00     0.097 C 
ENDROOT
BRANCH   4  12
HETATM   12  C   UNL     1      41.668 -13.050   4.855  1.00  0.00    -0.048 A 
HETATM   13  C   UNL     1      40.457 -13.269   5.543  1.00  0.00     0.009 A 
HETATM   14  C   UNL     1      39.482 -12.273   5.626  1.00  0.00     0.019 A 
HETATM   15  C   UNL     1      39.705 -11.041   5.020  1.00  0.00     0.011 A 
HETATM   16 BR   UNL     1      38.386  -9.693   5.127  1.00  0.00    -0.051 Br
HETATM   17  C   UNL     1      40.893 -10.799   4.334  1.00  0.00     0.019 A 
HETATM   18  C   UNL     1      41.867 -11.799   4.251  1.00  0.00     0.009 A 
ENDBRANCH   4  12
BRANCH   3  19
HETATM   19  C   UNL     1      41.318 -14.898   2.737  1.00  0.00     0.266 C 
HETATM   20  O   UNL     1      40.217 -15.319   3.065  1.00  0.00    -0.265 OA
BRANCH  19  21
HETATM   21  O   UNL     1      41.573 -14.154   1.621  1.00  0.00    -0.326 OA
HETATM   22  C   UNL     1      40.471 -13.372   1.165  1.00  0.00     0.213 C 
ENDBRANCH  19  21
ENDBRANCH   3  19
BRANCH   2  23
HETATM   23  O   UNL     1      44.258 -16.839   3.986  1.00  0.00    -0.389 OA
HETATM   24  H   UNL     1      44.722 -16.191   3.425  1.00  0.00     0.210 HD
ENDBRANCH   2  23
BRANCH  10  25
HETATM   25  O   UNL     1      43.612 -13.247   7.741  1.00  0.00    -0.343 OA
HETATM   26  H   UNL     1      44.150 -13.462   8.522  1.00  0.00     0.219 HD
ENDBRANCH  10  25
TORSDOF 5
ENDMDL
MODEL 8
REMARK VINA RESULT:      -6.4      3.037      4.110
REMARK  5 active torsions:
REMARK  status: ('A' for Active; 'I' for Inactive)
REMARK    1  A    between atoms: C_2  and  O_3 
REMARK    2  A    between atoms: C_4  and  C_5 
REMARK    3  A    between atoms: C_5  and  O_6 
REMARK    4  A    between atoms: C_9  and  C_10 
REMARK    5  A    between atoms: C_22  and  O_23 
ROOT
HETATM    1  C   UNL     1      44.945 -11.083   6.429  1.00  0.00     0.047 C 
HETATM    2  C   UNL     1      43.728 -12.013   6.553  1.00  0.00     0.073 C 
HETATM    3  C   UNL     1      42.619 -11.741   5.474  1.00  0.00     0.133 C 
HETATM    4  C   UNL     1      41.464 -12.800   5.394  1.00  0.00     0.074 C 
HETATM    5  C   UNL     1      41.770 -14.054   6.145  1.00  0.00     0.030 A 
HETATM    6  C   UNL     1      43.011 -14.362   6.657  1.00  0.00     0.042 A 
HETATM    7  N   UNL     1      42.895 -15.566   7.291  1.00  0.00    -0.279 N 
HETATM    8  H   UNL     1      43.608 -16.099   7.780  1.00  0.00     0.189 HD
HETATM    9  N   UNL     1      41.630 -16.038   7.280  1.00  0.00    -0.149 NA
HETATM   10  C   UNL     1      40.977 -15.114   6.587  1.00  0.00     0.190 A 
HETATM   11  C   UNL     1      44.209 -13.493   6.597  1.00  0.00     0.097 C 
ENDROOT
BRANCH   4  12
HETATM   12  C   UNL     1      41.048 -13.262   3.999  1.00  0.00    -0.048 A 
HETATM   13  C   UNL     1      41.736 -14.275   3.302  1.00  0.00     0.009 A 
HETATM   14  C   UNL     1      41.350 -14.656   2.014  1.00  0.00     0.019 A 
HETATM   15  C   UNL     1      40.269 -14.027   1.407  1.00  0.00     0.011 A 
HETATM   16 BR   UNL     1      39.747 -14.539  -0.336  1.00  0.00    -0.051 Br
HETATM   17  C   UNL     1      39.572 -13.023   2.074  1.00  0.00     0.019 A 
HETATM   18  C   UNL     1      39.962 -12.641   3.361  1.00  0.00     0.009 A 
ENDBRANCH   4  12
BRANCH   3  19
HETATM   19  C   UNL     1      43.219 -11.446   4.115  1.00  0.00     0.266 C 
HETATM   20  O   UNL     1      44.144 -12.063   3.605  1.00  0.00    -0.265 OA
BRANCH  19  21
HETATM   21  O   UNL     1      42.570 -10.390   3.543  1.00  0.00    -0.326 OA
HETATM   22  C   UNL     1      41.920  -9.522   4.469  1.00  0.00     0.213 C 
ENDBRANCH  19  21
ENDBRANCH   3  19
BRANCH   2  23
HETATM   23  O   UNL     1      43.167 -11.671   7.846  1.00  0.00    -0.389 OA
HETATM   24  H   UNL     1      43.747 -11.014   8.272  1.00  0.00     0.210 HD
ENDBRANCH   2  23
BRANCH  10  25
HETATM   25  O   UNL     1      39.671 -15.313   6.456  1.00  0.00    -0.343 OA
HETATM   26  H   UNL     1      39.327 -14.470   6.114  1.00  0.00     0.219 HD
ENDBRANCH  10  25
TORSDOF 5
ENDMDL
MODEL 9
REMARK VINA RESULT:      -6.3     14.010     16.130
REMARK  5 active torsions:
REMARK  status: ('A' for Active; 'I' for Inactive)
REMARK    1  A    between atoms: C_2  and  O_3 
REMARK    2  A    between atoms: C_4  and  C_5 
REMARK    3  A    between atoms: C_5  and  O_6 
REMARK    4  A    between atoms: C_9  and  C_10 
REMARK    5  A    between atoms: C_22  and  O_23 
ROOT
HETATM    1  C   UNL     1      51.345 -31.599   0.825  1.00  0.00     0.047 C 
HETATM    2  C   UNL     1      50.146 -30.726   1.229  1.00  0.00     0.073 C 
HETATM    3  C   UNL     1      49.551 -29.891   0.039  1.00  0.00     0.133 C 
HETATM    4  C   UNL     1      48.188 -29.164   0.324  1.00  0.00     0.074 C 
HETATM    5  C   UNL     1      47.528 -29.636   1.578  1.00  0.00     0.030 A 
HETATM    6  C   UNL     1      47.929 -30.744   2.290  1.00  0.00     0.042 A 
HETATM    7  N   UNL     1      47.107 -30.842   3.377  1.00  0.00    -0.279 N 
HETATM    8  H   UNL     1      47.111 -31.537   4.117  1.00  0.00     0.189 HD
HETATM    9  N   UNL     1      46.227 -29.820   3.453  1.00  0.00    -0.149 NA
HETATM   10  C   UNL     1      46.500 -29.113   2.364  1.00  0.00     0.190 A 
HETATM   11  C   UNL     1      49.093 -31.602   1.968  1.00  0.00     0.097 C 
ENDROOT
BRANCH   4  12
HETATM   12  C   UNL     1      47.114 -29.267  -0.756  1.00  0.00    -0.048 A 
HETATM   13  C   UNL     1      46.191 -30.330  -0.806  1.00  0.00     0.009 A 
HETATM   14  C   UNL     1      45.237 -30.412  -1.824  1.00  0.00     0.019 A 
HETATM   15  C   UNL     1      45.195 -29.429  -2.807  1.00  0.00     0.011 A 
HETATM   16 BR   UNL     1      43.908 -29.539  -4.185  1.00  0.00    -0.051 Br
HETATM   17  C   UNL     1      46.096 -28.367  -2.780  1.00  0.00     0.019 A 
HETATM   18  C   UNL     1      47.052 -28.289  -1.762  1.00  0.00     0.009 A 
ENDBRANCH   4  12
BRANCH   3  19
HETATM   19  C   UNL     1      49.512 -30.693  -1.245  1.00  0.00     0.266 C 
HETATM   20  O   UNL     1      48.962 -31.776  -1.382  1.00  0.00    -0.265 OA
BRANCH  19  21
HETATM   21  O   UNL     1      50.181 -30.022  -2.228  1.00  0.00    -0.326 OA
HETATM   22  C   UNL     1      51.469 -30.553  -2.537  1.00  0.00     0.213 C 
ENDBRANCH  19  21
ENDBRANCH   3  19
BRANCH   2  23
HETATM   23  O   UNL     1      50.713 -29.786   2.177  1.00  0.00    -0.389 OA
HETATM   24  H   UNL     1      51.241 -30.282   2.828  1.00  0.00     0.210 HD
ENDBRANCH   2  23
BRANCH  10  25
HETATM   25  O   UNL     1      45.789 -28.003   2.209  1.00  0.00    -0.343 OA
HETATM   26  H   UNL     1      46.339 -27.303   2.600  1.00  0.00     0.219 HD
ENDBRANCH  10  25
TORSDOF 5
ENDMDL
MODEL 10
REMARK VINA RESULT:      -6.2      3.254      4.975
REMARK  5 active torsions:
REMARK  status: ('A' for Active; 'I' for Inactive)
REMARK    1  A    between atoms: C_2  and  O_3 
REMARK    2  A    between atoms: C_4  and  C_5 
REMARK    3  A    between atoms: C_5  and  O_6 
REMARK    4  A    between atoms: C_9  and  C_10 
REMARK    5  A    between atoms: C_22  and  O_23 
ROOT
HETATM    1  C   UNL     1      43.555 -16.769   4.066  1.00  0.00     0.047 C 
HETATM    2  C   UNL     1      42.401 -15.970   3.442  1.00  0.00     0.073 C 
HETATM    3  C   UNL     1      41.519 -15.214   4.499  1.00  0.00     0.133 C 
HETATM    4  C   UNL     1      40.474 -14.195   3.919  1.00  0.00     0.074 C 
HETATM    5  C   UNL     1      40.701 -13.886   2.476  1.00  0.00     0.030 A 
HETATM    6  C   UNL     1      41.829 -14.254   1.777  1.00  0.00     0.042 A 
HETATM    7  N   UNL     1      41.665 -13.819   0.493  1.00  0.00    -0.279 N 
HETATM    8  H   UNL     1      42.297 -13.914  -0.297  1.00  0.00     0.189 HD
HETATM    9  N   UNL     1      40.461 -13.241   0.292  1.00  0.00    -0.149 NA
HETATM   10  C   UNL     1      39.904 -13.294   1.495  1.00  0.00     0.190 A 
HETATM   11  C   UNL     1      42.957 -15.050   2.316  1.00  0.00     0.097 C 
ENDROOT
BRANCH   4  12
HETATM   12  C   UNL     1      40.381 -12.837   4.610  1.00  0.00    -0.048 A 
HETATM   13  C   UNL     1      41.176 -11.738   4.228  1.00  0.00     0.009 A 
HETATM   14  C   UNL     1      41.090 -10.516   4.897  1.00  0.00     0.019 A 
HETATM   15  C   UNL     1      40.203 -10.375   5.959  1.00  0.00     0.011 A 
HETATM   16 BR   UNL     1      40.086  -8.723   6.868  1.00  0.00    -0.051 Br
HETATM   17  C   UNL     1      39.405 -11.445   6.356  1.00  0.00     0.019 A 
HETATM   18  C   UNL     1      39.496 -12.669   5.687  1.00  0.00     0.009 A 
ENDBRANCH   4  12
BRANCH   3  19
HETATM   19  C   UNL     1      42.362 -14.603   5.599  1.00  0.00     0.266 C 
HETATM   20  O   UNL     1      43.327 -13.873   5.422  1.00  0.00    -0.265 OA
BRANCH  19  21
HETATM   21  O   UNL     1      41.879 -14.987   6.817  1.00  0.00    -0.326 OA
HETATM   22  C   UNL     1      42.828 -15.656   7.646  1.00  0.00     0.213 C 
ENDBRANCH  19  21
ENDBRANCH   3  19
BRANCH   2  23
HETATM   23  O   UNL     1      41.568 -16.991   2.834  1.00  0.00    -0.389 OA
HETATM   24  H   UNL     1      40.938 -16.559   2.230  1.00  0.00     0.210 HD
ENDBRANCH   2  23
BRANCH  10  25
HETATM   25  O   UNL     1      38.668 -12.817   1.575  1.00  0.00    -0.343 OA
HETATM   26  H   UNL     1      38.649 -12.077   0.945  1.00  0.00     0.219 HD
ENDBRANCH  10  25
TORSDOF 5
ENDMDL
