MODEL 1
REMARK VINA RESULT:      -9.0      0.000      0.000
REMARK  3 active torsions:
REMARK  status: ('A' for Active; 'I' for Inactive)
REMARK    1  A    between atoms: C_3  and  N_4 
REMARK       I    between atoms: N_4  and  C_5 
REMARK    2  A    between atoms: C_5  and  C_6 
REMARK    3  A    between atoms: C_17  and  O_18 
ROOT
HETATM    1  C   UNL     1      43.192 -14.232   6.818  1.00  0.00     0.153 A 
HETATM    2  N   UNL     1      43.136 -14.912   7.986  1.00  0.00    -0.168 NA
HETATM    3  N   UNL     1      43.211 -16.209   7.619  1.00  0.00    -0.276 N 
HETATM    4  H   UNL     1      43.165 -16.918   8.341  1.00  0.00     0.189 HD
HETATM    5  C   UNL     1      43.348 -16.388   6.277  1.00  0.00     0.069 A 
HETATM    6  C   UNL     1      43.333 -15.126   5.726  1.00  0.00     0.007 A 
HETATM    7  C   UNL     1      43.510 -14.908   4.264  1.00  0.00     0.048 C 
HETATM    8  C   UNL     1      43.091 -16.158   3.456  1.00  0.00     0.044 C 
HETATM    9  C   UNL     1      43.429 -17.495   4.106  1.00  0.00    -0.043 A 
HETATM   10  C   UNL     1      43.496 -17.615   5.514  1.00  0.00    -0.001 A 
HETATM   11  C   UNL     1      43.580 -18.640   3.313  1.00  0.00     0.044 A 
HETATM   12  C   UNL     1      43.810 -19.890   3.895  1.00  0.00     0.068 A 
HETATM   13  C   UNL     1      43.881 -19.996   5.285  1.00  0.00     0.037 A 
HETATM   14  C   UNL     1      43.723 -18.863   6.095  1.00  0.00     0.017 A 
ENDROOT
BRANCH   1  15
HETATM   15  C   UNL     1      43.137 -12.756   6.779  1.00  0.00     0.277 C 
HETATM   16  N   UNL     1      43.798 -12.192   7.856  1.00  0.00    -0.321 N 
HETATM   17  H   UNL     1      44.234 -12.889   8.452  1.00  0.00     0.169 HD
HETATM   18  O   UNL     1      42.589 -12.154   5.863  1.00  0.00    -0.266 OA
BRANCH  16  19
HETATM   19  C   UNL     1      43.965 -10.828   8.168  1.00  0.00     0.043 A 
HETATM   20  C   UNL     1      45.211 -10.213   7.910  1.00  0.00    -0.035 A 
HETATM   21  C   UNL     1      46.369 -10.951   7.291  1.00  0.00     0.050 C 
HETATM   22  C   UNL     1      45.403  -8.863   8.259  1.00  0.00     0.012 A 
HETATM   23  C   UNL     1      44.373  -8.123   8.834  1.00  0.00     0.043 A 
HETATM   24  C   UNL     1      43.151  -8.733   9.067  1.00  0.00     0.118 A 
HETATM   25  C   UNL     1      42.939 -10.068   8.741  1.00  0.00     0.072 A 
HETATM   26  F   UNL     1      42.162  -8.025   9.629  1.00  0.00    -0.206 F 
ENDBRANCH  16  19
ENDBRANCH   1  15
BRANCH  12  27
HETATM   27  O   UNL     1      43.945 -20.917   3.001  1.00  0.00    -0.356 OA
HETATM   28  C   UNL     1      43.635 -20.634   1.643  1.00  0.00     0.210 C 
ENDBRANCH  12  27
TORSDOF 3
ENDMDL
MODEL 2
REMARK VINA RESULT:      -8.9      1.664      2.352
REMARK  3 active torsions:
REMARK  status: ('A' for Active; 'I' for Inactive)
REMARK    1  A    between atoms: C_3  and  N_4 
REMARK       I    between atoms: N_4  and  C_5 
REMARK    2  A    between atoms: C_5  and  C_6 
REMARK    3  A    between atoms: C_17  and  O_18 
ROOT
HETATM    1  C   UNL     1      42.852 -12.784   5.354  1.00  0.00     0.153 A 
HETATM    2  N   UNL     1      42.526 -12.542   4.063  1.00  0.00    -0.168 NA
HETATM    3  N   UNL     1      42.693 -13.733   3.450  1.00  0.00    -0.276 N 
HETATM    4  H   UNL     1      42.524 -13.789   2.453  1.00  0.00     0.189 HD
HETATM    5  C   UNL     1      43.075 -14.730   4.294  1.00  0.00     0.069 A 
HETATM    6  C   UNL     1      43.194 -14.148   5.536  1.00  0.00     0.007 A 
HETATM    7  C   UNL     1      43.552 -14.943   6.742  1.00  0.00     0.048 C 
HETATM    8  C   UNL     1      44.336 -16.220   6.358  1.00  0.00     0.044 C 
HETATM    9  C   UNL     1      43.887 -16.895   5.067  1.00  0.00    -0.043 A 
HETATM   10  C   UNL     1      43.316 -16.136   4.019  1.00  0.00    -0.001 A 
HETATM   11  C   UNL     1      44.130 -18.261   4.871  1.00  0.00     0.044 A 
HETATM   12  C   UNL     1      43.799 -18.881   3.663  1.00  0.00     0.068 A 
HETATM   13  C   UNL     1      43.229 -18.125   2.637  1.00  0.00     0.037 A 
HETATM   14  C   UNL     1      42.988 -16.755   2.812  1.00  0.00     0.017 A 
ENDROOT
BRANCH   1  15
HETATM   15  C   UNL     1      42.802 -11.719   6.378  1.00  0.00     0.277 C 
HETATM   16  N   UNL     1      43.879 -11.792   7.244  1.00  0.00    -0.321 N 
HETATM   17  H   UNL     1      44.527 -12.534   6.996  1.00  0.00     0.169 HD
HETATM   18  O   UNL     1      41.911 -10.878   6.392  1.00  0.00    -0.266 OA
BRANCH  16  19
HETATM   19  C   UNL     1      44.182 -10.961   8.341  1.00  0.00     0.043 A 
HETATM   20  C   UNL     1      45.465 -10.375   8.423  1.00  0.00    -0.035 A 
HETATM   21  C   UNL     1      46.523 -10.582   7.370  1.00  0.00     0.050 C 
HETATM   22  C   UNL     1      45.794  -9.579   9.537  1.00  0.00     0.012 A 
HETATM   23  C   UNL     1      44.862  -9.347  10.545  1.00  0.00     0.043 A 
HETATM   24  C   UNL     1      43.603  -9.914  10.445  1.00  0.00     0.118 A 
HETATM   25  C   UNL     1      43.256 -10.713   9.360  1.00  0.00     0.072 A 
HETATM   26  F   UNL     1      42.708  -9.700  11.419  1.00  0.00    -0.206 F 
ENDBRANCH  16  19
ENDBRANCH   1  15
BRANCH  12  27
HETATM   27  O   UNL     1      44.085 -20.218   3.614  1.00  0.00    -0.356 OA
HETATM   28  C   UNL     1      44.045 -20.931   4.842  1.00  0.00     0.210 C 
ENDBRANCH  12  27
TORSDOF 3
ENDMDL
MODEL 3
REMARK VINA RESULT:      -8.6      5.416      6.978
REMARK  3 active torsions:
REMARK  status: ('A' for Active; 'I' for Inactive)
REMARK    1  A    between atoms: C_3  and  N_4 
REMARK       I    between atoms: N_4  and  C_5 
REMARK    2  A    between atoms: C_5  and  C_6 
REMARK    3  A    between atoms: C_17  and  O_18 
ROOT
HETATM    1  C   UNL     1      41.883 -13.168   2.868  1.00  0.00     0.153 A 
HETATM    2  N   UNL     1      41.481 -12.927   4.138  1.00  0.00    -0.168 NA
HETATM    3  N   UNL     1      41.804 -14.054   4.807  1.00  0.00    -0.276 N 
HETATM    4  H   UNL     1      41.572 -14.112   5.792  1.00  0.00     0.189 HD
HETATM    5  C   UNL     1      42.426 -14.986   4.036  1.00  0.00     0.069 A 
HETATM    6  C   UNL     1      42.488 -14.447   2.770  1.00  0.00     0.007 A 
HETATM    7  C   UNL     1      43.150 -15.162   1.646  1.00  0.00     0.048 C 
HETATM    8  C   UNL     1      43.167 -16.690   1.886  1.00  0.00     0.044 C 
HETATM    9  C   UNL     1      43.377 -17.118   3.334  1.00  0.00    -0.043 A 
HETATM   10  C   UNL     1      42.950 -16.291   4.399  1.00  0.00    -0.001 A 
HETATM   11  C   UNL     1      43.907 -18.383   3.619  1.00  0.00     0.044 A 
HETATM   12  C   UNL     1      44.033 -18.827   4.939  1.00  0.00     0.068 A 
HETATM   13  C   UNL     1      43.615 -18.000   5.983  1.00  0.00     0.037 A 
HETATM   14  C   UNL     1      43.073 -16.735   5.716  1.00  0.00     0.017 A 
ENDROOT
BRANCH   1  15
HETATM   15  C   UNL     1      41.706 -12.165   1.797  1.00  0.00     0.277 C 
HETATM   16  N   UNL     1      40.767 -12.573   0.867  1.00  0.00    -0.321 N 
HETATM   17  H   UNL     1      40.341 -13.463   1.109  1.00  0.00     0.169 HD
HETATM   18  O   UNL     1      42.318 -11.104   1.799  1.00  0.00    -0.266 OA
BRANCH  16  19
HETATM   19  C   UNL     1      40.325 -11.898  -0.289  1.00  0.00     0.043 A 
HETATM   20  C   UNL     1      39.104 -11.188  -0.244  1.00  0.00    -0.035 A 
HETATM   21  C   UNL     1      38.259 -11.101   1.001  1.00  0.00     0.050 C 
HETATM   22  C   UNL     1      38.631 -10.548  -1.405  1.00  0.00     0.012 A 
HETATM   23  C   UNL     1      39.364 -10.589  -2.588  1.00  0.00     0.043 A 
HETATM   24  C   UNL     1      40.566 -11.275  -2.615  1.00  0.00     0.118 A 
HETATM   25  C   UNL     1      41.051 -11.925  -1.485  1.00  0.00     0.072 A 
HETATM   26  F   UNL     1      41.267 -11.324  -3.756  1.00  0.00    -0.206 F 
ENDBRANCH  16  19
ENDBRANCH   1  15
BRANCH  12  27
HETATM   27  O   UNL     1      44.573 -20.077   5.069  1.00  0.00    -0.356 OA
HETATM   28  C   UNL     1      43.968 -21.122   4.319  1.00  0.00     0.210 C 
ENDBRANCH  12  27
TORSDOF 3
ENDMDL
MODEL 4
REMARK VINA RESULT:      -8.5      2.289      2.404
REMARK  3 active torsions:
REMARK  status: ('A' for Active; 'I' for Inactive)
REMARK    1  A    between atoms: C_3  and  N_4 
REMARK       I    between atoms: N_4  and  C_5 
REMARK    2  A    between atoms: C_5  and  C_6 
REMARK    3  A    between atoms: C_17  and  O_18 
ROOT
HETATM    1  C   UNL     1      43.150 -14.666   6.935  1.00  0.00     0.153 A 
HETATM    2  N   UNL     1      43.092 -15.390   8.077  1.00  0.00    -0.168 NA
HETATM    3  N   UNL     1      43.184 -16.671   7.662  1.00  0.00    -0.276 N 
HETATM    4  H   UNL     1      43.140 -17.407   8.357  1.00  0.00     0.189 HD
HETATM    5  C   UNL     1      43.335 -16.798   6.315  1.00  0.00     0.069 A 
HETATM    6  C   UNL     1      43.310 -15.516   5.812  1.00  0.00     0.007 A 
HETATM    7  C   UNL     1      43.497 -15.241   4.362  1.00  0.00     0.048 C 
HETATM    8  C   UNL     1      43.099 -16.465   3.503  1.00  0.00     0.044 C 
HETATM    9  C   UNL     1      43.446 -17.822   4.106  1.00  0.00    -0.043 A 
HETATM   10  C   UNL     1      43.502 -17.994   5.508  1.00  0.00    -0.001 A 
HETATM   11  C   UNL     1      43.616 -18.934   3.272  1.00  0.00     0.044 A 
HETATM   12  C   UNL     1      43.855 -20.203   3.809  1.00  0.00     0.068 A 
HETATM   13  C   UNL     1      43.915 -20.361   5.194  1.00  0.00     0.037 A 
HETATM   14  C   UNL     1      43.738 -19.261   6.044  1.00  0.00     0.017 A 
ENDROOT
BRANCH   1  15
HETATM   15  C   UNL     1      43.079 -13.189   6.951  1.00  0.00     0.277 C 
HETATM   16  N   UNL     1      42.036 -12.721   6.171  1.00  0.00    -0.321 N 
HETATM   17  H   UNL     1      41.487 -13.472   5.765  1.00  0.00     0.169 HD
HETATM   18  O   UNL     1      43.853 -12.513   7.617  1.00  0.00    -0.266 OA
BRANCH  16  19
HETATM   19  C   UNL     1      41.648 -11.387   5.935  1.00  0.00     0.043 A 
HETATM   20  C   UNL     1      42.217 -10.689   4.846  1.00  0.00    -0.035 A 
HETATM   21  C   UNL     1      43.212 -11.320   3.907  1.00  0.00     0.050 C 
HETATM   22  C   UNL     1      41.870  -9.342   4.628  1.00  0.00     0.012 A 
HETATM   23  C   UNL     1      40.956  -8.700   5.459  1.00  0.00     0.043 A 
HETATM   24  C   UNL     1      40.393  -9.399   6.513  1.00  0.00     0.118 A 
HETATM   25  C   UNL     1      40.727 -10.727   6.757  1.00  0.00     0.072 A 
HETATM   26  F   UNL     1      39.521  -8.779   7.320  1.00  0.00    -0.206 F 
ENDBRANCH  16  19
ENDBRANCH   1  15
BRANCH  12  27
HETATM   27  O   UNL     1      44.009 -21.194   2.878  1.00  0.00    -0.356 OA
HETATM   28  C   UNL     1      43.878 -20.822   1.512  1.00  0.00     0.210 C 
ENDBRANCH  12  27
TORSDOF 3
ENDMDL
MODEL 5
REMARK VINA RESULT:      -8.5      5.589      7.427
REMARK  3 active torsions:
REMARK  status: ('A' for Active; 'I' for Inactive)
REMARK    1  A    between atoms: C_3  and  N_4 
REMARK       I    between atoms: N_4  and  C_5 
REMARK    2  A    between atoms: C_5  and  C_6 
REMARK    3  A    between atoms: C_17  and  O_18 
ROOT
HETATM    1  C   UNL     1      40.759 -13.696   2.544  1.00  0.00     0.153 A 
HETATM    2  N   UNL     1      40.241 -13.519   3.782  1.00  0.00    -0.168 NA
HETATM    3  N   UNL     1      40.758 -14.534   4.506  1.00  0.00    -0.276 N 
HETATM    4  H   UNL     1      40.488 -14.619   5.479  1.00  0.00     0.189 HD
HETATM    5  C   UNL     1      41.609 -15.328   3.800  1.00  0.00     0.069 A 
HETATM    6  C   UNL     1      41.627 -14.816   2.522  1.00  0.00     0.007 A 
HETATM    7  C   UNL     1      42.492 -15.397   1.459  1.00  0.00     0.048 C 
HETATM    8  C   UNL     1      42.821 -16.880   1.752  1.00  0.00     0.044 C 
HETATM    9  C   UNL     1      43.034 -17.220   3.223  1.00  0.00    -0.043 A 
HETATM   10  C   UNL     1      42.379 -16.481   4.235  1.00  0.00    -0.001 A 
HETATM   11  C   UNL     1      43.805 -18.334   3.578  1.00  0.00     0.044 A 
HETATM   12  C   UNL     1      43.946 -18.710   4.917  1.00  0.00     0.068 A 
HETATM   13  C   UNL     1      43.301 -17.970   5.909  1.00  0.00     0.037 A 
HETATM   14  C   UNL     1      42.518 -16.858   5.571  1.00  0.00     0.017 A 
ENDROOT
BRANCH   1  15
HETATM   15  C   UNL     1      40.434 -12.779   1.432  1.00  0.00     0.277 C 
HETATM   16  N   UNL     1      39.246 -13.129   0.813  1.00  0.00    -0.321 N 
HETATM   17  H   UNL     1      38.795 -13.922   1.259  1.00  0.00     0.169 HD
HETATM   18  O   UNL     1      41.146 -11.822   1.154  1.00  0.00    -0.266 OA
BRANCH  16  19
HETATM   19  C   UNL     1      38.607 -12.505  -0.276  1.00  0.00     0.043 A 
HETATM   20  C   UNL     1      38.599 -13.156  -1.531  1.00  0.00    -0.035 A 
HETATM   21  C   UNL     1      39.228 -14.508  -1.750  1.00  0.00     0.050 C 
HETATM   22  C   UNL     1      38.002 -12.522  -2.638  1.00  0.00     0.012 A 
HETATM   23  C   UNL     1      37.402 -11.273  -2.503  1.00  0.00     0.043 A 
HETATM   24  C   UNL     1      37.403 -10.652  -1.265  1.00  0.00     0.118 A 
HETATM   25  C   UNL     1      37.994 -11.253  -0.158  1.00  0.00     0.072 A 
HETATM   26  F   UNL     1      36.835  -9.446  -1.136  1.00  0.00    -0.206 F 
ENDBRANCH  16  19
ENDBRANCH   1  15
BRANCH  12  27
HETATM   27  O   UNL     1      44.733 -19.812   5.118  1.00  0.00    -0.356 OA
HETATM   28  C   UNL     1      44.084 -21.076   5.117  1.00  0.00     0.210 C 
ENDBRANCH  12  27
TORSDOF 3
ENDMDL
MODEL 6
REMARK VINA RESULT:      -8.5      6.375      9.435
REMARK  3 active torsions:
REMARK  status: ('A' for Active; 'I' for Inactive)
REMARK    1  A    between atoms: C_3  and  N_4 
REMARK       I    between atoms: N_4  and  C_5 
REMARK    2  A    between atoms: C_5  and  C_6 
REMARK    3  A    between atoms: C_17  and  O_18 
ROOT
HETATM    1  C   UNL     1      40.396 -14.544   2.906  1.00  0.00     0.153 A 
HETATM    2  N   UNL     1      40.242 -13.450   3.689  1.00  0.00    -0.168 NA
HETATM    3  N   UNL     1      39.796 -12.497   2.842  1.00  0.00    -0.276 N 
HETATM    4  H   UNL     1      39.627 -11.568   3.209  1.00  0.00     0.189 HD
HETATM    5  C   UNL     1      39.625 -12.939   1.567  1.00  0.00     0.069 A 
HETATM    6  C   UNL     1      40.011 -14.261   1.572  1.00  0.00     0.007 A 
HETATM    7  C   UNL     1      39.918 -15.107   0.351  1.00  0.00     0.048 C 
HETATM    8  C   UNL     1      39.962 -14.246  -0.933  1.00  0.00     0.044 C 
HETATM    9  C   UNL     1      39.244 -12.904  -0.841  1.00  0.00    -0.043 A 
HETATM   10  C   UNL     1      39.133 -12.231   0.398  1.00  0.00    -0.001 A 
HETATM   11  C   UNL     1      38.775 -12.281  -2.004  1.00  0.00     0.044 A 
HETATM   12  C   UNL     1      38.185 -11.015  -1.951  1.00  0.00     0.068 A 
HETATM   13  C   UNL     1      38.075 -10.361  -0.722  1.00  0.00     0.037 A 
HETATM   14  C   UNL     1      38.548 -10.965   0.450  1.00  0.00     0.017 A 
ENDROOT
BRANCH   1  15
HETATM   15  C   UNL     1      40.879 -15.827   3.457  1.00  0.00     0.277 C 
HETATM   16  N   UNL     1      42.058 -16.229   2.856  1.00  0.00    -0.321 N 
HETATM   17  H   UNL     1      42.399 -15.554   2.179  1.00  0.00     0.169 HD
HETATM   18  O   UNL     1      40.285 -16.406   4.359  1.00  0.00    -0.266 OA
BRANCH  16  19
HETATM   19  C   UNL     1      42.821 -17.388   3.107  1.00  0.00     0.043 A 
HETATM   20  C   UNL     1      43.643 -17.432   4.256  1.00  0.00    -0.035 A 
HETATM   21  C   UNL     1      43.722 -16.297   5.243  1.00  0.00     0.050 C 
HETATM   22  C   UNL     1      44.443 -18.566   4.492  1.00  0.00     0.012 A 
HETATM   23  C   UNL     1      44.416 -19.650   3.619  1.00  0.00     0.043 A 
HETATM   24  C   UNL     1      43.595 -19.601   2.505  1.00  0.00     0.118 A 
HETATM   25  C   UNL     1      42.802 -18.488   2.243  1.00  0.00     0.072 A 
HETATM   26  F   UNL     1      43.576 -20.639   1.658  1.00  0.00    -0.206 F 
ENDBRANCH  16  19
ENDBRANCH   1  15
BRANCH  12  27
HETATM   27  O   UNL     1      37.766 -10.531  -3.160  1.00  0.00    -0.356 OA
HETATM   28  C   UNL     1      36.713  -9.577  -3.143  1.00  0.00     0.210 C 
ENDBRANCH  12  27
TORSDOF 3
ENDMDL
MODEL 7
REMARK VINA RESULT:      -8.5      2.436      3.598
REMARK  3 active torsions:
REMARK  status: ('A' for Active; 'I' for Inactive)
REMARK    1  A    between atoms: C_3  and  N_4 
REMARK       I    between atoms: N_4  and  C_5 
REMARK    2  A    between atoms: C_5  and  C_6 
REMARK    3  A    between atoms: C_17  and  O_18 
ROOT
HETATM    1  C   UNL     1      43.736 -11.667   6.626  1.00  0.00     0.153 A 
HETATM    2  N   UNL     1      43.522 -10.883   5.543  1.00  0.00    -0.168 NA
HETATM    3  N   UNL     1      43.245 -11.756   4.551  1.00  0.00    -0.276 N 
HETATM    4  H   UNL     1      43.068 -11.391   3.623  1.00  0.00     0.189 HD
HETATM    5  C   UNL     1      43.235 -13.055   4.957  1.00  0.00     0.069 A 
HETATM    6  C   UNL     1      43.556 -13.034   6.296  1.00  0.00     0.007 A 
HETATM    7  C   UNL     1      43.599 -14.279   7.110  1.00  0.00     0.048 C 
HETATM    8  C   UNL     1      43.863 -15.519   6.224  1.00  0.00     0.044 C 
HETATM    9  C   UNL     1      43.201 -15.491   4.851  1.00  0.00    -0.043 A 
HETATM   10  C   UNL     1      42.947 -14.261   4.200  1.00  0.00    -0.001 A 
HETATM   11  C   UNL     1      42.930 -16.690   4.181  1.00  0.00     0.044 A 
HETATM   12  C   UNL     1      42.398 -16.684   2.888  1.00  0.00     0.068 A 
HETATM   13  C   UNL     1      42.144 -15.466   2.257  1.00  0.00     0.037 A 
HETATM   14  C   UNL     1      42.418 -14.256   2.908  1.00  0.00     0.017 A 
ENDROOT
BRANCH   1  15
HETATM   15  C   UNL     1      44.076 -11.090   7.943  1.00  0.00     0.277 C 
HETATM   16  N   UNL     1      43.040 -10.323   8.447  1.00  0.00    -0.321 N 
HETATM   17  H   UNL     1      42.224 -10.328   7.843  1.00  0.00     0.169 HD
HETATM   18  O   UNL     1      45.146 -11.323   8.493  1.00  0.00    -0.266 OA
BRANCH  16  19
HETATM   19  C   UNL     1      42.983  -9.616   9.664  1.00  0.00     0.043 A 
HETATM   20  C   UNL     1      42.984  -8.202   9.637  1.00  0.00    -0.035 A 
HETATM   21  C   UNL     1      43.020  -7.414   8.353  1.00  0.00     0.050 C 
HETATM   22  C   UNL     1      42.972  -7.485  10.849  1.00  0.00     0.012 A 
HETATM   23  C   UNL     1      42.938  -8.153  12.070  1.00  0.00     0.043 A 
HETATM   24  C   UNL     1      42.922  -9.538  12.083  1.00  0.00     0.118 A 
HETATM   25  C   UNL     1      42.943 -10.270  10.900  1.00  0.00     0.072 A 
HETATM   26  F   UNL     1      42.899 -10.182  13.257  1.00  0.00    -0.206 F 
ENDBRANCH  16  19
ENDBRANCH   1  15
BRANCH  12  27
HETATM   27  O   UNL     1      42.176 -17.926   2.359  1.00  0.00    -0.356 OA
HETATM   28  C   UNL     1      43.258 -18.847   2.399  1.00  0.00     0.210 C 
ENDBRANCH  12  27
TORSDOF 3
ENDMDL
MODEL 8
REMARK VINA RESULT:      -8.4      3.421      9.235
REMARK  3 active torsions:
REMARK  status: ('A' for Active; 'I' for Inactive)
REMARK    1  A    between atoms: C_3  and  N_4 
REMARK       I    between atoms: N_4  and  C_5 
REMARK    2  A    between atoms: C_5  and  C_6 
REMARK    3  A    between atoms: C_17  and  O_18 
ROOT
HETATM    1  C   UNL     1      42.734 -14.028   5.856  1.00  0.00     0.153 A 
HETATM    2  N   UNL     1      41.478 -13.871   5.377  1.00  0.00    -0.168 NA
HETATM    3  N   UNL     1      41.172 -12.588   5.663  1.00  0.00    -0.276 N 
HETATM    4  H   UNL     1      40.253 -12.243   5.411  1.00  0.00     0.189 HD
HETATM    5  C   UNL     1      42.185 -11.909   6.267  1.00  0.00     0.069 A 
HETATM    6  C   UNL     1      43.211 -12.816   6.414  1.00  0.00     0.007 A 
HETATM    7  C   UNL     1      44.522 -12.425   6.999  1.00  0.00     0.048 C 
HETATM    8  C   UNL     1      44.379 -11.195   7.926  1.00  0.00     0.044 C 
HETATM    9  C   UNL     1      43.372 -10.147   7.464  1.00  0.00    -0.043 A 
HETATM   10  C   UNL     1      42.249 -10.520   6.689  1.00  0.00    -0.001 A 
HETATM   11  C   UNL     1      43.501  -8.819   7.889  1.00  0.00     0.044 A 
HETATM   12  C   UNL     1      42.545  -7.860   7.543  1.00  0.00     0.068 A 
HETATM   13  C   UNL     1      41.444  -8.237   6.773  1.00  0.00     0.037 A 
HETATM   14  C   UNL     1      41.294  -9.563   6.346  1.00  0.00     0.017 A 
ENDROOT
BRANCH   1  15
HETATM   15  C   UNL     1      43.449 -15.317   5.743  1.00  0.00     0.277 C 
HETATM   16  N   UNL     1      42.912 -16.113   4.747  1.00  0.00    -0.321 N 
HETATM   17  H   UNL     1      42.155 -15.654   4.249  1.00  0.00     0.169 HD
HETATM   18  O   UNL     1      44.415 -15.583   6.448  1.00  0.00    -0.266 OA
BRANCH  16  19
HETATM   19  C   UNL     1      43.314 -17.400   4.339  1.00  0.00     0.043 A 
HETATM   20  C   UNL     1      43.354 -17.701   2.958  1.00  0.00    -0.035 A 
HETATM   21  C   UNL     1      43.005 -16.691   1.896  1.00  0.00     0.050 C 
HETATM   22  C   UNL     1      43.712 -18.997   2.541  1.00  0.00     0.012 A 
HETATM   23  C   UNL     1      44.047 -19.977   3.472  1.00  0.00     0.043 A 
HETATM   24  C   UNL     1      44.019 -19.665   4.821  1.00  0.00     0.118 A 
HETATM   25  C   UNL     1      43.659 -18.395   5.260  1.00  0.00     0.072 A 
HETATM   26  F   UNL     1      44.331 -20.610   5.718  1.00  0.00    -0.206 F 
ENDBRANCH  16  19
ENDBRANCH   1  15
BRANCH  12  27
HETATM   27  O   UNL     1      42.802  -6.604   8.020  1.00  0.00    -0.356 OA
HETATM   28  C   UNL     1      43.239  -6.503   9.369  1.00  0.00     0.210 C 
ENDBRANCH  12  27
TORSDOF 3
ENDMDL
MODEL 9
REMARK VINA RESULT:      -8.3      3.722      9.049
REMARK  3 active torsions:
REMARK  status: ('A' for Active; 'I' for Inactive)
REMARK    1  A    between atoms: C_3  and  N_4 
REMARK       I    between atoms: N_4  and  C_5 
REMARK    2  A    between atoms: C_5  and  C_6 
REMARK    3  A    between atoms: C_17  and  O_18 
ROOT
HETATM    1  C   UNL     1      42.613 -14.622   6.011  1.00  0.00     0.153 A 
HETATM    2  N   UNL     1      43.463 -14.413   7.044  1.00  0.00    -0.168 NA
HETATM    3  N   UNL     1      43.453 -13.074   7.216  1.00  0.00    -0.276 N 
HETATM    4  H   UNL     1      44.044 -12.677   7.937  1.00  0.00     0.189 HD
HETATM    5  C   UNL     1      42.611 -12.423   6.369  1.00  0.00     0.069 A 
HETATM    6  C   UNL     1      42.055 -13.396   5.569  1.00  0.00     0.007 A 
HETATM    7  C   UNL     1      41.034 -13.071   4.536  1.00  0.00     0.048 C 
HETATM    8  C   UNL     1      41.154 -11.600   4.072  1.00  0.00     0.044 C 
HETATM    9  C   UNL     1      41.525 -10.602   5.164  1.00  0.00    -0.043 A 
HETATM   10  C   UNL     1      42.302 -11.006   6.275  1.00  0.00    -0.001 A 
HETATM   11  C   UNL     1      41.180  -9.252   5.023  1.00  0.00     0.044 A 
HETATM   12  C   UNL     1      41.581  -8.308   5.973  1.00  0.00     0.068 A 
HETATM   13  C   UNL     1      42.342  -8.718   7.069  1.00  0.00     0.037 A 
HETATM   14  C   UNL     1      42.704 -10.063   7.221  1.00  0.00     0.017 A 
ENDROOT
BRANCH   1  15
HETATM   15  C   UNL     1      42.339 -15.980   5.497  1.00  0.00     0.277 C 
HETATM   16  N   UNL     1      43.470 -16.553   4.944  1.00  0.00    -0.321 N 
HETATM   17  H   UNL     1      44.289 -15.958   5.027  1.00  0.00     0.169 HD
HETATM   18  O   UNL     1      41.235 -16.500   5.604  1.00  0.00    -0.266 OA
BRANCH  16  19
HETATM   19  C   UNL     1      43.611 -17.826   4.355  1.00  0.00     0.043 A 
HETATM   20  C   UNL     1      43.395 -17.966   2.965  1.00  0.00    -0.035 A 
HETATM   21  C   UNL     1      43.043 -16.802   2.075  1.00  0.00     0.050 C 
HETATM   22  C   UNL     1      43.489 -19.240   2.373  1.00  0.00     0.012 A 
HETATM   23  C   UNL     1      43.812 -20.357   3.139  1.00  0.00     0.043 A 
HETATM   24  C   UNL     1      44.036 -20.205   4.497  1.00  0.00     0.118 A 
HETATM   25  C   UNL     1      43.940 -18.959   5.108  1.00  0.00     0.072 A 
HETATM   26  F   UNL     1      44.337 -21.281   5.236  1.00  0.00    -0.206 F 
ENDBRANCH  16  19
ENDBRANCH   1  15
BRANCH  12  27
HETATM   27  O   UNL     1      41.168  -7.030   5.713  1.00  0.00    -0.356 OA
HETATM   28  C   UNL     1      41.574  -6.022   6.630  1.00  0.00     0.210 C 
ENDBRANCH  12  27
TORSDOF 3
ENDMDL
MODEL 10
REMARK VINA RESULT:      -8.3      6.501      9.781
REMARK  3 active torsions:
REMARK  status: ('A' for Active; 'I' for Inactive)
REMARK    1  A    between atoms: C_3  and  N_4 
REMARK       I    between atoms: N_4  and  C_5 
REMARK    2  A    between atoms: C_5  and  C_6 
REMARK    3  A    between atoms: C_17  and  O_18 
ROOT
HETATM    1  C   UNL     1      40.586 -14.652   0.833  1.00  0.00     0.153 A 
HETATM    2  N   UNL     1      39.856 -14.916  -0.276  1.00  0.00    -0.168 NA
HETATM    3  N   UNL     1      39.833 -13.744  -0.945  1.00  0.00    -0.276 N 
HETATM    4  H   UNL     1      39.314 -13.695  -1.814  1.00  0.00     0.189 HD
HETATM    5  C   UNL     1      40.542 -12.755  -0.336  1.00  0.00     0.069 A 
HETATM    6  C   UNL     1      41.039 -13.308   0.823  1.00  0.00     0.007 A 
HETATM    7  C   UNL     1      41.918 -12.537   1.744  1.00  0.00     0.048 C 
HETATM    8  C   UNL     1      41.685 -11.015   1.598  1.00  0.00     0.044 C 
HETATM    9  C   UNL     1      41.405 -10.534   0.178  1.00  0.00    -0.043 A 
HETATM   10  C   UNL     1      40.780 -11.387  -0.761  1.00  0.00    -0.001 A 
HETATM   11  C   UNL     1      41.676  -9.206  -0.176  1.00  0.00     0.044 A 
HETATM   12  C   UNL     1      41.353  -8.723  -1.447  1.00  0.00     0.068 A 
HETATM   13  C   UNL     1      40.742  -9.575  -2.369  1.00  0.00     0.037 A 
HETATM   14  C   UNL     1      40.455 -10.903  -2.029  1.00  0.00     0.017 A 
ENDROOT
BRANCH   1  15
HETATM   15  C   UNL     1      40.852 -15.690   1.850  1.00  0.00     0.277 C 
HETATM   16  N   UNL     1      42.175 -16.095   1.831  1.00  0.00    -0.321 N 
HETATM   17  H   UNL     1      42.730 -15.579   1.154  1.00  0.00     0.169 HD
HETATM   18  O   UNL     1      39.980 -16.085   2.613  1.00  0.00    -0.266 OA
BRANCH  16  19
HETATM   19  C   UNL     1      42.811 -17.057   2.641  1.00  0.00     0.043 A 
HETATM   20  C   UNL     1      43.274 -16.678   3.921  1.00  0.00    -0.035 A 
HETATM   21  C   UNL     1      43.097 -15.286   4.471  1.00  0.00     0.050 C 
HETATM   22  C   UNL     1      43.950 -17.619   4.721  1.00  0.00     0.012 A 
HETATM   23  C   UNL     1      44.146 -18.923   4.273  1.00  0.00     0.043 A 
HETATM   24  C   UNL     1      43.674 -19.286   3.023  1.00  0.00     0.118 A 
HETATM   25  C   UNL     1      43.012 -18.373   2.209  1.00  0.00     0.072 A 
HETATM   26  F   UNL     1      43.871 -20.538   2.586  1.00  0.00    -0.206 F 
ENDBRANCH  16  19
ENDBRANCH   1  15
BRANCH  12  27
HETATM   27  O   UNL     1      41.680  -7.411  -1.657  1.00  0.00    -0.356 OA
HETATM   28  C   UNL     1      42.999  -7.012  -1.306  1.00  0.00     0.210 C 
ENDBRANCH  12  27
TORSDOF 3
ENDMDL
