MODEL 1
REMARK VINA RESULT:      -9.1      0.000      0.000
REMARK  2 active torsions:
REMARK  status: ('A' for Active; 'I' for Inactive)
REMARK    1  A    between atoms: O_2  and  C_3 
REMARK    2  A    between atoms: C_5  and  N_6 
REMARK       I    between atoms: N_6  and  C_7 
REMARK       I    between atoms: C_7  and  N_8 
ROOT
HETATM    1  N   UNL     1      43.230 -11.996   7.520  1.00  0.00    -0.307 N 
HETATM    2  C   UNL     1      42.565 -12.118   6.323  1.00  0.00     0.323 C 
HETATM    3  N   UNL     1      42.113 -13.404   6.039  1.00  0.00    -0.328 N 
HETATM    4  C   UNL     1      42.541 -14.630   6.737  1.00  0.00     0.185 C 
HETATM    5  C   UNL     1      42.829 -15.684   5.722  1.00  0.00     0.035 A 
HETATM    6  C   UNL     1      42.580 -15.620   4.365  1.00  0.00    -0.020 A 
HETATM    7  C   UNL     1      41.964 -14.407   3.754  1.00  0.00     0.061 C 
HETATM    8  C   UNL     1      41.251 -13.596   4.854  1.00  0.00     0.132 C 
HETATM    9  N   UNL     1      43.394 -16.899   5.991  1.00  0.00    -0.357 N 
HETATM   10  H   UNL     1      43.687 -17.230   6.901  1.00  0.00     0.166 HD
HETATM   11  C   UNL     1      43.521 -17.624   4.825  1.00  0.00     0.043 A 
HETATM   12  C   UNL     1      43.019 -16.838   3.784  1.00  0.00    -0.001 A 
HETATM   13  C   UNL     1      44.046 -18.906   4.616  1.00  0.00     0.030 A 
HETATM   14  C   UNL     1      44.058 -19.396   3.307  1.00  0.00     0.002 A 
HETATM   15  C   UNL     1      43.566 -18.633   2.250  1.00  0.00     0.001 A 
HETATM   16  C   UNL     1      43.043 -17.355   2.474  1.00  0.00     0.014 A 
HETATM   17  O   UNL     1      42.355 -11.182   5.556  1.00  0.00    -0.247 OA
HETATM   18  H   UNL     1      43.052 -12.710   8.210  1.00  0.00     0.170 HD
ENDROOT
BRANCH   1  19
HETATM   19  C   UNL     1      43.947 -10.880   8.019  1.00  0.00     0.060 A 
HETATM   20  C   UNL     1      43.448 -10.028   9.012  1.00  0.00     0.068 A 
HETATM   21  C   UNL     1      44.199  -8.936   9.460  1.00  0.00     0.070 A 
HETATM   22  C   UNL     1      45.449  -8.678   8.894  1.00  0.00     0.038 A 
HETATM   23  C   UNL     1      45.958  -9.506   7.896  1.00  0.00     0.029 A 
HETATM   24  C   UNL     1      45.211 -10.601   7.463  1.00  0.00     0.061 A 
HETATM   25 CL   UNL     1      45.878 -11.604   6.217  1.00  0.00    -0.082 Cl
BRANCH  21  26
HETATM   26  O   UNL     1      43.822  -8.047  10.430  1.00  0.00    -0.356 OA
HETATM   27  C   UNL     1      43.574  -8.580  11.727  1.00  0.00     0.210 C 
ENDBRANCH  21  26
ENDBRANCH   1  19
TORSDOF 2
ENDMDL
MODEL 2
REMARK VINA RESULT:      -8.5      5.018      7.866
REMARK  2 active torsions:
REMARK  status: ('A' for Active; 'I' for Inactive)
REMARK    1  A    between atoms: O_2  and  C_3 
REMARK    2  A    between atoms: C_5  and  N_6 
REMARK       I    between atoms: N_6  and  C_7 
REMARK       I    between atoms: C_7  and  N_8 
ROOT
HETATM    1  N   UNL     1      41.600 -13.512   0.424  1.00  0.00    -0.307 N 
HETATM    2  C   UNL     1      41.763 -13.281   1.769  1.00  0.00     0.323 C 
HETATM    3  N   UNL     1      42.755 -14.047   2.373  1.00  0.00    -0.328 N 
HETATM    4  C   UNL     1      43.392 -15.237   1.780  1.00  0.00     0.185 C 
HETATM    5  C   UNL     1      43.460 -16.310   2.812  1.00  0.00     0.035 A 
HETATM    6  C   UNL     1      43.153 -16.193   4.153  1.00  0.00    -0.020 A 
HETATM    7  C   UNL     1      42.692 -14.895   4.725  1.00  0.00     0.061 C 
HETATM    8  C   UNL     1      43.108 -13.752   3.778  1.00  0.00     0.132 C 
HETATM    9  N   UNL     1      43.846 -17.601   2.578  1.00  0.00    -0.357 N 
HETATM   10  H   UNL     1      44.128 -17.984   1.686  1.00  0.00     0.166 HD
HETATM   11  C   UNL     1      43.788 -18.326   3.750  1.00  0.00     0.043 A 
HETATM   12  C   UNL     1      43.351 -17.462   4.758  1.00  0.00    -0.001 A 
HETATM   13  C   UNL     1      44.083 -19.674   3.988  1.00  0.00     0.030 A 
HETATM   14  C   UNL     1      43.925 -20.151   5.292  1.00  0.00     0.002 A 
HETATM   15  C   UNL     1      43.488 -19.314   6.316  1.00  0.00     0.001 A 
HETATM   16  C   UNL     1      43.198 -17.968   6.063  1.00  0.00     0.014 A 
HETATM   17  O   UNL     1      41.112 -12.458   2.408  1.00  0.00    -0.247 OA
HETATM   18  H   UNL     1      42.380 -13.929  -0.060  1.00  0.00     0.170 HD
ENDROOT
BRANCH   1  19
HETATM   19  C   UNL     1      40.582 -13.028  -0.435  1.00  0.00     0.060 A 
HETATM   20  C   UNL     1      40.545 -11.713  -0.916  1.00  0.00     0.068 A 
HETATM   21  C   UNL     1      39.510 -11.289  -1.757  1.00  0.00     0.070 A 
HETATM   22  C   UNL     1      38.490 -12.179  -2.100  1.00  0.00     0.038 A 
HETATM   23  C   UNL     1      38.502 -13.487  -1.622  1.00  0.00     0.029 A 
HETATM   24  C   UNL     1      39.544 -13.908  -0.796  1.00  0.00     0.061 A 
HETATM   25 CL   UNL     1      39.520 -15.542  -0.219  1.00  0.00    -0.082 Cl
BRANCH  21  26
HETATM   26  O   UNL     1      39.376 -10.039  -2.297  1.00  0.00    -0.356 OA
HETATM   27  C   UNL     1      39.100  -9.968  -3.692  1.00  0.00     0.210 C 
ENDBRANCH  21  26
ENDBRANCH   1  19
TORSDOF 2
ENDMDL
MODEL 3
REMARK VINA RESULT:      -8.2      2.783      8.442
REMARK  2 active torsions:
REMARK  status: ('A' for Active; 'I' for Inactive)
REMARK    1  A    between atoms: O_2  and  C_3 
REMARK    2  A    between atoms: C_5  and  N_6 
REMARK       I    between atoms: N_6  and  C_7 
REMARK       I    between atoms: C_7  and  N_8 
ROOT
HETATM    1  N   UNL     1      43.341 -14.987   3.962  1.00  0.00    -0.307 N 
HETATM    2  C   UNL     1      42.280 -14.226   4.393  1.00  0.00     0.323 C 
HETATM    3  N   UNL     1      42.585 -12.889   4.629  1.00  0.00    -0.328 N 
HETATM    4  C   UNL     1      43.945 -12.332   4.743  1.00  0.00     0.185 C 
HETATM    5  C   UNL     1      43.993 -11.420   5.921  1.00  0.00     0.035 A 
HETATM    6  C   UNL     1      42.926 -11.001   6.691  1.00  0.00    -0.020 A 
HETATM    7  C   UNL     1      41.538 -11.462   6.396  1.00  0.00     0.061 C 
HETATM    8  C   UNL     1      41.474 -11.964   4.940  1.00  0.00     0.132 C 
HETATM    9  N   UNL     1      45.128 -10.846   6.424  1.00  0.00    -0.357 N 
HETATM   10  H   UNL     1      46.065 -10.970   6.065  1.00  0.00     0.166 HD
HETATM   11  C   UNL     1      44.812 -10.065   7.516  1.00  0.00     0.043 A 
HETATM   12  C   UNL     1      43.430 -10.149   7.708  1.00  0.00    -0.001 A 
HETATM   13  C   UNL     1      45.644  -9.302   8.345  1.00  0.00     0.030 A 
HETATM   14  C   UNL     1      45.045  -8.607   9.400  1.00  0.00     0.002 A 
HETATM   15  C   UNL     1      43.671  -8.674   9.616  1.00  0.00     0.001 A 
HETATM   16  C   UNL     1      42.852  -9.440   8.779  1.00  0.00     0.014 A 
HETATM   17  O   UNL     1      41.142 -14.660   4.548  1.00  0.00    -0.247 OA
HETATM   18  H   UNL     1      44.114 -14.490   3.546  1.00  0.00     0.170 HD
ENDROOT
BRANCH   1  19
HETATM   19  C   UNL     1      43.405 -16.393   3.795  1.00  0.00     0.060 A 
HETATM   20  C   UNL     1      43.692 -17.278   4.842  1.00  0.00     0.068 A 
HETATM   21  C   UNL     1      43.750 -18.658   4.616  1.00  0.00     0.070 A 
HETATM   22  C   UNL     1      43.544 -19.156   3.328  1.00  0.00     0.038 A 
HETATM   23  C   UNL     1      43.269 -18.291   2.271  1.00  0.00     0.029 A 
HETATM   24  C   UNL     1      43.199 -16.918   2.505  1.00  0.00     0.061 A 
HETATM   25 CL   UNL     1      42.859 -15.876   1.162  1.00  0.00    -0.082 Cl
BRANCH  21  26
HETATM   26  O   UNL     1      44.007 -19.615   5.559  1.00  0.00    -0.356 OA
HETATM   27  C   UNL     1      43.949 -20.971   5.129  1.00  0.00     0.210 C 
ENDBRANCH  21  26
ENDBRANCH   1  19
TORSDOF 2
ENDMDL
MODEL 4
REMARK VINA RESULT:      -8.1      4.725      8.385
REMARK  2 active torsions:
REMARK  status: ('A' for Active; 'I' for Inactive)
REMARK    1  A    between atoms: O_2  and  C_3 
REMARK    2  A    between atoms: C_5  and  N_6 
REMARK       I    between atoms: N_6  and  C_7 
REMARK       I    between atoms: C_7  and  N_8 
ROOT
HETATM    1  N   UNL     1      41.624 -15.473   3.871  1.00  0.00    -0.307 N 
HETATM    2  C   UNL     1      42.010 -14.158   3.755  1.00  0.00     0.323 C 
HETATM    3  N   UNL     1      41.079 -13.334   3.131  1.00  0.00    -0.328 N 
HETATM    4  C   UNL     1      39.914 -13.799   2.355  1.00  0.00     0.185 C 
HETATM    5  C   UNL     1      39.834 -13.012   1.092  1.00  0.00     0.035 A 
HETATM    6  C   UNL     1      40.591 -11.908   0.751  1.00  0.00    -0.020 A 
HETATM    7  C   UNL     1      41.631 -11.375   1.677  1.00  0.00     0.061 C 
HETATM    8  C   UNL     1      41.339 -11.879   3.105  1.00  0.00     0.132 C 
HETATM    9  N   UNL     1      38.975 -13.270   0.059  1.00  0.00    -0.357 N 
HETATM   10  H   UNL     1      38.299 -14.020   0.023  1.00  0.00     0.166 HD
HETATM   11  C   UNL     1      39.170 -12.352  -0.951  1.00  0.00     0.043 A 
HETATM   12  C   UNL     1      40.187 -11.485  -0.542  1.00  0.00    -0.001 A 
HETATM   13  C   UNL     1      38.530 -12.231  -2.191  1.00  0.00     0.030 A 
HETATM   14  C   UNL     1      38.942 -11.196  -3.035  1.00  0.00     0.002 A 
HETATM   15  C   UNL     1      39.955 -10.318  -2.654  1.00  0.00     0.001 A 
HETATM   16  C   UNL     1      40.585 -10.450  -1.411  1.00  0.00     0.014 A 
HETATM   17  O   UNL     1      43.077 -13.717   4.174  1.00  0.00    -0.247 OA
HETATM   18  H   UNL     1      40.634 -15.659   3.818  1.00  0.00     0.170 HD
ENDROOT
BRANCH   1  19
HETATM   19  C   UNL     1      42.396 -16.582   4.299  1.00  0.00     0.060 A 
HETATM   20  C   UNL     1      43.046 -17.452   3.415  1.00  0.00     0.068 A 
HETATM   21  C   UNL     1      43.789 -18.536   3.895  1.00  0.00     0.070 A 
HETATM   22  C   UNL     1      43.861 -18.769   5.270  1.00  0.00     0.038 A 
HETATM   23  C   UNL     1      43.211 -17.922   6.166  1.00  0.00     0.029 A 
HETATM   24  C   UNL     1      42.484 -16.835   5.681  1.00  0.00     0.061 A 
HETATM   25 CL   UNL     1      41.687 -15.809   6.828  1.00  0.00    -0.082 Cl
BRANCH  21  26
HETATM   26  O   UNL     1      44.474 -19.441   3.131  1.00  0.00    -0.356 OA
HETATM   27  C   UNL     1      43.706 -20.233   2.232  1.00  0.00     0.210 C 
ENDBRANCH  21  26
ENDBRANCH   1  19
TORSDOF 2
ENDMDL
MODEL 5
REMARK VINA RESULT:      -8.0      2.617      8.573
REMARK  2 active torsions:
REMARK  status: ('A' for Active; 'I' for Inactive)
REMARK    1  A    between atoms: O_2  and  C_3 
REMARK    2  A    between atoms: C_5  and  N_6 
REMARK       I    between atoms: N_6  and  C_7 
REMARK       I    between atoms: C_7  and  N_8 
ROOT
HETATM    1  N   UNL     1      43.296 -14.781   4.184  1.00  0.00    -0.307 N 
HETATM    2  C   UNL     1      42.134 -14.082   4.413  1.00  0.00     0.323 C 
HETATM    3  N   UNL     1      42.311 -12.721   4.644  1.00  0.00    -0.328 N 
HETATM    4  C   UNL     1      43.598 -12.070   4.951  1.00  0.00     0.185 C 
HETATM    5  C   UNL     1      43.398 -11.125   6.086  1.00  0.00     0.035 A 
HETATM    6  C   UNL     1      42.197 -10.760   6.662  1.00  0.00    -0.020 A 
HETATM    7  C   UNL     1      40.907 -11.322   6.168  1.00  0.00     0.061 C 
HETATM    8  C   UNL     1      41.109 -11.867   4.740  1.00  0.00     0.132 C 
HETATM    9  N   UNL     1      44.399 -10.461   6.740  1.00  0.00    -0.357 N 
HETATM   10  H   UNL     1      45.387 -10.531   6.540  1.00  0.00     0.166 HD
HETATM   11  C   UNL     1      43.863  -9.675   7.739  1.00  0.00     0.043 A 
HETATM   12  C   UNL     1      42.477  -9.848   7.713  1.00  0.00    -0.001 A 
HETATM   13  C   UNL     1      44.501  -8.834   8.659  1.00  0.00     0.030 A 
HETATM   14  C   UNL     1      43.698  -8.153   9.579  1.00  0.00     0.002 A 
HETATM   15  C   UNL     1      42.314  -8.309   9.578  1.00  0.00     0.001 A 
HETATM   16  C   UNL     1      41.690  -9.152   8.651  1.00  0.00     0.014 A 
HETATM   17  O   UNL     1      41.015 -14.590   4.403  1.00  0.00    -0.247 OA
HETATM   18  H   UNL     1      44.092 -14.243   3.878  1.00  0.00     0.170 HD
ENDROOT
BRANCH   1  19
HETATM   19  C   UNL     1      43.475 -16.183   4.083  1.00  0.00     0.060 A 
HETATM   20  C   UNL     1      43.110 -16.924   2.953  1.00  0.00     0.068 A 
HETATM   21  C   UNL     1      43.304 -18.309   2.913  1.00  0.00     0.070 A 
HETATM   22  C   UNL     1      43.844 -18.963   4.022  1.00  0.00     0.038 A 
HETATM   23  C   UNL     1      44.202 -18.246   5.161  1.00  0.00     0.029 A 
HETATM   24  C   UNL     1      44.019 -16.863   5.189  1.00  0.00     0.061 A 
HETATM   25 CL   UNL     1      44.474 -16.008   6.627  1.00  0.00    -0.082 Cl
BRANCH  21  26
HETATM   26  O   UNL     1      43.000 -19.132   1.863  1.00  0.00    -0.356 OA
HETATM   27  C   UNL     1      43.591 -20.427   1.871  1.00  0.00     0.210 C 
ENDBRANCH  21  26
ENDBRANCH   1  19
TORSDOF 2
ENDMDL
MODEL 6
REMARK VINA RESULT:      -7.8      2.640      4.115
REMARK  2 active torsions:
REMARK  status: ('A' for Active; 'I' for Inactive)
REMARK    1  A    between atoms: O_2  and  C_3 
REMARK    2  A    between atoms: C_5  and  N_6 
REMARK       I    between atoms: N_6  and  C_7 
REMARK       I    between atoms: C_7  and  N_8 
ROOT
HETATM    1  N   UNL     1      42.512  -9.621   8.537  1.00  0.00    -0.307 N 
HETATM    2  C   UNL     1      43.428 -10.637   8.393  1.00  0.00     0.323 C 
HETATM    3  N   UNL     1      43.498 -11.177   7.113  1.00  0.00    -0.328 N 
HETATM    4  C   UNL     1      42.505 -10.966   6.044  1.00  0.00     0.185 C 
HETATM    5  C   UNL     1      42.207 -12.276   5.399  1.00  0.00     0.035 A 
HETATM    6  C   UNL     1      42.858 -13.475   5.616  1.00  0.00    -0.020 A 
HETATM    7  C   UNL     1      43.989 -13.571   6.583  1.00  0.00     0.061 C 
HETATM    8  C   UNL     1      44.563 -12.162   6.828  1.00  0.00     0.132 C 
HETATM    9  N   UNL     1      41.223 -12.491   4.474  1.00  0.00    -0.357 N 
HETATM   10  H   UNL     1      40.581 -11.796   4.119  1.00  0.00     0.166 HD
HETATM   11  C   UNL     1      41.222 -13.815   4.092  1.00  0.00     0.043 A 
HETATM   12  C   UNL     1      42.240 -14.459   4.800  1.00  0.00    -0.001 A 
HETATM   13  C   UNL     1      40.395 -14.487   3.182  1.00  0.00     0.030 A 
HETATM   14  C   UNL     1      40.617 -15.854   2.993  1.00  0.00     0.002 A 
HETATM   15  C   UNL     1      41.623 -16.522   3.687  1.00  0.00     0.001 A 
HETATM   16  C   UNL     1      42.442 -15.838   4.592  1.00  0.00     0.014 A 
HETATM   17  O   UNL     1      44.150 -11.043   9.300  1.00  0.00    -0.247 OA
HETATM   18  H   UNL     1      42.232  -9.144   7.694  1.00  0.00     0.170 HD
ENDROOT
BRANCH   1  19
HETATM   19  C   UNL     1      42.085  -8.984   9.728  1.00  0.00     0.060 A 
HETATM   20  C   UNL     1      41.059  -9.483  10.541  1.00  0.00     0.068 A 
HETATM   21  C   UNL     1      40.674  -8.805  11.703  1.00  0.00     0.070 A 
HETATM   22  C   UNL     1      41.301  -7.605  12.043  1.00  0.00     0.038 A 
HETATM   23  C   UNL     1      42.315  -7.086  11.242  1.00  0.00     0.029 A 
HETATM   24  C   UNL     1      42.705  -7.773  10.092  1.00  0.00     0.061 A 
HETATM   25 CL   UNL     1      43.967  -7.090   9.121  1.00  0.00    -0.082 Cl
BRANCH  21  26
HETATM   26  O   UNL     1      39.698  -9.202  12.577  1.00  0.00    -0.356 OA
HETATM   27  C   UNL     1      39.817 -10.513  13.118  1.00  0.00     0.210 C 
ENDBRANCH  21  26
ENDBRANCH   1  19
TORSDOF 2
ENDMDL
MODEL 7
REMARK VINA RESULT:      -7.8      1.848      2.004
REMARK  2 active torsions:
REMARK  status: ('A' for Active; 'I' for Inactive)
REMARK    1  A    between atoms: O_2  and  C_3 
REMARK    2  A    between atoms: C_5  and  N_6 
REMARK       I    between atoms: N_6  and  C_7 
REMARK       I    between atoms: C_7  and  N_8 
ROOT
HETATM    1  N   UNL     1      41.582 -11.604   6.653  1.00  0.00    -0.307 N 
HETATM    2  C   UNL     1      41.324 -11.975   5.354  1.00  0.00     0.323 C 
HETATM    3  N   UNL     1      41.093 -13.335   5.175  1.00  0.00    -0.328 N 
HETATM    4  C   UNL     1      41.393 -14.387   6.163  1.00  0.00     0.185 C 
HETATM    5  C   UNL     1      42.065 -15.522   5.468  1.00  0.00     0.035 A 
HETATM    6  C   UNL     1      42.235 -15.677   4.106  1.00  0.00    -0.020 A 
HETATM    7  C   UNL     1      41.732 -14.652   3.147  1.00  0.00     0.061 C 
HETATM    8  C   UNL     1      40.652 -13.799   3.843  1.00  0.00     0.132 C 
HETATM    9  N   UNL     1      42.624 -16.604   6.090  1.00  0.00    -0.357 N 
HETATM   10  H   UNL     1      42.654 -16.765   7.087  1.00  0.00     0.166 HD
HETATM   11  C   UNL     1      43.162 -17.457   5.149  1.00  0.00     0.043 A 
HETATM   12  C   UNL     1      42.933 -16.894   3.890  1.00  0.00    -0.001 A 
HETATM   13  C   UNL     1      43.834 -18.674   5.320  1.00  0.00     0.030 A 
HETATM   14  C   UNL     1      44.285 -19.331   4.172  1.00  0.00     0.002 A 
HETATM   15  C   UNL     1      44.073 -18.792   2.905  1.00  0.00     0.001 A 
HETATM   16  C   UNL     1      43.399 -17.576   2.749  1.00  0.00     0.014 A 
HETATM   17  O   UNL     1      41.278 -11.188   4.413  1.00  0.00    -0.247 OA
HETATM   18  H   UNL     1      41.265 -12.234   7.374  1.00  0.00     0.170 HD
ENDROOT
BRANCH   1  19
HETATM   19  C   UNL     1      42.014 -10.345   7.140  1.00  0.00     0.060 A 
HETATM   20  C   UNL     1      41.181  -9.222   7.213  1.00  0.00     0.068 A 
HETATM   21  C   UNL     1      41.666  -8.002   7.697  1.00  0.00     0.070 A 
HETATM   22  C   UNL     1      43.003  -7.895   8.085  1.00  0.00     0.038 A 
HETATM   23  C   UNL     1      43.852  -8.997   8.007  1.00  0.00     0.029 A 
HETATM   24  C   UNL     1      43.358 -10.214   7.539  1.00  0.00     0.061 A 
HETATM   25 CL   UNL     1      44.448 -11.559   7.454  1.00  0.00    -0.082 Cl
BRANCH  21  26
HETATM   26  O   UNL     1      40.944  -6.846   7.826  1.00  0.00    -0.356 OA
HETATM   27  C   UNL     1      41.581  -5.765   8.498  1.00  0.00     0.210 C 
ENDBRANCH  21  26
ENDBRANCH   1  19
TORSDOF 2
ENDMDL
MODEL 8
REMARK VINA RESULT:      -7.8      5.287      7.437
REMARK  2 active torsions:
REMARK  status: ('A' for Active; 'I' for Inactive)
REMARK    1  A    between atoms: O_2  and  C_3 
REMARK    2  A    between atoms: C_5  and  N_6 
REMARK       I    between atoms: N_6  and  C_7 
REMARK       I    between atoms: C_7  and  N_8 
ROOT
HETATM    1  N   UNL     1      40.139 -12.208   0.821  1.00  0.00    -0.307 N 
HETATM    2  C   UNL     1      40.303 -13.558   0.622  1.00  0.00     0.323 C 
HETATM    3  N   UNL     1      40.118 -14.339   1.759  1.00  0.00    -0.328 N 
HETATM    4  C   UNL     1      40.069 -13.831   3.142  1.00  0.00     0.185 C 
HETATM    5  C   UNL     1      40.908 -14.709   4.006  1.00  0.00     0.035 A 
HETATM    6  C   UNL     1      41.501 -15.904   3.648  1.00  0.00    -0.020 A 
HETATM    7  C   UNL     1      41.349 -16.455   2.271  1.00  0.00     0.061 C 
HETATM    8  C   UNL     1      40.118 -15.809   1.604  1.00  0.00     0.132 C 
HETATM    9  N   UNL     1      41.221 -14.457   5.313  1.00  0.00    -0.357 N 
HETATM   10  H   UNL     1      40.928 -13.651   5.849  1.00  0.00     0.166 HD
HETATM   11  C   UNL     1      42.016 -15.469   5.807  1.00  0.00     0.043 A 
HETATM   12  C   UNL     1      42.211 -16.393   4.776  1.00  0.00    -0.001 A 
HETATM   13  C   UNL     1      42.577 -15.631   7.080  1.00  0.00     0.030 A 
HETATM   14  C   UNL     1      43.360 -16.767   7.303  1.00  0.00     0.002 A 
HETATM   15  C   UNL     1      43.573 -17.703   6.294  1.00  0.00     0.001 A 
HETATM   16  C   UNL     1      43.005 -17.529   5.027  1.00  0.00     0.014 A 
HETATM   17  O   UNL     1      40.574 -14.063  -0.465  1.00  0.00    -0.247 OA
HETATM   18  H   UNL     1      39.597 -11.933   1.627  1.00  0.00     0.170 HD
ENDROOT
BRANCH   1  19
HETATM   19  C   UNL     1      40.415 -11.146  -0.075  1.00  0.00     0.060 A 
HETATM   20  C   UNL     1      41.628 -10.446  -0.087  1.00  0.00     0.068 A 
HETATM   21  C   UNL     1      41.841  -9.400  -0.992  1.00  0.00     0.070 A 
HETATM   22  C   UNL     1      40.824  -9.032  -1.875  1.00  0.00     0.038 A 
HETATM   23  C   UNL     1      39.605  -9.707  -1.870  1.00  0.00     0.029 A 
HETATM   24  C   UNL     1      39.404 -10.758  -0.976  1.00  0.00     0.061 A 
HETATM   25 CL   UNL     1      37.872 -11.569  -1.000  1.00  0.00    -0.082 Cl
BRANCH  21  26
HETATM   26  O   UNL     1      42.985  -8.657  -1.104  1.00  0.00    -0.356 OA
HETATM   27  C   UNL     1      42.824  -7.249  -1.237  1.00  0.00     0.210 C 
ENDBRANCH  21  26
ENDBRANCH   1  19
TORSDOF 2
ENDMDL
MODEL 9
REMARK VINA RESULT:      -7.5     17.405     20.019
REMARK  2 active torsions:
REMARK  status: ('A' for Active; 'I' for Inactive)
REMARK    1  A    between atoms: O_2  and  C_3 
REMARK    2  A    between atoms: C_5  and  N_6 
REMARK       I    between atoms: N_6  and  C_7 
REMARK       I    between atoms: C_7  and  N_8 
ROOT
HETATM    1  N   UNL     1      45.566 -29.719  -1.738  1.00  0.00    -0.307 N 
HETATM    2  C   UNL     1      45.078 -29.837  -0.458  1.00  0.00     0.323 C 
HETATM    3  N   UNL     1      45.917 -29.330   0.530  1.00  0.00    -0.328 N 
HETATM    4  C   UNL     1      47.337 -28.979   0.345  1.00  0.00     0.185 C 
HETATM    5  C   UNL     1      48.118 -29.523   1.492  1.00  0.00     0.035 A 
HETATM    6  C   UNL     1      47.615 -30.104   2.639  1.00  0.00    -0.020 A 
HETATM    7  C   UNL     1      46.145 -30.254   2.842  1.00  0.00     0.061 C 
HETATM    8  C   UNL     1      45.406 -29.268   1.916  1.00  0.00     0.132 C 
HETATM    9  N   UNL     1      49.483 -29.525   1.581  1.00  0.00    -0.357 N 
HETATM   10  H   UNL     1      50.124 -29.165   0.888  1.00  0.00     0.166 HD
HETATM   11  C   UNL     1      49.873 -30.106   2.769  1.00  0.00     0.043 A 
HETATM   12  C   UNL     1      48.714 -30.484   3.453  1.00  0.00    -0.001 A 
HETATM   13  C   UNL     1      51.157 -30.329   3.282  1.00  0.00     0.030 A 
HETATM   14  C   UNL     1      51.257 -30.957   4.527  1.00  0.00     0.002 A 
HETATM   15  C   UNL     1      50.119 -31.346   5.230  1.00  0.00     0.001 A 
HETATM   16  C   UNL     1      48.843 -31.116   4.706  1.00  0.00     0.014 A 
HETATM   17  O   UNL     1      43.988 -30.329  -0.182  1.00  0.00    -0.247 OA
HETATM   18  H   UNL     1      46.275 -29.018  -1.889  1.00  0.00     0.170 HD
ENDROOT
BRANCH   1  19
HETATM   19  C   UNL     1      45.044 -30.275  -2.933  1.00  0.00     0.060 A 
HETATM   20  C   UNL     1      44.783 -31.642  -3.094  1.00  0.00     0.068 A 
HETATM   21  C   UNL     1      44.274 -32.134  -4.301  1.00  0.00     0.070 A 
HETATM   22  C   UNL     1      44.049 -31.259  -5.365  1.00  0.00     0.038 A 
HETATM   23  C   UNL     1      44.315 -29.898  -5.229  1.00  0.00     0.029 A 
HETATM   24  C   UNL     1      44.808 -29.410  -4.019  1.00  0.00     0.061 A 
HETATM   25 CL   UNL     1      45.129 -27.712  -3.893  1.00  0.00    -0.082 Cl
BRANCH  21  26
HETATM   26  O   UNL     1      43.969 -33.441  -4.569  1.00  0.00    -0.356 OA
HETATM   27  C   UNL     1      43.969 -33.832  -5.938  1.00  0.00     0.210 C 
ENDBRANCH  21  26
ENDBRANCH   1  19
TORSDOF 2
ENDMDL
MODEL 10
REMARK VINA RESULT:      -7.5      5.308      8.077
REMARK  2 active torsions:
REMARK  status: ('A' for Active; 'I' for Inactive)
REMARK    1  A    between atoms: O_2  and  C_3 
REMARK    2  A    between atoms: C_5  and  N_6 
REMARK       I    between atoms: N_6  and  C_7 
REMARK       I    between atoms: C_7  and  N_8 
ROOT
HETATM    1  N   UNL     1      39.493 -12.438   0.661  1.00  0.00    -0.307 N 
HETATM    2  C   UNL     1      39.734 -13.784   0.519  1.00  0.00     0.323 C 
HETATM    3  N   UNL     1      39.890 -14.475   1.717  1.00  0.00    -0.328 N 
HETATM    4  C   UNL     1      40.113 -13.854   3.035  1.00  0.00     0.185 C 
HETATM    5  C   UNL     1      41.208 -14.587   3.732  1.00  0.00     0.035 A 
HETATM    6  C   UNL     1      41.813 -15.760   3.324  1.00  0.00    -0.020 A 
HETATM    7  C   UNL     1      41.399 -16.439   2.062  1.00  0.00     0.061 C 
HETATM    8  C   UNL     1      39.993 -15.948   1.665  1.00  0.00     0.132 C 
HETATM    9  N   UNL     1      41.789 -14.199   4.908  1.00  0.00    -0.357 N 
HETATM   10  H   UNL     1      41.553 -13.375   5.442  1.00  0.00     0.166 HD
HETATM   11  C   UNL     1      42.768 -15.102   5.265  1.00  0.00     0.043 A 
HETATM   12  C   UNL     1      42.806 -16.093   4.281  1.00  0.00    -0.001 A 
HETATM   13  C   UNL     1      43.621 -15.109   6.377  1.00  0.00     0.030 A 
HETATM   14  C   UNL     1      44.537 -16.159   6.483  1.00  0.00     0.002 A 
HETATM   15  C   UNL     1      44.599 -17.160   5.516  1.00  0.00     0.001 A 
HETATM   16  C   UNL     1      43.740 -17.140   4.411  1.00  0.00     0.014 A 
HETATM   17  O   UNL     1      39.793 -14.359  -0.565  1.00  0.00    -0.247 OA
HETATM   18  H   UNL     1      39.129 -12.136   1.552  1.00  0.00     0.170 HD
ENDROOT
BRANCH   1  19
HETATM   19  C   UNL     1      39.454 -11.440  -0.344  1.00  0.00     0.060 A 
HETATM   20  C   UNL     1      38.487 -11.407  -1.357  1.00  0.00     0.068 A 
HETATM   21  C   UNL     1      38.503 -10.400  -2.328  1.00  0.00     0.070 A 
HETATM   22  C   UNL     1      39.507  -9.431  -2.302  1.00  0.00     0.038 A 
HETATM   23  C   UNL     1      40.485  -9.453  -1.310  1.00  0.00     0.029 A 
HETATM   24  C   UNL     1      40.456 -10.451  -0.337  1.00  0.00     0.061 A 
HETATM   25 CL   UNL     1      41.693 -10.445   0.877  1.00  0.00    -0.082 Cl
BRANCH  21  26
HETATM   26  O   UNL     1      37.607 -10.259  -3.353  1.00  0.00    -0.356 OA
HETATM   27  C   UNL     1      36.280 -10.716  -3.112  1.00  0.00     0.210 C 
ENDBRANCH  21  26
ENDBRANCH   1  19
TORSDOF 2
ENDMDL
