MODEL 1
REMARK VINA RESULT:      -8.4      0.000      0.000
REMARK  10 active torsions:
REMARK  status: ('A' for Active; 'I' for Inactive)
REMARK    1  A    between atoms: C_8  and  N_9 
REMARK    2  A    between atoms: C_10  and  S_11 
REMARK    3  A    between atoms: S_11  and  C_12 
REMARK    4  A    between atoms: C_12  and  C_13 
REMARK       I    between atoms: C_13  and  N_14 
REMARK    5  A    between atoms: N_14  and  C_15 
REMARK    6  A    between atoms: C_15  and  C_16 
REMARK    7  A    between atoms: C_16  and  C_17 
REMARK    8  A    between atoms: C_19  and  O_20 
REMARK    9  A    between atoms: C_22  and  O_23 
REMARK   10  A    between atoms: C_31  and  N_32 
ROOT
HETATM    1  N   UNL     1      42.399 -12.606   5.978  1.00  0.00    -0.275 N 
HETATM    2  C   UNL     1      41.230 -11.800   6.036  1.00  0.00     0.177 A 
HETATM    3  N   UNL     1      41.145 -10.611   6.582  1.00  0.00    -0.204 NA
HETATM    4  C   UNL     1      42.304 -10.169   7.114  1.00  0.00     0.162 A 
HETATM    5  C   UNL     1      43.523 -10.789   7.178  1.00  0.00     0.081 A 
HETATM    6  C   UNL     1      43.614 -12.098   6.604  1.00  0.00     0.124 A 
HETATM    7  N   UNL     1      42.487  -8.956   7.709  1.00  0.00    -0.260 N 
HETATM    8  H   UNL     1      41.805  -8.217   7.837  1.00  0.00     0.191 HD
HETATM    9  N   UNL     1      43.749  -8.772   8.156  1.00  0.00    -0.177 NA
HETATM   10  C   UNL     1      44.395  -9.902   7.824  1.00  0.00     0.068 A 
HETATM   11  C   UNL     1      45.833 -10.042   8.155  1.00  0.00     0.073 C 
ENDROOT
BRANCH   2  12
HETATM   12  S   UNL     1      39.716 -12.387   5.319  1.00  0.00    -0.082 SA
BRANCH  12  13
HETATM   13  C   UNL     1      39.905 -11.701   3.647  1.00  0.00     0.185 C 
BRANCH  13  14
HETATM   14  C   UNL     1      38.749 -12.089   2.735  1.00  0.00     0.227 C 
HETATM   15  N   UNL     1      38.653 -13.402   2.342  1.00  0.00    -0.360 N 
HETATM   16  H   UNL     1      37.890 -13.559   1.689  1.00  0.00     0.162 HD
HETATM   17  O   UNL     1      37.875 -11.307   2.365  1.00  0.00    -0.273 OA
BRANCH  15  18
HETATM   18  C   UNL     1      39.654 -14.435   2.523  1.00  0.00     0.127 C 
BRANCH  18  19
HETATM   19  C   UNL     1      39.974 -15.201   1.240  1.00  0.00     0.058 C 
BRANCH  19  20
HETATM   20  C   UNL     1      40.145 -14.239   0.089  1.00  0.00    -0.054 A 
HETATM   21  C   UNL     1      39.566 -14.516  -1.161  1.00  0.00     0.046 A 
HETATM   22  C   UNL     1      39.793 -13.673  -2.256  1.00  0.00     0.102 A 
HETATM   23  C   UNL     1      40.611 -12.537  -2.103  1.00  0.00     0.101 A 
HETATM   24  C   UNL     1      41.168 -12.252  -0.853  1.00  0.00     0.040 A 
HETATM   25  C   UNL     1      40.939 -13.099   0.234  1.00  0.00     0.010 A 
BRANCH  22  26
HETATM   26  O   UNL     1      39.286 -13.885  -3.515  1.00  0.00    -0.353 OA
HETATM   27  C   UNL     1      38.129 -14.699  -3.636  1.00  0.00     0.210 C 
ENDBRANCH  22  26
BRANCH  23  28
HETATM   28  O   UNL     1      40.798 -11.771  -3.227  1.00  0.00    -0.353 OA
HETATM   29  C   UNL     1      40.249 -10.461  -3.231  1.00  0.00     0.210 C 
ENDBRANCH  23  28
ENDBRANCH  19  20
ENDBRANCH  18  19
ENDBRANCH  15  18
ENDBRANCH  13  14
ENDBRANCH  12  13
ENDBRANCH   2  12
BRANCH   1  30
HETATM   30  C   UNL     1      42.408 -13.864   5.299  1.00  0.00     0.051 A 
HETATM   31  C   UNL     1      42.870 -13.977   3.966  1.00  0.00    -0.013 A 
HETATM   32  C   UNL     1      43.280 -12.759   3.174  1.00  0.00     0.052 C 
HETATM   33  C   UNL     1      42.963 -15.261   3.394  1.00  0.00     0.042 A 
HETATM   34 CL   UNL     1      43.593 -15.504   1.803  1.00  0.00    -0.084 Cl
HETATM   35  C   UNL     1      42.572 -16.397   4.109  1.00  0.00     0.024 A 
HETATM   36  C   UNL     1      42.097 -16.277   5.411  1.00  0.00     0.004 A 
HETATM   37  C   UNL     1      42.028 -15.020   6.007  1.00  0.00     0.031 A 
ENDBRANCH   1  30
BRANCH   6  38
HETATM   38  N   UNL     1      44.731 -12.797   6.664  1.00  0.00    -0.384 N 
HETATM   39  H   UNL     1      45.638 -12.355   6.653  1.00  0.00     0.157 HD
HETATM   40  H   UNL     1      44.693 -13.806   6.742  1.00  0.00     0.157 HD
ENDBRANCH   6  38
TORSDOF 10
ENDMDL
MODEL 2
REMARK VINA RESULT:      -8.1      4.516      8.738
REMARK  10 active torsions:
REMARK  status: ('A' for Active; 'I' for Inactive)
REMARK    1  A    between atoms: C_8  and  N_9 
REMARK    2  A    between atoms: C_10  and  S_11 
REMARK    3  A    between atoms: S_11  and  C_12 
REMARK    4  A    between atoms: C_12  and  C_13 
REMARK       I    between atoms: C_13  and  N_14 
REMARK    5  A    between atoms: N_14  and  C_15 
REMARK    6  A    between atoms: C_15  and  C_16 
REMARK    7  A    between atoms: C_16  and  C_17 
REMARK    8  A    between atoms: C_19  and  O_20 
REMARK    9  A    between atoms: C_22  and  O_23 
REMARK   10  A    between atoms: C_31  and  N_32 
ROOT
HETATM    1  N   UNL     1      40.173 -10.348  -1.930  1.00  0.00    -0.275 N 
HETATM    2  C   UNL     1      40.635 -10.315  -0.587  1.00  0.00     0.177 A 
HETATM    3  N   UNL     1      41.575  -9.529  -0.119  1.00  0.00    -0.204 NA
HETATM    4  C   UNL     1      42.105  -8.700  -1.043  1.00  0.00     0.162 A 
HETATM    5  C   UNL     1      41.817  -8.587  -2.377  1.00  0.00     0.081 A 
HETATM    6  C   UNL     1      40.808  -9.462  -2.897  1.00  0.00     0.124 A 
HETATM    7  N   UNL     1      43.070  -7.767  -0.804  1.00  0.00    -0.260 N 
HETATM    8  H   UNL     1      43.523  -7.552   0.077  1.00  0.00     0.191 HD
HETATM    9  N   UNL     1      43.419  -7.074  -1.911  1.00  0.00    -0.177 NA
HETATM   10  C   UNL     1      42.642  -7.574  -2.885  1.00  0.00     0.068 A 
HETATM   11  C   UNL     1      42.749  -7.024  -4.256  1.00  0.00     0.073 C 
ENDROOT
BRANCH   2  12
HETATM   12  S   UNL     1      39.919 -11.399   0.622  1.00  0.00    -0.082 SA
BRANCH  12  13
HETATM   13  C   UNL     1      41.080 -12.790   0.484  1.00  0.00     0.185 C 
BRANCH  13  14
HETATM   14  C   UNL     1      40.386 -14.135   0.654  1.00  0.00     0.227 C 
HETATM   15  N   UNL     1      40.658 -14.860   1.789  1.00  0.00    -0.360 N 
HETATM   16  H   UNL     1      40.200 -15.767   1.792  1.00  0.00     0.162 HD
HETATM   17  O   UNL     1      39.566 -14.589  -0.142  1.00  0.00    -0.273 OA
BRANCH  15  18
HETATM   18  C   UNL     1      41.703 -14.590   2.757  1.00  0.00     0.127 C 
BRANCH  18  19
HETATM   19  C   UNL     1      43.069 -15.138   2.344  1.00  0.00     0.058 C 
BRANCH  19  20
HETATM   20  C   UNL     1      43.356 -16.425   3.079  1.00  0.00    -0.054 A 
HETATM   21  C   UNL     1      43.513 -16.426   4.475  1.00  0.00     0.046 A 
HETATM   22  C   UNL     1      43.867 -17.599   5.154  1.00  0.00     0.102 A 
HETATM   23  C   UNL     1      44.069 -18.789   4.430  1.00  0.00     0.101 A 
HETATM   24  C   UNL     1      43.892 -18.791   3.043  1.00  0.00     0.040 A 
HETATM   25  C   UNL     1      43.541 -17.616   2.373  1.00  0.00     0.010 A 
BRANCH  22  26
HETATM   26  O   UNL     1      44.063 -17.679   6.511  1.00  0.00    -0.353 OA
HETATM   27  C   UNL     1      43.461 -16.687   7.329  1.00  0.00     0.210 C 
ENDBRANCH  22  26
BRANCH  23  28
HETATM   28  O   UNL     1      44.430 -19.891   5.165  1.00  0.00    -0.353 OA
HETATM   29  C   UNL     1      43.580 -21.027   5.110  1.00  0.00     0.210 C 
ENDBRANCH  23  28
ENDBRANCH  19  20
ENDBRANCH  18  19
ENDBRANCH  15  18
ENDBRANCH  13  14
ENDBRANCH  12  13
ENDBRANCH   2  12
BRANCH   1  30
HETATM   30  C   UNL     1      39.094 -11.197  -2.330  1.00  0.00     0.051 A 
HETATM   31  C   UNL     1      39.329 -12.508  -2.811  1.00  0.00    -0.013 A 
HETATM   32  C   UNL     1      40.731 -13.028  -3.013  1.00  0.00     0.052 C 
HETATM   33  C   UNL     1      38.219 -13.333  -3.078  1.00  0.00     0.042 A 
HETATM   34 CL   UNL     1      38.408 -14.974  -3.589  1.00  0.00    -0.084 Cl
HETATM   35  C   UNL     1      36.914 -12.861  -2.911  1.00  0.00     0.024 A 
HETATM   36  C   UNL     1      36.690 -11.564  -2.460  1.00  0.00     0.004 A 
HETATM   37  C   UNL     1      37.773 -10.742  -2.159  1.00  0.00     0.031 A 
ENDBRANCH   1  30
BRANCH   6  38
HETATM   38  N   UNL     1      40.499  -9.465  -4.180  1.00  0.00    -0.384 N 
HETATM   39  H   UNL     1      39.544  -9.533  -4.498  1.00  0.00     0.157 HD
HETATM   40  H   UNL     1      41.230  -9.379  -4.875  1.00  0.00     0.157 HD
ENDBRANCH   6  38
TORSDOF 10
ENDMDL
MODEL 3
REMARK VINA RESULT:      -8.0      4.386      9.747
REMARK  10 active torsions:
REMARK  status: ('A' for Active; 'I' for Inactive)
REMARK    1  A    between atoms: C_8  and  N_9 
REMARK    2  A    between atoms: C_10  and  S_11 
REMARK    3  A    between atoms: S_11  and  C_12 
REMARK    4  A    between atoms: C_12  and  C_13 
REMARK       I    between atoms: C_13  and  N_14 
REMARK    5  A    between atoms: N_14  and  C_15 
REMARK    6  A    between atoms: C_15  and  C_16 
REMARK    7  A    between atoms: C_16  and  C_17 
REMARK    8  A    between atoms: C_19  and  O_20 
REMARK    9  A    between atoms: C_22  and  O_23 
REMARK   10  A    between atoms: C_31  and  N_32 
ROOT
HETATM    1  N   UNL     1      42.425 -13.799   4.139  1.00  0.00    -0.275 N 
HETATM    2  C   UNL     1      42.996 -13.760   5.439  1.00  0.00     0.177 A 
HETATM    3  N   UNL     1      43.595 -14.756   6.045  1.00  0.00    -0.204 NA
HETATM    4  C   UNL     1      43.645 -15.890   5.313  1.00  0.00     0.162 A 
HETATM    5  C   UNL     1      43.148 -16.139   4.062  1.00  0.00     0.081 A 
HETATM    6  C   UNL     1      42.471 -15.060   3.408  1.00  0.00     0.124 A 
HETATM    7  N   UNL     1      44.242 -17.053   5.701  1.00  0.00    -0.260 N 
HETATM    8  H   UNL     1      44.728 -17.243   6.570  1.00  0.00     0.191 HD
HETATM    9  N   UNL     1      44.143 -18.031   4.774  1.00  0.00    -0.177 NA
HETATM   10  C   UNL     1      43.473 -17.468   3.755  1.00  0.00     0.068 A 
HETATM   11  C   UNL     1      43.196 -18.265   2.538  1.00  0.00     0.073 C 
ENDROOT
BRANCH   2  12
HETATM   12  S   UNL     1      42.935 -12.258   6.385  1.00  0.00    -0.082 SA
BRANCH  12  13
HETATM   13  C   UNL     1      44.651 -12.226   6.982  1.00  0.00     0.185 C 
BRANCH  13  14
HETATM   14  C   UNL     1      45.509 -11.235   6.207  1.00  0.00     0.227 C 
HETATM   15  N   UNL     1      46.241 -10.319   6.924  1.00  0.00    -0.360 N 
HETATM   16  H   UNL     1      46.735  -9.662   6.328  1.00  0.00     0.162 HD
HETATM   17  O   UNL     1      45.618 -11.234   4.982  1.00  0.00    -0.273 OA
BRANCH  15  18
HETATM   18  C   UNL     1      46.128 -10.044   8.344  1.00  0.00     0.127 C 
BRANCH  18  19
HETATM   19  C   UNL     1      45.295  -8.800   8.656  1.00  0.00     0.058 C 
BRANCH  19  20
HETATM   20  C   UNL     1      44.360  -9.077   9.808  1.00  0.00    -0.054 A 
HETATM   21  C   UNL     1      43.502  -8.072  10.284  1.00  0.00     0.046 A 
HETATM   22  C   UNL     1      42.695  -8.294  11.407  1.00  0.00     0.102 A 
HETATM   23  C   UNL     1      42.746  -9.537  12.067  1.00  0.00     0.101 A 
HETATM   24  C   UNL     1      43.585 -10.543  11.579  1.00  0.00     0.040 A 
HETATM   25  C   UNL     1      44.389 -10.313  10.459  1.00  0.00     0.010 A 
BRANCH  22  26
HETATM   26  O   UNL     1      41.849  -7.359  11.950  1.00  0.00    -0.353 OA
HETATM   27  C   UNL     1      42.161  -5.988  11.754  1.00  0.00     0.210 C 
ENDBRANCH  22  26
BRANCH  23  28
HETATM   28  O   UNL     1      41.939  -9.670  13.170  1.00  0.00    -0.353 OA
HETATM   29  C   UNL     1      40.614 -10.138  12.963  1.00  0.00     0.210 C 
ENDBRANCH  23  28
ENDBRANCH  19  20
ENDBRANCH  18  19
ENDBRANCH  15  18
ENDBRANCH  13  14
ENDBRANCH  12  13
ENDBRANCH   2  12
BRANCH   1  30
HETATM   30  C   UNL     1      41.850 -12.636   3.537  1.00  0.00     0.051 A 
HETATM   31  C   UNL     1      40.520 -12.242   3.823  1.00  0.00    -0.013 A 
HETATM   32  C   UNL     1      39.625 -13.085   4.697  1.00  0.00     0.052 C 
HETATM   33  C   UNL     1      40.053 -11.025   3.289  1.00  0.00     0.042 A 
HETATM   34 CL   UNL     1      38.474 -10.422   3.651  1.00  0.00    -0.084 Cl
HETATM   35  C   UNL     1      40.865 -10.241   2.465  1.00  0.00     0.024 A 
HETATM   36  C   UNL     1      42.162 -10.647   2.169  1.00  0.00     0.004 A 
HETATM   37  C   UNL     1      42.656 -11.830   2.712  1.00  0.00     0.031 A 
ENDBRANCH   1  30
BRANCH   6  38
HETATM   38  N   UNL     1      41.911 -15.219   2.223  1.00  0.00    -0.384 N 
HETATM   39  H   UNL     1      41.932 -16.104   1.739  1.00  0.00     0.157 HD
HETATM   40  H   UNL     1      41.429 -14.445   1.785  1.00  0.00     0.157 HD
ENDBRANCH   6  38
TORSDOF 10
ENDMDL
MODEL 4
REMARK VINA RESULT:      -7.9      3.698      9.168
REMARK  10 active torsions:
REMARK  status: ('A' for Active; 'I' for Inactive)
REMARK    1  A    between atoms: C_8  and  N_9 
REMARK    2  A    between atoms: C_10  and  S_11 
REMARK    3  A    between atoms: S_11  and  C_12 
REMARK    4  A    between atoms: C_12  and  C_13 
REMARK       I    between atoms: C_13  and  N_14 
REMARK    5  A    between atoms: N_14  and  C_15 
REMARK    6  A    between atoms: C_15  and  C_16 
REMARK    7  A    between atoms: C_16  and  C_17 
REMARK    8  A    between atoms: C_19  and  O_20 
REMARK    9  A    between atoms: C_22  and  O_23 
REMARK   10  A    between atoms: C_31  and  N_32 
ROOT
HETATM    1  N   UNL     1      41.360 -13.960   2.075  1.00  0.00    -0.275 N 
HETATM    2  C   UNL     1      42.019 -12.709   2.217  1.00  0.00     0.177 A 
HETATM    3  N   UNL     1      41.840 -11.657   1.456  1.00  0.00    -0.204 NA
HETATM    4  C   UNL     1      40.933 -11.842   0.473  1.00  0.00     0.162 A 
HETATM    5  C   UNL     1      40.209 -12.959   0.158  1.00  0.00     0.081 A 
HETATM    6  C   UNL     1      40.421 -14.119   0.972  1.00  0.00     0.124 A 
HETATM    7  N   UNL     1      40.544 -10.895  -0.428  1.00  0.00    -0.260 N 
HETATM    8  H   UNL     1      40.861  -9.935  -0.497  1.00  0.00     0.191 HD
HETATM    9  N   UNL     1      39.621 -11.349  -1.305  1.00  0.00    -0.177 NA
HETATM   10  C   UNL     1      39.406 -12.624  -0.942  1.00  0.00     0.068 A 
HETATM   11  C   UNL     1      38.422 -13.438  -1.692  1.00  0.00     0.073 C 
ENDROOT
BRANCH   2  12
HETATM   12  S   UNL     1      43.199 -12.476   3.524  1.00  0.00    -0.082 SA
BRANCH  12  13
HETATM   13  C   UNL     1      42.305 -11.229   4.498  1.00  0.00     0.185 C 
BRANCH  13  14
HETATM   14  C   UNL     1      41.963 -11.730   5.895  1.00  0.00     0.227 C 
HETATM   15  N   UNL     1      42.830 -11.426   6.917  1.00  0.00    -0.360 N 
HETATM   16  H   UNL     1      42.557 -11.848   7.800  1.00  0.00     0.162 HD
HETATM   17  O   UNL     1      40.939 -12.352   6.169  1.00  0.00    -0.273 OA
BRANCH  15  18
HETATM   18  C   UNL     1      44.157 -10.857   6.784  1.00  0.00     0.127 C 
BRANCH  18  19
HETATM   19  C   UNL     1      44.970 -10.906   8.078  1.00  0.00     0.058 C 
BRANCH  19  20
HETATM   20  C   UNL     1      44.339 -10.017   9.122  1.00  0.00    -0.054 A 
HETATM   21  C   UNL     1      44.037  -8.677   8.826  1.00  0.00     0.046 A 
HETATM   22  C   UNL     1      43.533  -7.822   9.815  1.00  0.00     0.102 A 
HETATM   23  C   UNL     1      43.328  -8.311  11.119  1.00  0.00     0.101 A 
HETATM   24  C   UNL     1      43.609  -9.650  11.406  1.00  0.00     0.040 A 
HETATM   25  C   UNL     1      44.113 -10.495  10.415  1.00  0.00     0.010 A 
BRANCH  22  26
HETATM   26  O   UNL     1      43.236  -6.496   9.615  1.00  0.00    -0.353 OA
HETATM   27  C   UNL     1      42.213  -6.178   8.684  1.00  0.00     0.210 C 
ENDBRANCH  22  26
BRANCH  23  28
HETATM   28  O   UNL     1      42.848  -7.407  12.035  1.00  0.00    -0.353 OA
HETATM   29  C   UNL     1      43.062  -7.688  13.411  1.00  0.00     0.210 C 
ENDBRANCH  23  28
ENDBRANCH  19  20
ENDBRANCH  18  19
ENDBRANCH  15  18
ENDBRANCH  13  14
ENDBRANCH  12  13
ENDBRANCH   2  12
BRANCH   1  30
HETATM   30  C   UNL     1      41.575 -15.030   2.999  1.00  0.00     0.051 A 
HETATM   31  C   UNL     1      42.593 -15.991   2.787  1.00  0.00    -0.013 A 
HETATM   32  C   UNL     1      43.427 -15.983   1.529  1.00  0.00     0.052 C 
HETATM   33  C   UNL     1      42.829 -16.950   3.791  1.00  0.00     0.042 A 
HETATM   34 CL   UNL     1      44.103 -18.111   3.658  1.00  0.00    -0.084 Cl
HETATM   35  C   UNL     1      42.055 -16.981   4.954  1.00  0.00     0.024 A 
HETATM   36  C   UNL     1      41.041 -16.047   5.146  1.00  0.00     0.004 A 
HETATM   37  C   UNL     1      40.812 -15.070   4.181  1.00  0.00     0.031 A 
ENDBRANCH   1  30
BRANCH   6  38
HETATM   38  N   UNL     1      39.809 -15.259   0.713  1.00  0.00    -0.384 N 
HETATM   39  H   UNL     1      40.320 -16.117   0.569  1.00  0.00     0.157 HD
HETATM   40  H   UNL     1      38.798 -15.292   0.672  1.00  0.00     0.157 HD
ENDBRANCH   6  38
TORSDOF 10
ENDMDL
MODEL 5
REMARK VINA RESULT:      -7.9      4.963     10.046
REMARK  10 active torsions:
REMARK  status: ('A' for Active; 'I' for Inactive)
REMARK    1  A    between atoms: C_8  and  N_9 
REMARK    2  A    between atoms: C_10  and  S_11 
REMARK    3  A    between atoms: S_11  and  C_12 
REMARK    4  A    between atoms: C_12  and  C_13 
REMARK       I    between atoms: C_13  and  N_14 
REMARK    5  A    between atoms: N_14  and  C_15 
REMARK    6  A    between atoms: C_15  and  C_16 
REMARK    7  A    between atoms: C_16  and  C_17 
REMARK    8  A    between atoms: C_19  and  O_20 
REMARK    9  A    between atoms: C_22  and  O_23 
REMARK   10  A    between atoms: C_31  and  N_32 
ROOT
HETATM    1  N   UNL     1      41.620 -12.734   4.737  1.00  0.00    -0.275 N 
HETATM    2  C   UNL     1      42.632 -11.807   5.106  1.00  0.00     0.177 A 
HETATM    3  N   UNL     1      42.619 -10.520   4.859  1.00  0.00    -0.204 NA
HETATM    4  C   UNL     1      41.520 -10.101   4.197  1.00  0.00     0.162 A 
HETATM    5  C   UNL     1      40.451 -10.825   3.742  1.00  0.00     0.081 A 
HETATM    6  C   UNL     1      40.473 -12.236   3.989  1.00  0.00     0.124 A 
HETATM    7  N   UNL     1      41.252  -8.810   3.852  1.00  0.00    -0.260 N 
HETATM    8  H   UNL     1      41.815  -7.987   4.034  1.00  0.00     0.191 HD
HETATM    9  N   UNL     1      40.079  -8.672   3.194  1.00  0.00    -0.177 NA
HETATM   10  C   UNL     1      39.578  -9.916   3.129  1.00  0.00     0.068 A 
HETATM   11  C   UNL     1      38.267 -10.139   2.475  1.00  0.00     0.073 C 
ENDROOT
BRANCH   2  12
HETATM   12  S   UNL     1      44.066 -12.370   5.989  1.00  0.00    -0.082 SA
BRANCH  12  13
HETATM   13  C   UNL     1      43.844 -11.427   7.527  1.00  0.00     0.185 C 
BRANCH  13  14
HETATM   14  C   UNL     1      45.163 -10.893   8.067  1.00  0.00     0.227 C 
HETATM   15  N   UNL     1      45.188 -10.429   9.360  1.00  0.00    -0.360 N 
HETATM   16  H   UNL     1      46.090 -10.038   9.618  1.00  0.00     0.162 HD
HETATM   17  O   UNL     1      46.215 -10.893   7.430  1.00  0.00    -0.273 OA
BRANCH  15  18
HETATM   18  C   UNL     1      44.042 -10.189  10.215  1.00  0.00     0.127 C 
BRANCH  18  19
HETATM   19  C   UNL     1      43.954  -8.749  10.720  1.00  0.00     0.058 C 
BRANCH  19  20
HETATM   20  C   UNL     1      43.209  -8.703  12.032  1.00  0.00    -0.054 A 
HETATM   21  C   UNL     1      42.150  -9.593  12.280  1.00  0.00     0.046 A 
HETATM   22  C   UNL     1      41.398  -9.500  13.458  1.00  0.00     0.102 A 
HETATM   23  C   UNL     1      41.706  -8.502  14.404  1.00  0.00     0.101 A 
HETATM   24  C   UNL     1      42.773  -7.631  14.165  1.00  0.00     0.040 A 
HETATM   25  C   UNL     1      43.517  -7.730  12.986  1.00  0.00     0.010 A 
BRANCH  22  26
HETATM   26  O   UNL     1      40.335 -10.312  13.765  1.00  0.00    -0.353 OA
HETATM   27  C   UNL     1      39.409 -10.613  12.731  1.00  0.00     0.210 C 
ENDBRANCH  22  26
BRANCH  23  28
HETATM   28  O   UNL     1      40.912  -8.465  15.523  1.00  0.00    -0.353 OA
HETATM   29  C   UNL     1      41.349  -7.666  16.614  1.00  0.00     0.210 C 
ENDBRANCH  23  28
ENDBRANCH  19  20
ENDBRANCH  18  19
ENDBRANCH  15  18
ENDBRANCH  13  14
ENDBRANCH  12  13
ENDBRANCH   2  12
BRANCH   1  30
HETATM   30  C   UNL     1      41.694 -14.113   5.113  1.00  0.00     0.051 A 
HETATM   31  C   UNL     1      42.396 -15.053   4.321  1.00  0.00    -0.013 A 
HETATM   32  C   UNL     1      43.014 -14.660   3.001  1.00  0.00     0.052 C 
HETATM   33  C   UNL     1      42.530 -16.369   4.805  1.00  0.00     0.042 A 
HETATM   34 CL   UNL     1      43.440 -17.564   3.948  1.00  0.00    -0.084 Cl
HETATM   35  C   UNL     1      41.951 -16.753   6.017  1.00  0.00     0.024 A 
HETATM   36  C   UNL     1      41.241 -15.830   6.778  1.00  0.00     0.004 A 
HETATM   37  C   UNL     1      41.126 -14.515   6.336  1.00  0.00     0.031 A 
ENDBRANCH   1  30
BRANCH   6  38
HETATM   38  N   UNL     1      39.515 -13.025   3.541  1.00  0.00    -0.384 N 
HETATM   39  H   UNL     1      39.688 -13.729   2.839  1.00  0.00     0.157 HD
HETATM   40  H   UNL     1      38.578 -12.945   3.917  1.00  0.00     0.157 HD
ENDBRANCH   6  38
TORSDOF 10
ENDMDL
MODEL 6
REMARK VINA RESULT:      -7.8      3.929      9.294
REMARK  10 active torsions:
REMARK  status: ('A' for Active; 'I' for Inactive)
REMARK    1  A    between atoms: C_8  and  N_9 
REMARK    2  A    between atoms: C_10  and  S_11 
REMARK    3  A    between atoms: S_11  and  C_12 
REMARK    4  A    between atoms: C_12  and  C_13 
REMARK       I    between atoms: C_13  and  N_14 
REMARK    5  A    between atoms: N_14  and  C_15 
REMARK    6  A    between atoms: C_15  and  C_16 
REMARK    7  A    between atoms: C_16  and  C_17 
REMARK    8  A    between atoms: C_19  and  O_20 
REMARK    9  A    between atoms: C_22  and  O_23 
REMARK   10  A    between atoms: C_31  and  N_32 
ROOT
HETATM    1  N   UNL     1      41.938 -15.252   3.989  1.00  0.00    -0.275 N 
HETATM    2  C   UNL     1      42.372 -15.268   5.341  1.00  0.00     0.177 A 
HETATM    3  N   UNL     1      43.081 -16.215   5.908  1.00  0.00    -0.204 NA
HETATM    4  C   UNL     1      43.396 -17.232   5.078  1.00  0.00     0.162 A 
HETATM    5  C   UNL     1      43.066 -17.415   3.763  1.00  0.00     0.081 A 
HETATM    6  C   UNL     1      42.271 -16.394   3.147  1.00  0.00     0.124 A 
HETATM    7  N   UNL     1      44.150 -18.318   5.413  1.00  0.00    -0.260 N 
HETATM    8  H   UNL     1      44.582 -18.523   6.307  1.00  0.00     0.191 HD
HETATM    9  N   UNL     1      44.310 -19.185   4.390  1.00  0.00    -0.177 NA
HETATM   10  C   UNL     1      43.646 -18.627   3.364  1.00  0.00     0.068 A 
HETATM   11  C   UNL     1      43.625 -19.314   2.052  1.00  0.00     0.073 C 
ENDROOT
BRANCH   2  12
HETATM   12  S   UNL     1      41.963 -13.917   6.417  1.00  0.00    -0.082 SA
BRANCH  12  13
HETATM   13  C   UNL     1      43.567 -13.061   6.427  1.00  0.00     0.185 C 
BRANCH  13  14
HETATM   14  C   UNL     1      43.428 -11.580   6.102  1.00  0.00     0.227 C 
HETATM   15  N   UNL     1      44.486 -10.755   6.399  1.00  0.00    -0.360 N 
HETATM   16  H   UNL     1      44.286  -9.778   6.205  1.00  0.00     0.162 HD
HETATM   17  O   UNL     1      42.445 -11.088   5.552  1.00  0.00    -0.273 OA
BRANCH  15  18
HETATM   18  C   UNL     1      45.653 -11.096   7.190  1.00  0.00     0.127 C 
BRANCH  18  19
HETATM   19  C   UNL     1      46.248  -9.904   7.938  1.00  0.00     0.058 C 
BRANCH  19  20
HETATM   20  C   UNL     1      45.256  -9.374   8.945  1.00  0.00    -0.054 A 
HETATM   21  C   UNL     1      44.570  -8.172   8.703  1.00  0.00     0.046 A 
HETATM   22  C   UNL     1      43.714  -7.630   9.670  1.00  0.00     0.102 A 
HETATM   23  C   UNL     1      43.540  -8.296  10.898  1.00  0.00     0.101 A 
HETATM   24  C   UNL     1      44.207  -9.504  11.128  1.00  0.00     0.040 A 
HETATM   25  C   UNL     1      45.061 -10.036  10.159  1.00  0.00     0.010 A 
BRANCH  22  26
HETATM   26  O   UNL     1      43.027  -6.450   9.523  1.00  0.00    -0.353 OA
HETATM   27  C   UNL     1      41.866  -6.455   8.707  1.00  0.00     0.210 C 
ENDBRANCH  22  26
BRANCH  23  28
HETATM   28  O   UNL     1      42.699  -7.693  11.800  1.00  0.00    -0.353 OA
HETATM   29  C   UNL     1      42.819  -8.068  13.165  1.00  0.00     0.210 C 
ENDBRANCH  23  28
ENDBRANCH  19  20
ENDBRANCH  18  19
ENDBRANCH  15  18
ENDBRANCH  13  14
ENDBRANCH  12  13
ENDBRANCH   2  12
BRANCH   1  30
HETATM   30  C   UNL     1      41.224 -14.139   3.444  1.00  0.00     0.051 A 
HETATM   31  C   UNL     1      41.901 -13.074   2.802  1.00  0.00    -0.013 A 
HETATM   32  C   UNL     1      43.409 -13.023   2.751  1.00  0.00     0.052 C 
HETATM   33  C   UNL     1      41.134 -12.066   2.186  1.00  0.00     0.042 A 
HETATM   34 CL   UNL     1      41.870 -10.772   1.308  1.00  0.00    -0.084 Cl
HETATM   35  C   UNL     1      39.737 -12.091   2.238  1.00  0.00     0.024 A 
HETATM   36  C   UNL     1      39.079 -13.128   2.892  1.00  0.00     0.004 A 
HETATM   37  C   UNL     1      39.817 -14.152   3.479  1.00  0.00     0.031 A 
ENDBRANCH   1  30
BRANCH   6  38
HETATM   38  N   UNL     1      41.857 -16.507   1.899  1.00  0.00    -0.384 N 
HETATM   39  H   UNL     1      40.975 -16.939   1.667  1.00  0.00     0.157 HD
HETATM   40  H   UNL     1      42.423 -16.139   1.145  1.00  0.00     0.157 HD
ENDBRANCH   6  38
TORSDOF 10
ENDMDL
MODEL 7
REMARK VINA RESULT:      -7.7      3.696      6.907
REMARK  10 active torsions:
REMARK  status: ('A' for Active; 'I' for Inactive)
REMARK    1  A    between atoms: C_8  and  N_9 
REMARK    2  A    between atoms: C_10  and  S_11 
REMARK    3  A    between atoms: S_11  and  C_12 
REMARK    4  A    between atoms: C_12  and  C_13 
REMARK       I    between atoms: C_13  and  N_14 
REMARK    5  A    between atoms: N_14  and  C_15 
REMARK    6  A    between atoms: C_15  and  C_16 
REMARK    7  A    between atoms: C_16  and  C_17 
REMARK    8  A    between atoms: C_19  and  O_20 
REMARK    9  A    between atoms: C_22  and  O_23 
REMARK   10  A    between atoms: C_31  and  N_32 
ROOT
HETATM    1  N   UNL     1      40.517 -10.655   1.921  1.00  0.00    -0.275 N 
HETATM    2  C   UNL     1      39.376 -11.482   1.739  1.00  0.00     0.177 A 
HETATM    3  N   UNL     1      38.926 -12.366   2.596  1.00  0.00    -0.204 NA
HETATM    4  C   UNL     1      39.652 -12.446   3.731  1.00  0.00     0.162 A 
HETATM    5  C   UNL     1      40.780 -11.760   4.092  1.00  0.00     0.081 A 
HETATM    6  C   UNL     1      41.289 -10.810   3.147  1.00  0.00     0.124 A 
HETATM    7  N   UNL     1      39.375 -13.261   4.789  1.00  0.00    -0.260 N 
HETATM    8  H   UNL     1      38.603 -13.911   4.888  1.00  0.00     0.191 HD
HETATM    9  N   UNL     1      40.267 -13.140   5.797  1.00  0.00    -0.177 NA
HETATM   10  C   UNL     1      41.135 -12.207   5.372  1.00  0.00     0.068 A 
HETATM   11  C   UNL     1      42.258 -11.805   6.250  1.00  0.00     0.073 C 
ENDROOT
BRANCH   2  12
HETATM   12  S   UNL     1      38.422 -11.356   0.247  1.00  0.00    -0.082 SA
BRANCH  12  13
HETATM   13  C   UNL     1      38.702 -13.025  -0.414  1.00  0.00     0.185 C 
BRANCH  13  14
HETATM   14  C   UNL     1      40.031 -13.135  -1.149  1.00  0.00     0.227 C 
HETATM   15  N   UNL     1      40.990 -13.967  -0.625  1.00  0.00    -0.360 N 
HETATM   16  H   UNL     1      41.863 -13.934  -1.144  1.00  0.00     0.162 HD
HETATM   17  O   UNL     1      40.280 -12.557  -2.206  1.00  0.00    -0.273 OA
BRANCH  15  18
HETATM   18  C   UNL     1      40.965 -14.601   0.680  1.00  0.00     0.127 C 
BRANCH  18  19
HETATM   19  C   UNL     1      42.106 -14.154   1.593  1.00  0.00     0.058 C 
BRANCH  19  20
HETATM   20  C   UNL     1      42.548 -15.300   2.471  1.00  0.00    -0.054 A 
HETATM   21  C   UNL     1      42.683 -15.123   3.858  1.00  0.00     0.046 A 
HETATM   22  C   UNL     1      43.176 -16.154   4.667  1.00  0.00     0.102 A 
HETATM   23  C   UNL     1      43.541 -17.383   4.083  1.00  0.00     0.101 A 
HETATM   24  C   UNL     1      43.386 -17.565   2.705  1.00  0.00     0.040 A 
HETATM   25  C   UNL     1      42.896 -16.529   1.906  1.00  0.00     0.010 A 
BRANCH  22  26
HETATM   26  O   UNL     1      43.361 -16.054   6.023  1.00  0.00    -0.353 OA
HETATM   27  C   UNL     1      42.208 -16.009   6.850  1.00  0.00     0.210 C 
ENDBRANCH  22  26
BRANCH  23  28
HETATM   28  O   UNL     1      44.032 -18.337   4.939  1.00  0.00    -0.353 OA
HETATM   29  C   UNL     1      44.259 -19.637   4.415  1.00  0.00     0.210 C 
ENDBRANCH  23  28
ENDBRANCH  19  20
ENDBRANCH  18  19
ENDBRANCH  15  18
ENDBRANCH  13  14
ENDBRANCH  12  13
ENDBRANCH   2  12
BRANCH   1  30
HETATM   30  C   UNL     1      40.890  -9.670   0.953  1.00  0.00     0.051 A 
HETATM   31  C   UNL     1      40.501  -8.316   1.095  1.00  0.00    -0.013 A 
HETATM   32  C   UNL     1      39.596  -7.875   2.220  1.00  0.00     0.052 C 
HETATM   33  C   UNL     1      40.997  -7.376   0.171  1.00  0.00     0.042 A 
HETATM   34 CL   UNL     1      40.644  -5.689   0.313  1.00  0.00    -0.084 Cl
HETATM   35  C   UNL     1      41.823  -7.770  -0.885  1.00  0.00     0.024 A 
HETATM   36  C   UNL     1      42.182  -9.106  -1.032  1.00  0.00     0.004 A 
HETATM   37  C   UNL     1      41.730 -10.047  -0.111  1.00  0.00     0.031 A 
ENDBRANCH   1  30
BRANCH   6  38
HETATM   38  N   UNL     1      42.401 -10.139   3.381  1.00  0.00    -0.384 N 
HETATM   39  H   UNL     1      42.389  -9.180   3.695  1.00  0.00     0.157 HD
HETATM   40  H   UNL     1      43.298 -10.593   3.263  1.00  0.00     0.157 HD
ENDBRANCH   6  38
TORSDOF 10
ENDMDL
MODEL 8
REMARK VINA RESULT:      -7.7      3.870      9.124
REMARK  10 active torsions:
REMARK  status: ('A' for Active; 'I' for Inactive)
REMARK    1  A    between atoms: C_8  and  N_9 
REMARK    2  A    between atoms: C_10  and  S_11 
REMARK    3  A    between atoms: S_11  and  C_12 
REMARK    4  A    between atoms: C_12  and  C_13 
REMARK       I    between atoms: C_13  and  N_14 
REMARK    5  A    between atoms: N_14  and  C_15 
REMARK    6  A    between atoms: C_15  and  C_16 
REMARK    7  A    between atoms: C_16  and  C_17 
REMARK    8  A    between atoms: C_19  and  O_20 
REMARK    9  A    between atoms: C_22  and  O_23 
REMARK   10  A    between atoms: C_31  and  N_32 
ROOT
HETATM    1  N   UNL     1      41.263 -13.933   1.977  1.00  0.00    -0.275 N 
HETATM    2  C   UNL     1      41.894 -12.663   2.074  1.00  0.00     0.177 A 
HETATM    3  N   UNL     1      41.717 -11.655   1.254  1.00  0.00    -0.204 NA
HETATM    4  C   UNL     1      40.844 -11.908   0.256  1.00  0.00     0.162 A 
HETATM    5  C   UNL     1      40.151 -13.055  -0.022  1.00  0.00     0.081 A 
HETATM    6  C   UNL     1      40.361 -14.167   0.857  1.00  0.00     0.124 A 
HETATM    7  N   UNL     1      40.464 -11.017  -0.704  1.00  0.00    -0.260 N 
HETATM    8  H   UNL     1      40.764 -10.055  -0.813  1.00  0.00     0.191 HD
HETATM    9  N   UNL     1      39.577 -11.535  -1.582  1.00  0.00    -0.177 NA
HETATM   10  C   UNL     1      39.376 -12.794  -1.160  1.00  0.00     0.068 A 
HETATM   11  C   UNL     1      38.429 -13.665  -1.895  1.00  0.00     0.073 C 
ENDROOT
BRANCH   2  12
HETATM   12  S   UNL     1      43.029 -12.339   3.400  1.00  0.00    -0.082 SA
BRANCH  12  13
HETATM   13  C   UNL     1      41.936 -11.371   4.483  1.00  0.00     0.185 C 
BRANCH  13  14
HETATM   14  C   UNL     1      41.865 -11.950   5.889  1.00  0.00     0.227 C 
HETATM   15  N   UNL     1      40.931 -11.429   6.752  1.00  0.00    -0.360 N 
HETATM   16  H   UNL     1      40.993 -11.831   7.684  1.00  0.00     0.162 HD
HETATM   17  O   UNL     1      42.561 -12.884   6.283  1.00  0.00    -0.273 OA
BRANCH  15  18
HETATM   18  C   UNL     1      40.138 -10.232   6.548  1.00  0.00     0.127 C 
BRANCH  18  19
HETATM   19  C   UNL     1      40.729  -8.992   7.219  1.00  0.00     0.058 C 
BRANCH  19  20
HETATM   20  C   UNL     1      40.816  -9.201   8.712  1.00  0.00    -0.054 A 
HETATM   21  C   UNL     1      42.064  -9.222   9.356  1.00  0.00     0.046 A 
HETATM   22  C   UNL     1      42.158  -9.502  10.725  1.00  0.00     0.102 A 
HETATM   23  C   UNL     1      40.989  -9.768  11.464  1.00  0.00     0.101 A 
HETATM   24  C   UNL     1      39.746  -9.725  10.825  1.00  0.00     0.040 A 
HETATM   25  C   UNL     1      39.661  -9.447   9.459  1.00  0.00     0.010 A 
BRANCH  22  26
HETATM   26  O   UNL     1      43.339  -9.567  11.423  1.00  0.00    -0.353 OA
HETATM   27  C   UNL     1      44.461 -10.149  10.778  1.00  0.00     0.210 C 
ENDBRANCH  22  26
BRANCH  23  28
HETATM   28  O   UNL     1      41.166 -10.051  12.795  1.00  0.00    -0.353 OA
HETATM   29  C   UNL     1      40.746  -9.075  13.737  1.00  0.00     0.210 C 
ENDBRANCH  23  28
ENDBRANCH  19  20
ENDBRANCH  18  19
ENDBRANCH  15  18
ENDBRANCH  13  14
ENDBRANCH  12  13
ENDBRANCH   2  12
BRANCH   1  30
HETATM   30  C   UNL     1      41.471 -14.949   2.962  1.00  0.00     0.051 A 
HETATM   31  C   UNL     1      42.509 -15.903   2.825  1.00  0.00    -0.013 A 
HETATM   32  C   UNL     1      43.376 -15.945   1.591  1.00  0.00     0.052 C 
HETATM   33  C   UNL     1      42.734 -16.804   3.884  1.00  0.00     0.042 A 
HETATM   34 CL   UNL     1      44.030 -17.947   3.844  1.00  0.00    -0.084 Cl
HETATM   35  C   UNL     1      41.930 -16.787   5.027  1.00  0.00     0.024 A 
HETATM   36  C   UNL     1      40.897 -15.863   5.144  1.00  0.00     0.004 A 
HETATM   37  C   UNL     1      40.678 -14.941   4.124  1.00  0.00     0.031 A 
ENDBRANCH   1  30
BRANCH   6  38
HETATM   38  N   UNL     1      39.779 -15.331   0.640  1.00  0.00    -0.384 N 
HETATM   39  H   UNL     1      40.313 -16.172   0.478  1.00  0.00     0.157 HD
HETATM   40  H   UNL     1      38.769 -15.401   0.651  1.00  0.00     0.157 HD
ENDBRANCH   6  38
TORSDOF 10
ENDMDL
MODEL 9
REMARK VINA RESULT:      -7.6     17.206     19.748
REMARK  10 active torsions:
REMARK  status: ('A' for Active; 'I' for Inactive)
REMARK    1  A    between atoms: C_8  and  N_9 
REMARK    2  A    between atoms: C_10  and  S_11 
REMARK    3  A    between atoms: S_11  and  C_12 
REMARK    4  A    between atoms: C_12  and  C_13 
REMARK       I    between atoms: C_13  and  N_14 
REMARK    5  A    between atoms: N_14  and  C_15 
REMARK    6  A    between atoms: C_15  and  C_16 
REMARK    7  A    between atoms: C_16  and  C_17 
REMARK    8  A    between atoms: C_19  and  O_20 
REMARK    9  A    between atoms: C_22  and  O_23 
REMARK   10  A    between atoms: C_31  and  N_32 
ROOT
HETATM    1  N   UNL     1      44.910 -30.496   1.595  1.00  0.00    -0.275 N 
HETATM    2  C   UNL     1      45.112 -29.308   0.842  1.00  0.00     0.177 A 
HETATM    3  N   UNL     1      46.106 -28.466   0.991  1.00  0.00    -0.204 NA
HETATM    4  C   UNL     1      46.981 -28.818   1.957  1.00  0.00     0.162 A 
HETATM    5  C   UNL     1      46.960 -29.899   2.797  1.00  0.00     0.081 A 
HETATM    6  C   UNL     1      45.862 -30.808   2.653  1.00  0.00     0.124 A 
HETATM    7  N   UNL     1      48.113 -28.131   2.284  1.00  0.00    -0.260 N 
HETATM    8  H   UNL     1      48.465 -27.278   1.866  1.00  0.00     0.191 HD
HETATM    9  N   UNL     1      48.807 -28.707   3.291  1.00  0.00    -0.177 NA
HETATM   10  C   UNL     1      48.101 -29.805   3.606  1.00  0.00     0.068 A 
HETATM   11  C   UNL     1      48.590 -30.701   4.680  1.00  0.00     0.073 C 
ENDROOT
BRANCH   2  12
HETATM   12  S   UNL     1      43.962 -28.865  -0.435  1.00  0.00    -0.082 SA
BRANCH  12  13
HETATM   13  C   UNL     1      44.795 -29.637  -1.853  1.00  0.00     0.185 C 
BRANCH  13  14
HETATM   14  C   UNL     1      45.601 -28.629  -2.662  1.00  0.00     0.227 C 
HETATM   15  N   UNL     1      46.960 -28.815  -2.749  1.00  0.00    -0.360 N 
HETATM   16  H   UNL     1      47.424 -28.067  -3.256  1.00  0.00     0.162 HD
HETATM   17  O   UNL     1      45.103 -27.687  -3.276  1.00  0.00    -0.273 OA
BRANCH  15  18
HETATM   18  C   UNL     1      47.756 -29.749  -1.977  1.00  0.00     0.127 C 
BRANCH  18  19
HETATM   19  C   UNL     1      48.864 -29.076  -1.167  1.00  0.00     0.058 C 
BRANCH  19  20
HETATM   20  C   UNL     1      50.017 -30.030  -0.970  1.00  0.00    -0.054 A 
HETATM   21  C   UNL     1      50.835 -30.391  -2.054  1.00  0.00     0.046 A 
HETATM   22  C   UNL     1      51.851 -31.342  -1.897  1.00  0.00     0.102 A 
HETATM   23  C   UNL     1      52.053 -31.946  -0.641  1.00  0.00     0.101 A 
HETATM   24  C   UNL     1      51.251 -31.570   0.441  1.00  0.00     0.040 A 
HETATM   25  C   UNL     1      50.239 -30.622   0.276  1.00  0.00     0.010 A 
BRANCH  22  26
HETATM   26  O   UNL     1      52.676 -31.768  -2.909  1.00  0.00    -0.353 OA
HETATM   27  C   UNL     1      52.096 -32.504  -3.975  1.00  0.00     0.210 C 
ENDBRANCH  22  26
BRANCH  23  28
HETATM   28  O   UNL     1      53.056 -32.881  -0.574  1.00  0.00    -0.353 OA
HETATM   29  C   UNL     1      52.678 -34.241  -0.415  1.00  0.00     0.210 C 
ENDBRANCH  23  28
ENDBRANCH  19  20
ENDBRANCH  18  19
ENDBRANCH  15  18
ENDBRANCH  13  14
ENDBRANCH  12  13
ENDBRANCH   2  12
BRANCH   1  30
HETATM   30  C   UNL     1      43.828 -31.387   1.312  1.00  0.00     0.051 A 
HETATM   31  C   UNL     1      42.553 -31.205   1.901  1.00  0.00    -0.013 A 
HETATM   32  C   UNL     1      42.310 -30.123   2.924  1.00  0.00     0.052 C 
HETATM   33  C   UNL     1      41.500 -32.047   1.491  1.00  0.00     0.042 A 
HETATM   34 CL   UNL     1      39.891 -31.847   2.092  1.00  0.00    -0.084 Cl
HETATM   35  C   UNL     1      41.712 -33.064   0.557  1.00  0.00     0.024 A 
HETATM   36  C   UNL     1      42.973 -33.252   0.000  1.00  0.00     0.004 A 
HETATM   37  C   UNL     1      44.021 -32.411   0.365  1.00  0.00     0.031 A 
ENDBRANCH   1  30
BRANCH   6  38
HETATM   38  N   UNL     1      45.726 -31.850   3.452  1.00  0.00    -0.384 N 
HETATM   39  H   UNL     1      45.821 -32.796   3.115  1.00  0.00     0.157 HD
HETATM   40  H   UNL     1      45.538 -31.709   4.437  1.00  0.00     0.157 HD
ENDBRANCH   6  38
TORSDOF 10
ENDMDL
MODEL 10
REMARK VINA RESULT:      -7.5      4.363      9.575
REMARK  10 active torsions:
REMARK  status: ('A' for Active; 'I' for Inactive)
REMARK    1  A    between atoms: C_8  and  N_9 
REMARK    2  A    between atoms: C_10  and  S_11 
REMARK    3  A    between atoms: S_11  and  C_12 
REMARK    4  A    between atoms: C_12  and  C_13 
REMARK       I    between atoms: C_13  and  N_14 
REMARK    5  A    between atoms: N_14  and  C_15 
REMARK    6  A    between atoms: C_15  and  C_16 
REMARK    7  A    between atoms: C_16  and  C_17 
REMARK    8  A    between atoms: C_19  and  O_20 
REMARK    9  A    between atoms: C_22  and  O_23 
REMARK   10  A    between atoms: C_31  and  N_32 
ROOT
HETATM    1  N   UNL     1      41.538 -12.997   2.404  1.00  0.00    -0.275 N 
HETATM    2  C   UNL     1      42.309 -11.806   2.483  1.00  0.00     0.177 A 
HETATM    3  N   UNL     1      42.118 -10.720   1.774  1.00  0.00    -0.204 NA
HETATM    4  C   UNL     1      41.080 -10.804   0.915  1.00  0.00     0.162 A 
HETATM    5  C   UNL     1      40.233 -11.852   0.675  1.00  0.00     0.081 A 
HETATM    6  C   UNL     1      40.454 -13.048   1.431  1.00  0.00     0.124 A 
HETATM    7  N   UNL     1      40.655  -9.803   0.092  1.00  0.00    -0.260 N 
HETATM    8  H   UNL     1      41.037  -8.869   0.001  1.00  0.00     0.191 HD
HETATM    9  N   UNL     1      39.593 -10.157  -0.665  1.00  0.00    -0.177 NA
HETATM   10  C   UNL     1      39.325 -11.422  -0.302  1.00  0.00     0.068 A 
HETATM   11  C   UNL     1      38.188 -12.134  -0.933  1.00  0.00     0.073 C 
ENDROOT
BRANCH   2  12
HETATM   12  S   UNL     1      43.663 -11.705   3.628  1.00  0.00    -0.082 SA
BRANCH  12  13
HETATM   13  C   UNL     1      42.811 -10.886   5.008  1.00  0.00     0.185 C 
BRANCH  13  14
HETATM   14  C   UNL     1      43.015 -11.622   6.325  1.00  0.00     0.227 C 
HETATM   15  N   UNL     1      42.530 -11.038   7.470  1.00  0.00    -0.360 N 
HETATM   16  H   UNL     1      42.761 -11.566   8.307  1.00  0.00     0.162 HD
HETATM   17  O   UNL     1      43.547 -12.726   6.418  1.00  0.00    -0.273 OA
BRANCH  15  18
HETATM   18  C   UNL     1      42.027  -9.684   7.604  1.00  0.00     0.127 C 
BRANCH  18  19
HETATM   19  C   UNL     1      43.003  -8.742   8.310  1.00  0.00     0.058 C 
BRANCH  19  20
HETATM   20  C   UNL     1      42.816  -8.826   9.805  1.00  0.00    -0.054 A 
HETATM   21  C   UNL     1      41.533  -8.984  10.354  1.00  0.00     0.046 A 
HETATM   22  C   UNL     1      41.342  -8.975  11.741  1.00  0.00     0.102 A 
HETATM   23  C   UNL     1      42.448  -8.805  12.596  1.00  0.00     0.101 A 
HETATM   24  C   UNL     1      43.728  -8.670  12.048  1.00  0.00     0.040 A 
HETATM   25  C   UNL     1      43.909  -8.677  10.663  1.00  0.00     0.010 A 
BRANCH  22  26
HETATM   26  O   UNL     1      40.120  -9.098  12.356  1.00  0.00    -0.353 OA
HETATM   27  C   UNL     1      39.603 -10.405  12.552  1.00  0.00     0.210 C 
ENDBRANCH  22  26
BRANCH  23  28
HETATM   28  O   UNL     1      42.177  -8.790  13.942  1.00  0.00    -0.353 OA
HETATM   29  C   UNL     1      42.419  -7.582  14.648  1.00  0.00     0.210 C 
ENDBRANCH  23  28
ENDBRANCH  19  20
ENDBRANCH  18  19
ENDBRANCH  15  18
ENDBRANCH  13  14
ENDBRANCH  12  13
ENDBRANCH   2  12
BRANCH   1  30
HETATM   30  C   UNL     1      41.784 -14.108   3.270  1.00  0.00     0.051 A 
HETATM   31  C   UNL     1      41.034 -14.295   4.457  1.00  0.00    -0.013 A 
HETATM   32  C   UNL     1      40.012 -13.279   4.905  1.00  0.00     0.052 C 
HETATM   33  C   UNL     1      41.245 -15.470   5.205  1.00  0.00     0.042 A 
HETATM   34 CL   UNL     1      40.319 -15.824   6.621  1.00  0.00    -0.084 Cl
HETATM   35  C   UNL     1      42.199 -16.412   4.811  1.00  0.00     0.024 A 
HETATM   36  C   UNL     1      42.949 -16.211   3.657  1.00  0.00     0.004 A 
HETATM   37  C   UNL     1      42.733 -15.073   2.884  1.00  0.00     0.031 A 
ENDBRANCH   1  30
BRANCH   6  38
HETATM   38  N   UNL     1      39.724 -14.130   1.232  1.00  0.00    -0.384 N 
HETATM   39  H   UNL     1      39.593 -14.522   0.312  1.00  0.00     0.157 HD
HETATM   40  H   UNL     1      39.291 -14.598   2.018  1.00  0.00     0.157 HD
ENDBRANCH   6  38
TORSDOF 10
ENDMDL
