MODEL 1
REMARK VINA RESULT:      -8.6      0.000      0.000
REMARK  5 active torsions:
REMARK  status: ('A' for Active; 'I' for Inactive)
REMARK    1  A    between atoms: C_3  and  O_4 
REMARK    2  A    between atoms: O_4  and  C_5 
REMARK    3  A    between atoms: C_5  and  C_6 
REMARK       I    between atoms: C_6  and  N_7 
REMARK    4  A    between atoms: N_7  and  N_8 
REMARK    5  A    between atoms: C_9  and  C_10 
ROOT
HETATM    1  C   UNL     1      41.319 -13.613   1.539  1.00  0.00     0.261 C 
HETATM    2  N   UNL     1      41.954 -14.795   1.157  1.00  0.00    -0.246 N 
HETATM    3  O   UNL     1      41.058 -13.285   2.695  1.00  0.00    -0.269 OA
HETATM    4  H   UNL     1      41.897 -15.054   0.175  1.00  0.00     0.192 HD
ENDROOT
BRANCH   2   5
HETATM    5  N   UNL     1      42.180 -15.852   2.009  1.00  0.00    -0.184 NA
HETATM    6  C   UNL     1      43.274 -15.828   2.703  1.00  0.00     0.153 C 
BRANCH   6   7
HETATM    7  C   UNL     1      43.545 -16.865   3.684  1.00  0.00     0.018 A 
HETATM    8  C   UNL     1      43.653 -18.285   3.504  1.00  0.00     0.004 A 
HETATM    9  C   UNL     1      43.895 -18.849   4.757  1.00  0.00     0.043 A 
HETATM   10  C   UNL     1      43.553 -19.154   2.396  1.00  0.00     0.014 A 
HETATM   11  C   UNL     1      44.040 -20.227   4.959  1.00  0.00     0.030 A 
HETATM   12  N   UNL     1      43.943 -17.818   5.663  1.00  0.00    -0.358 N 
HETATM   13  C   UNL     1      43.934 -21.062   3.844  1.00  0.00     0.002 A 
HETATM   14  C   UNL     1      43.695 -20.536   2.579  1.00  0.00     0.001 A 
HETATM   15  H   UNL     1      44.104 -17.941   6.653  1.00  0.00     0.166 HD
HETATM   16  C   UNL     1      43.729 -16.614   5.040  1.00  0.00     0.018 A 
HETATM   17  C   UNL     1      43.722 -15.340   5.805  1.00  0.00     0.069 C 
ENDBRANCH   6   7
ENDBRANCH   2   5
BRANCH   1  18
HETATM   18  C   UNL     1      40.866 -12.769   0.351  1.00  0.00     0.280 C 
BRANCH  18  19
HETATM   19  O   UNL     1      39.446 -12.781   0.236  1.00  0.00    -0.342 OA
BRANCH  19  20
HETATM   20  C   UNL     1      38.960 -13.329  -0.924  1.00  0.00     0.075 A 
HETATM   21  C   UNL     1      37.996 -12.582  -1.622  1.00  0.00    -0.029 A 
HETATM   22  C   UNL     1      37.460 -11.284  -1.083  1.00  0.00     0.051 C 
HETATM   23  C   UNL     1      37.460 -13.099  -2.813  1.00  0.00     0.009 A 
HETATM   24  C   UNL     1      37.903 -14.319  -3.321  1.00  0.00     0.001 A 
HETATM   25  C   UNL     1      38.883 -15.038  -2.644  1.00  0.00     0.003 A 
HETATM   26  C   UNL     1      39.413 -14.545  -1.450  1.00  0.00     0.037 A 
ENDBRANCH  19  20
ENDBRANCH  18  19
ENDBRANCH   1  18
TORSDOF 5
ENDMDL
MODEL 2
REMARK VINA RESULT:      -8.6      5.117      8.763
REMARK  5 active torsions:
REMARK  status: ('A' for Active; 'I' for Inactive)
REMARK    1  A    between atoms: C_3  and  O_4 
REMARK    2  A    between atoms: O_4  and  C_5 
REMARK    3  A    between atoms: C_5  and  C_6 
REMARK       I    between atoms: C_6  and  N_7 
REMARK    4  A    between atoms: N_7  and  N_8 
REMARK    5  A    between atoms: C_9  and  C_10 
ROOT
HETATM    1  C   UNL     1      42.695 -16.352   6.843  1.00  0.00     0.261 C 
HETATM    2  N   UNL     1      43.626 -15.323   6.705  1.00  0.00    -0.246 N 
HETATM    3  O   UNL     1      41.532 -16.217   7.221  1.00  0.00    -0.269 OA
HETATM    4  H   UNL     1      44.603 -15.591   6.617  1.00  0.00     0.192 HD
ENDROOT
BRANCH   2   5
HETATM    5  N   UNL     1      43.430 -14.046   7.179  1.00  0.00    -0.184 NA
HETATM    6  C   UNL     1      43.535 -13.076   6.326  1.00  0.00     0.153 C 
BRANCH   6   7
HETATM    7  C   UNL     1      43.261 -11.707   6.731  1.00  0.00     0.018 A 
HETATM    8  C   UNL     1      44.109 -10.773   7.416  1.00  0.00     0.004 A 
HETATM    9  C   UNL     1      43.377  -9.600   7.600  1.00  0.00     0.043 A 
HETATM   10  C   UNL     1      45.429 -10.813   7.916  1.00  0.00     0.014 A 
HETATM   11  C   UNL     1      43.891  -8.473   8.254  1.00  0.00     0.030 A 
HETATM   12  N   UNL     1      42.138  -9.804   7.043  1.00  0.00    -0.358 N 
HETATM   13  C   UNL     1      45.199  -8.544   8.738  1.00  0.00     0.002 A 
HETATM   14  C   UNL     1      45.961  -9.696   8.572  1.00  0.00     0.001 A 
HETATM   15  H   UNL     1      41.400  -9.114   7.036  1.00  0.00     0.166 HD
HETATM   16  C   UNL     1      42.044 -11.068   6.519  1.00  0.00     0.018 A 
HETATM   17  C   UNL     1      40.797 -11.542   5.864  1.00  0.00     0.069 C 
ENDBRANCH   6   7
ENDBRANCH   2   5
BRANCH   1  18
HETATM   18  C   UNL     1      43.287 -17.732   6.572  1.00  0.00     0.280 C 
BRANCH  18  19
HETATM   19  O   UNL     1      44.186 -17.687   5.468  1.00  0.00    -0.342 OA
BRANCH  19  20
HETATM   20  C   UNL     1      43.938 -18.603   4.476  1.00  0.00     0.075 A 
HETATM   21  C   UNL     1      43.500 -18.096   3.241  1.00  0.00    -0.029 A 
HETATM   22  C   UNL     1      43.237 -16.630   3.038  1.00  0.00     0.051 C 
HETATM   23  C   UNL     1      43.224 -18.990   2.193  1.00  0.00     0.009 A 
HETATM   24  C   UNL     1      43.419 -20.361   2.359  1.00  0.00     0.001 A 
HETATM   25  C   UNL     1      43.885 -20.854   3.573  1.00  0.00     0.003 A 
HETATM   26  C   UNL     1      44.147 -19.979   4.629  1.00  0.00     0.037 A 
ENDBRANCH  19  20
ENDBRANCH  18  19
ENDBRANCH   1  18
TORSDOF 5
ENDMDL
MODEL 3
REMARK VINA RESULT:      -8.4      3.988      7.662
REMARK  5 active torsions:
REMARK  status: ('A' for Active; 'I' for Inactive)
REMARK    1  A    between atoms: C_3  and  O_4 
REMARK    2  A    between atoms: O_4  and  C_5 
REMARK    3  A    between atoms: C_5  and  C_6 
REMARK       I    between atoms: C_6  and  N_7 
REMARK    4  A    between atoms: N_7  and  N_8 
REMARK    5  A    between atoms: C_9  and  C_10 
ROOT
HETATM    1  C   UNL     1      41.997 -12.704   5.441  1.00  0.00     0.261 C 
HETATM    2  N   UNL     1      42.279 -14.012   5.829  1.00  0.00    -0.246 N 
HETATM    3  O   UNL     1      41.502 -12.368   4.366  1.00  0.00    -0.269 OA
HETATM    4  H   UNL     1      42.898 -14.136   6.627  1.00  0.00     0.192 HD
ENDROOT
BRANCH   2   5
HETATM    5  N   UNL     1      42.240 -15.089   4.973  1.00  0.00    -0.184 NA
HETATM    6  C   UNL     1      43.368 -15.656   4.683  1.00  0.00     0.153 C 
BRANCH   6   7
HETATM    7  C   UNL     1      43.401 -16.848   3.852  1.00  0.00     0.018 A 
HETATM    8  C   UNL     1      43.601 -18.219   4.232  1.00  0.00     0.004 A 
HETATM    9  C   UNL     1      43.576 -18.984   3.065  1.00  0.00     0.043 A 
HETATM   10  C   UNL     1      43.818 -18.887   5.456  1.00  0.00     0.014 A 
HETATM   11  C   UNL     1      43.757 -20.373   3.060  1.00  0.00     0.030 A 
HETATM   12  N   UNL     1      43.360 -18.121   2.019  1.00  0.00    -0.358 N 
HETATM   13  C   UNL     1      43.971 -21.005   4.286  1.00  0.00     0.002 A 
HETATM   14  C   UNL     1      44.001 -20.275   5.470  1.00  0.00     0.001 A 
HETATM   15  H   UNL     1      43.298 -18.408   1.052  1.00  0.00     0.166 HD
HETATM   16  C   UNL     1      43.258 -16.829   2.469  1.00  0.00     0.018 A 
HETATM   17  C   UNL     1      43.031 -15.700   1.529  1.00  0.00     0.069 C 
ENDBRANCH   6   7
ENDBRANCH   2   5
BRANCH   1  18
HETATM   18  C   UNL     1      42.463 -11.666   6.460  1.00  0.00     0.280 C 
BRANCH  18  19
HETATM   19  O   UNL     1      43.601 -12.138   7.175  1.00  0.00    -0.342 OA
BRANCH  19  20
HETATM   20  C   UNL     1      44.302 -11.174   7.855  1.00  0.00     0.075 A 
HETATM   21  C   UNL     1      45.502 -10.733   7.272  1.00  0.00    -0.029 A 
HETATM   22  C   UNL     1      46.036 -11.345   6.006  1.00  0.00     0.051 C 
HETATM   23  C   UNL     1      46.263  -9.753   7.930  1.00  0.00     0.009 A 
HETATM   24  C   UNL     1      45.819  -9.192   9.126  1.00  0.00     0.001 A 
HETATM   25  C   UNL     1      44.613  -9.608   9.682  1.00  0.00     0.003 A 
HETATM   26  C   UNL     1      43.854 -10.594   9.048  1.00  0.00     0.037 A 
ENDBRANCH  19  20
ENDBRANCH  18  19
ENDBRANCH   1  18
TORSDOF 5
ENDMDL
MODEL 4
REMARK VINA RESULT:      -8.3      4.196      8.227
REMARK  5 active torsions:
REMARK  status: ('A' for Active; 'I' for Inactive)
REMARK    1  A    between atoms: C_3  and  O_4 
REMARK    2  A    between atoms: O_4  and  C_5 
REMARK    3  A    between atoms: C_5  and  C_6 
REMARK       I    between atoms: C_6  and  N_7 
REMARK    4  A    between atoms: N_7  and  N_8 
REMARK    5  A    between atoms: C_9  and  C_10 
ROOT
HETATM    1  C   UNL     1      41.736 -15.398   3.658  1.00  0.00     0.261 C 
HETATM    2  N   UNL     1      42.811 -14.558   3.946  1.00  0.00    -0.246 N 
HETATM    3  O   UNL     1      40.646 -15.384   4.228  1.00  0.00    -0.269 OA
HETATM    4  H   UNL     1      43.719 -14.825   3.576  1.00  0.00     0.192 HD
ENDROOT
BRANCH   2   5
HETATM    5  N   UNL     1      42.869 -13.743   5.054  1.00  0.00    -0.184 NA
HETATM    6  C   UNL     1      42.987 -12.470   4.845  1.00  0.00     0.153 C 
BRANCH   6   7
HETATM    7  C   UNL     1      42.972 -11.537   5.959  1.00  0.00     0.018 A 
HETATM    8  C   UNL     1      44.067 -11.027   6.735  1.00  0.00     0.004 A 
HETATM    9  C   UNL     1      43.533 -10.183   7.710  1.00  0.00     0.043 A 
HETATM   10  C   UNL     1      45.467 -11.211   6.716  1.00  0.00     0.014 A 
HETATM   11  C   UNL     1      44.319  -9.521   8.661  1.00  0.00     0.030 A 
HETATM   12  N   UNL     1      42.171 -10.171   7.532  1.00  0.00    -0.358 N 
HETATM   13  C   UNL     1      45.700  -9.724   8.617  1.00  0.00     0.002 A 
HETATM   14  C   UNL     1      46.269 -10.556   7.659  1.00  0.00     0.001 A 
HETATM   15  H   UNL     1      41.530  -9.640   8.106  1.00  0.00     0.166 HD
HETATM   16  C   UNL     1      41.810 -10.983   6.487  1.00  0.00     0.018 A 
HETATM   17  C   UNL     1      40.387 -11.150   6.095  1.00  0.00     0.069 C 
ENDBRANCH   6   7
ENDBRANCH   2   5
BRANCH   1  18
HETATM   18  C   UNL     1      42.066 -16.448   2.602  1.00  0.00     0.280 C 
BRANCH  18  19
HETATM   19  O   UNL     1      43.417 -16.882   2.726  1.00  0.00    -0.342 OA
BRANCH  19  20
HETATM   20  C   UNL     1      43.578 -18.212   3.024  1.00  0.00     0.075 A 
HETATM   21  C   UNL     1      44.018 -18.522   4.322  1.00  0.00    -0.029 A 
HETATM   22  C   UNL     1      44.375 -17.448   5.312  1.00  0.00     0.051 C 
HETATM   23  C   UNL     1      44.205 -19.868   4.677  1.00  0.00     0.009 A 
HETATM   24  C   UNL     1      43.922 -20.888   3.771  1.00  0.00     0.001 A 
HETATM   25  C   UNL     1      43.455 -20.577   2.498  1.00  0.00     0.003 A 
HETATM   26  C   UNL     1      43.280 -19.243   2.125  1.00  0.00     0.037 A 
ENDBRANCH  19  20
ENDBRANCH  18  19
ENDBRANCH   1  18
TORSDOF 5
ENDMDL
MODEL 5
REMARK VINA RESULT:      -8.2      2.055      8.083
REMARK  5 active torsions:
REMARK  status: ('A' for Active; 'I' for Inactive)
REMARK    1  A    between atoms: C_3  and  O_4 
REMARK    2  A    between atoms: O_4  and  C_5 
REMARK    3  A    between atoms: C_5  and  C_6 
REMARK       I    between atoms: C_6  and  N_7 
REMARK    4  A    between atoms: N_7  and  N_8 
REMARK    5  A    between atoms: C_9  and  C_10 
ROOT
HETATM    1  C   UNL     1      41.880 -15.328   4.756  1.00  0.00     0.261 C 
HETATM    2  N   UNL     1      40.874 -15.489   3.806  1.00  0.00    -0.246 N 
HETATM    3  O   UNL     1      42.434 -14.267   5.037  1.00  0.00    -0.269 OA
HETATM    4  H   UNL     1      40.671 -16.439   3.502  1.00  0.00     0.192 HD
ENDROOT
BRANCH   2   5
HETATM    5  N   UNL     1      40.514 -14.517   2.900  1.00  0.00    -0.184 NA
HETATM    6  C   UNL     1      41.152 -14.494   1.773  1.00  0.00     0.153 C 
BRANCH   6   7
HETATM    7  C   UNL     1      40.776 -13.551   0.733  1.00  0.00     0.018 A 
HETATM    8  C   UNL     1      40.074 -13.784  -0.498  1.00  0.00     0.004 A 
HETATM    9  C   UNL     1      39.983 -12.563  -1.166  1.00  0.00     0.043 A 
HETATM   10  C   UNL     1      39.516 -14.922  -1.121  1.00  0.00     0.014 A 
HETATM   11  C   UNL     1      39.370 -12.420  -2.417  1.00  0.00     0.030 A 
HETATM   12  N   UNL     1      40.595 -11.622  -0.374  1.00  0.00    -0.358 N 
HETATM   13  C   UNL     1      38.829 -13.563  -3.009  1.00  0.00     0.002 A 
HETATM   14  C   UNL     1      38.898 -14.798  -2.372  1.00  0.00     0.001 A 
HETATM   15  H   UNL     1      40.678 -10.644  -0.617  1.00  0.00     0.166 HD
HETATM   16  C   UNL     1      41.085 -12.196   0.772  1.00  0.00     0.018 A 
HETATM   17  C   UNL     1      41.802 -11.389   1.794  1.00  0.00     0.069 C 
ENDBRANCH   6   7
ENDBRANCH   2   5
BRANCH   1  18
HETATM   18  C   UNL     1      42.330 -16.648   5.378  1.00  0.00     0.280 C 
BRANCH  18  19
HETATM   19  O   UNL     1      43.605 -17.035   4.873  1.00  0.00    -0.342 OA
BRANCH  19  20
HETATM   20  C   UNL     1      43.703 -18.346   4.481  1.00  0.00     0.075 A 
HETATM   21  C   UNL     1      43.613 -18.604   3.103  1.00  0.00    -0.029 A 
HETATM   22  C   UNL     1      43.341 -17.507   2.111  1.00  0.00     0.051 C 
HETATM   23  C   UNL     1      43.700 -19.930   2.648  1.00  0.00     0.009 A 
HETATM   24  C   UNL     1      43.912 -20.976   3.543  1.00  0.00     0.001 A 
HETATM   25  C   UNL     1      44.034 -20.712   4.903  1.00  0.00     0.003 A 
HETATM   26  C   UNL     1      43.932 -19.400   5.373  1.00  0.00     0.037 A 
ENDBRANCH  19  20
ENDBRANCH  18  19
ENDBRANCH   1  18
TORSDOF 5
ENDMDL
MODEL 6
REMARK VINA RESULT:      -8.0      5.110      8.688
REMARK  5 active torsions:
REMARK  status: ('A' for Active; 'I' for Inactive)
REMARK    1  A    between atoms: C_3  and  O_4 
REMARK    2  A    between atoms: O_4  and  C_5 
REMARK    3  A    between atoms: C_5  and  C_6 
REMARK       I    between atoms: C_6  and  N_7 
REMARK    4  A    between atoms: N_7  and  N_8 
REMARK    5  A    between atoms: C_9  and  C_10 
ROOT
HETATM    1  C   UNL     1      44.849 -11.605   6.521  1.00  0.00     0.261 C 
HETATM    2  N   UNL     1      43.949 -12.669   6.564  1.00  0.00    -0.246 N 
HETATM    3  O   UNL     1      45.361 -11.143   5.502  1.00  0.00    -0.269 OA
HETATM    4  H   UNL     1      43.788 -13.103   7.469  1.00  0.00     0.192 HD
ENDROOT
BRANCH   2   5
HETATM    5  N   UNL     1      43.677 -13.485   5.489  1.00  0.00    -0.184 NA
HETATM    6  C   UNL     1      42.910 -14.506   5.702  1.00  0.00     0.153 C 
BRANCH   6   7
HETATM    7  C   UNL     1      42.510 -15.368   4.602  1.00  0.00     0.018 A 
HETATM    8  C   UNL     1      43.066 -16.622   4.178  1.00  0.00     0.004 A 
HETATM    9  C   UNL     1      42.349 -17.039   3.056  1.00  0.00     0.043 A 
HETATM   10  C   UNL     1      44.123 -17.442   4.629  1.00  0.00     0.014 A 
HETATM   11  C   UNL     1      42.633 -18.224   2.365  1.00  0.00     0.030 A 
HETATM   12  N   UNL     1      41.390 -16.087   2.810  1.00  0.00    -0.358 N 
HETATM   13  C   UNL     1      43.686 -19.013   2.835  1.00  0.00     0.002 A 
HETATM   14  C   UNL     1      44.422 -18.630   3.951  1.00  0.00     0.001 A 
HETATM   15  H   UNL     1      40.727 -16.135   2.049  1.00  0.00     0.166 HD
HETATM   16  C   UNL     1      41.473 -15.068   3.725  1.00  0.00     0.018 A 
HETATM   17  C   UNL     1      40.548 -13.906   3.672  1.00  0.00     0.069 C 
ENDBRANCH   6   7
ENDBRANCH   2   5
BRANCH   1  18
HETATM   18  C   UNL     1      45.243 -11.101   7.907  1.00  0.00     0.280 C 
BRANCH  18  19
HETATM   19  O   UNL     1      44.110 -11.059   8.770  1.00  0.00    -0.342 OA
BRANCH  19  20
HETATM   20  C   UNL     1      43.775  -9.811   9.232  1.00  0.00     0.075 A 
HETATM   21  C   UNL     1      43.649  -9.664  10.624  1.00  0.00    -0.029 A 
HETATM   22  C   UNL     1      43.793 -10.834  11.557  1.00  0.00     0.051 C 
HETATM   23  C   UNL     1      43.302  -8.409  11.150  1.00  0.00     0.009 A 
HETATM   24  C   UNL     1      43.121  -7.311  10.311  1.00  0.00     0.001 A 
HETATM   25  C   UNL     1      43.280  -7.455   8.936  1.00  0.00     0.003 A 
HETATM   26  C   UNL     1      43.609  -8.700   8.397  1.00  0.00     0.037 A 
ENDBRANCH  19  20
ENDBRANCH  18  19
ENDBRANCH   1  18
TORSDOF 5
ENDMDL
MODEL 7
REMARK VINA RESULT:      -8.0      2.258      8.891
REMARK  5 active torsions:
REMARK  status: ('A' for Active; 'I' for Inactive)
REMARK    1  A    between atoms: C_3  and  O_4 
REMARK    2  A    between atoms: O_4  and  C_5 
REMARK    3  A    between atoms: C_5  and  C_6 
REMARK       I    between atoms: C_6  and  N_7 
REMARK    4  A    between atoms: N_7  and  N_8 
REMARK    5  A    between atoms: C_9  and  C_10 
ROOT
HETATM    1  C   UNL     1      40.936 -14.973   2.927  1.00  0.00     0.261 C 
HETATM    2  N   UNL     1      40.170 -15.215   1.788  1.00  0.00    -0.246 N 
HETATM    3  O   UNL     1      41.286 -13.866   3.331  1.00  0.00    -0.269 OA
HETATM    4  H   UNL     1      40.153 -16.169   1.435  1.00  0.00     0.192 HD
ENDROOT
BRANCH   2   5
HETATM    5  N   UNL     1      39.883 -14.258   0.842  1.00  0.00    -0.184 NA
HETATM    6  C   UNL     1      40.293 -14.479  -0.367  1.00  0.00     0.153 C 
BRANCH   6   7
HETATM    7  C   UNL     1      39.959 -13.556  -1.438  1.00  0.00     0.018 A 
HETATM    8  C   UNL     1      40.314 -12.174  -1.596  1.00  0.00     0.004 A 
HETATM    9  C   UNL     1      39.726 -11.722  -2.777  1.00  0.00     0.043 A 
HETATM   10  C   UNL     1      41.070 -11.252  -0.839  1.00  0.00     0.014 A 
HETATM   11  C   UNL     1      39.851 -10.406  -3.238  1.00  0.00     0.030 A 
HETATM   12  N   UNL     1      39.047 -12.784  -3.324  1.00  0.00    -0.358 N 
HETATM   13  C   UNL     1      40.603  -9.516  -2.467  1.00  0.00     0.002 A 
HETATM   14  C   UNL     1      41.206  -9.931  -1.284  1.00  0.00     0.001 A 
HETATM   15  H   UNL     1      38.524 -12.737  -4.187  1.00  0.00     0.166 HD
HETATM   16  C   UNL     1      39.169 -13.897  -2.531  1.00  0.00     0.018 A 
HETATM   17  C   UNL     1      38.517 -15.181  -2.899  1.00  0.00     0.069 C 
ENDBRANCH   6   7
ENDBRANCH   2   5
BRANCH   1  18
HETATM   18  C   UNL     1      41.411 -16.254   3.609  1.00  0.00     0.280 C 
BRANCH  18  19
HETATM   19  O   UNL     1      42.792 -16.484   3.344  1.00  0.00    -0.342 OA
BRANCH  19  20
HETATM   20  C   UNL     1      43.163 -17.804   3.290  1.00  0.00     0.075 A 
HETATM   21  C   UNL     1      43.796 -18.331   4.429  1.00  0.00    -0.029 A 
HETATM   22  C   UNL     1      44.126 -17.471   5.618  1.00  0.00     0.051 C 
HETATM   23  C   UNL     1      44.203 -19.675   4.425  1.00  0.00     0.009 A 
HETATM   24  C   UNL     1      43.950 -20.491   3.324  1.00  0.00     0.001 A 
HETATM   25  C   UNL     1      43.293 -19.973   2.213  1.00  0.00     0.003 A 
HETATM   26  C   UNL     1      42.898 -18.634   2.195  1.00  0.00     0.037 A 
ENDBRANCH  19  20
ENDBRANCH  18  19
ENDBRANCH   1  18
TORSDOF 5
ENDMDL
MODEL 8
REMARK VINA RESULT:      -7.7      5.646      9.355
REMARK  5 active torsions:
REMARK  status: ('A' for Active; 'I' for Inactive)
REMARK    1  A    between atoms: C_3  and  O_4 
REMARK    2  A    between atoms: O_4  and  C_5 
REMARK    3  A    between atoms: C_5  and  C_6 
REMARK       I    between atoms: C_6  and  N_7 
REMARK    4  A    between atoms: N_7  and  N_8 
REMARK    5  A    between atoms: C_9  and  C_10 
ROOT
HETATM    1  C   UNL     1      45.115 -11.091   7.385  1.00  0.00     0.261 C 
HETATM    2  N   UNL     1      44.236 -12.171   7.445  1.00  0.00    -0.246 N 
HETATM    3  O   UNL     1      45.941 -10.891   6.496  1.00  0.00    -0.269 OA
HETATM    4  H   UNL     1      43.779 -12.347   8.336  1.00  0.00     0.192 HD
ENDROOT
BRANCH   2   5
HETATM    5  N   UNL     1      44.323 -13.274   6.626  1.00  0.00    -0.184 NA
HETATM    6  C   UNL     1      43.260 -14.005   6.504  1.00  0.00     0.153 C 
BRANCH   6   7
HETATM    7  C   UNL     1      43.246 -15.138   5.595  1.00  0.00     0.018 A 
HETATM    8  C   UNL     1      43.139 -15.158   4.163  1.00  0.00     0.004 A 
HETATM    9  C   UNL     1      43.144 -16.494   3.761  1.00  0.00     0.043 A 
HETATM   10  C   UNL     1      43.023 -14.167   3.164  1.00  0.00     0.014 A 
HETATM   11  C   UNL     1      43.037 -16.888   2.421  1.00  0.00     0.030 A 
HETATM   12  N   UNL     1      43.258 -17.258   4.896  1.00  0.00    -0.358 N 
HETATM   13  C   UNL     1      42.922 -15.885   1.456  1.00  0.00     0.002 A 
HETATM   14  C   UNL     1      42.916 -14.542   1.819  1.00  0.00     0.001 A 
HETATM   15  H   UNL     1      43.284 -18.269   4.898  1.00  0.00     0.166 HD
HETATM   16  C   UNL     1      43.315 -16.463   6.013  1.00  0.00     0.018 A 
HETATM   17  C   UNL     1      43.432 -17.051   7.373  1.00  0.00     0.069 C 
ENDBRANCH   6   7
ENDBRANCH   2   5
BRANCH   1  18
HETATM   18  C   UNL     1      45.037 -10.189   8.614  1.00  0.00     0.280 C 
BRANCH  18  19
HETATM   19  O   UNL     1      43.695  -9.769   8.847  1.00  0.00    -0.342 OA
BRANCH  19  20
HETATM   20  C   UNL     1      43.405  -9.438  10.147  1.00  0.00     0.075 A 
HETATM   21  C   UNL     1      43.187  -8.078  10.420  1.00  0.00    -0.029 A 
HETATM   22  C   UNL     1      43.343  -7.024   9.359  1.00  0.00     0.051 C 
HETATM   23  C   UNL     1      42.893  -7.683  11.736  1.00  0.00     0.009 A 
HETATM   24  C   UNL     1      42.780  -8.628  12.753  1.00  0.00     0.001 A 
HETATM   25  C   UNL     1      42.964  -9.978  12.470  1.00  0.00     0.003 A 
HETATM   26  C   UNL     1      43.273 -10.384  11.170  1.00  0.00     0.037 A 
ENDBRANCH  19  20
ENDBRANCH  18  19
ENDBRANCH   1  18
TORSDOF 5
ENDMDL
MODEL 9
REMARK VINA RESULT:      -7.5      3.969      8.280
REMARK  5 active torsions:
REMARK  status: ('A' for Active; 'I' for Inactive)
REMARK    1  A    between atoms: C_3  and  O_4 
REMARK    2  A    between atoms: O_4  and  C_5 
REMARK    3  A    between atoms: C_5  and  C_6 
REMARK       I    between atoms: C_6  and  N_7 
REMARK    4  A    between atoms: N_7  and  N_8 
REMARK    5  A    between atoms: C_9  and  C_10 
ROOT
HETATM    1  C   UNL     1      41.453 -15.545   3.036  1.00  0.00     0.261 C 
HETATM    2  N   UNL     1      42.404 -14.838   3.771  1.00  0.00    -0.246 N 
HETATM    3  O   UNL     1      40.240 -15.340   3.053  1.00  0.00    -0.269 OA
HETATM    4  H   UNL     1      43.328 -15.253   3.852  1.00  0.00     0.192 HD
ENDROOT
BRANCH   2   5
HETATM    5  N   UNL     1      42.090 -13.955   4.779  1.00  0.00    -0.184 NA
HETATM    6  C   UNL     1      42.725 -12.827   4.796  1.00  0.00     0.153 C 
BRANCH   6   7
HETATM    7  C   UNL     1      42.393 -11.809   5.779  1.00  0.00     0.018 A 
HETATM    8  C   UNL     1      41.200 -11.021   5.907  1.00  0.00     0.004 A 
HETATM    9  C   UNL     1      41.378 -10.164   6.994  1.00  0.00     0.043 A 
HETATM   10  C   UNL     1      39.984 -10.938   5.193  1.00  0.00     0.014 A 
HETATM   11  C   UNL     1      40.412  -9.235   7.400  1.00  0.00     0.030 A 
HETATM   12  N   UNL     1      42.622 -10.424   7.514  1.00  0.00    -0.358 N 
HETATM   13  C   UNL     1      39.221  -9.176   6.673  1.00  0.00     0.002 A 
HETATM   14  C   UNL     1      39.007 -10.015   5.585  1.00  0.00     0.001 A 
HETATM   15  H   UNL     1      43.014  -9.943   8.312  1.00  0.00     0.166 HD
HETATM   16  C   UNL     1      43.254 -11.407   6.795  1.00  0.00     0.018 A 
HETATM   17  C   UNL     1      44.621 -11.867   7.151  1.00  0.00     0.069 C 
ENDBRANCH   6   7
ENDBRANCH   2   5
BRANCH   1  18
HETATM   18  C   UNL     1      42.051 -16.709   2.250  1.00  0.00     0.280 C 
BRANCH  18  19
HETATM   19  O   UNL     1      43.369 -17.001   2.707  1.00  0.00    -0.342 OA
BRANCH  19  20
HETATM   20  C   UNL     1      43.579 -18.305   3.082  1.00  0.00     0.075 A 
HETATM   21  C   UNL     1      43.980 -18.525   4.411  1.00  0.00    -0.029 A 
HETATM   22  C   UNL     1      44.244 -17.385   5.355  1.00  0.00     0.051 C 
HETATM   23  C   UNL     1      44.216 -19.839   4.845  1.00  0.00     0.009 A 
HETATM   24  C   UNL     1      44.019 -20.919   3.985  1.00  0.00     0.001 A 
HETATM   25  C   UNL     1      43.590 -20.697   2.681  1.00  0.00     0.003 A 
HETATM   26  C   UNL     1      43.368 -19.394   2.229  1.00  0.00     0.037 A 
ENDBRANCH  19  20
ENDBRANCH  18  19
ENDBRANCH   1  18
TORSDOF 5
ENDMDL
MODEL 10
REMARK VINA RESULT:      -7.3      5.525      9.162
REMARK  5 active torsions:
REMARK  status: ('A' for Active; 'I' for Inactive)
REMARK    1  A    between atoms: C_3  and  O_4 
REMARK    2  A    between atoms: O_4  and  C_5 
REMARK    3  A    between atoms: C_5  and  C_6 
REMARK       I    between atoms: C_6  and  N_7 
REMARK    4  A    between atoms: N_7  and  N_8 
REMARK    5  A    between atoms: C_9  and  C_10 
ROOT
HETATM    1  C   UNL     1      43.454 -12.487   4.169  1.00  0.00     0.261 C 
HETATM    2  N   UNL     1      43.453 -12.554   5.561  1.00  0.00    -0.246 N 
HETATM    3  O   UNL     1      43.764 -11.502   3.501  1.00  0.00    -0.269 OA
HETATM    4  H   UNL     1      42.955 -13.331   5.987  1.00  0.00     0.192 HD
ENDROOT
BRANCH   2   5
HETATM    5  N   UNL     1      43.593 -11.456   6.380  1.00  0.00    -0.184 NA
HETATM    6  C   UNL     1      42.527 -10.764   6.628  1.00  0.00     0.153 C 
BRANCH   6   7
HETATM    7  C   UNL     1      42.577  -9.640   7.549  1.00  0.00     0.018 A 
HETATM    8  C   UNL     1      43.103  -9.577   8.883  1.00  0.00     0.004 A 
HETATM    9  C   UNL     1      42.888  -8.282   9.357  1.00  0.00     0.043 A 
HETATM   10  C   UNL     1      43.729 -10.502   9.747  1.00  0.00     0.014 A 
HETATM   11  C   UNL     1      43.263  -7.867  10.641  1.00  0.00     0.030 A 
HETATM   12  N   UNL     1      42.267  -7.581   8.353  1.00  0.00    -0.358 N 
HETATM   13  C   UNL     1      43.879  -8.805  11.473  1.00  0.00     0.002 A 
HETATM   14  C   UNL     1      44.111 -10.105  11.035  1.00  0.00     0.001 A 
HETATM   15  H   UNL     1      41.991  -6.611   8.426  1.00  0.00     0.166 HD
HETATM   16  C   UNL     1      42.064  -8.380   7.256  1.00  0.00     0.018 A 
HETATM   17  C   UNL     1      41.400  -7.859   6.033  1.00  0.00     0.069 C 
ENDBRANCH   6   7
ENDBRANCH   2   5
BRANCH   1  18
HETATM   18  C   UNL     1      42.921 -13.757   3.511  1.00  0.00     0.280 C 
BRANCH  18  19
HETATM   19  O   UNL     1      42.813 -14.811   4.463  1.00  0.00    -0.342 OA
BRANCH  19  20
HETATM   20  C   UNL     1      43.120 -16.061   3.986  1.00  0.00     0.075 A 
HETATM   21  C   UNL     1      43.889 -16.887   4.823  1.00  0.00    -0.029 A 
HETATM   22  C   UNL     1      44.420 -16.398   6.142  1.00  0.00     0.051 C 
HETATM   23  C   UNL     1      44.238 -18.173   4.381  1.00  0.00     0.009 A 
HETATM   24  C   UNL     1      43.797 -18.645   3.146  1.00  0.00     0.001 A 
HETATM   25  C   UNL     1      43.008 -17.835   2.336  1.00  0.00     0.003 A 
HETATM   26  C   UNL     1      42.667 -16.547   2.754  1.00  0.00     0.037 A 
ENDBRANCH  19  20
ENDBRANCH  18  19
ENDBRANCH   1  18
TORSDOF 5
ENDMDL
