MODEL 1
REMARK VINA RESULT:      -8.2      0.000      0.000
REMARK  6 active torsions:
REMARK  status: ('A' for Active; 'I' for Inactive)
REMARK    1  A    between atoms: C_4  and  C_5 
REMARK    2  A    between atoms: C_7  and  N_8 
REMARK       I    between atoms: N_8  and  C_9 
REMARK    3  A    between atoms: C_9  and  C_10 
REMARK    4  A    between atoms: C_10  and  N_11 
REMARK    5  A    between atoms: N_11  and  C_14 
REMARK    6  A    between atoms: C_20  and  C_21 
REMARK       I    between atoms: C_21  and  N_22 
ROOT
HETATM    1  C   UNL     1      43.183 -16.747   3.043  1.00  0.00     0.018 A 
HETATM    2  S   UNL     1      42.691 -16.219   1.493  1.00  0.00    -0.071 SA
HETATM    3  C   UNL     1      42.582 -14.603   1.983  1.00  0.00     0.093 A 
HETATM    4  C   UNL     1      42.916 -14.420   3.319  1.00  0.00     0.067 A 
HETATM    5  C   UNL     1      43.272 -15.678   3.918  1.00  0.00     0.039 A 
ENDROOT
BRANCH   3   6
HETATM    6  N   UNL     1      42.198 -13.594   1.108  1.00  0.00    -0.319 N 
HETATM    7  C   UNL     1      40.927 -13.314   0.667  1.00  0.00     0.248 C 
HETATM    8  O   UNL     1      39.870 -13.880   0.942  1.00  0.00    -0.271 OA
HETATM    9  H   UNL     1      42.982 -13.007   0.811  1.00  0.00     0.169 HD
BRANCH   7  10
HETATM   10  C   UNL     1      40.855 -12.115  -0.278  1.00  0.00     0.335 C 
BRANCH  10  11
HETATM   11  N   UNL     1      41.163 -12.576  -1.687  1.00  0.00    -0.063 N 
HETATM   12  H   UNL     1      41.791 -11.853  -2.082  1.00  0.00     0.278 HD
HETATM   13  H   UNL     1      41.780 -13.400  -1.628  1.00  0.00     0.278 HD
BRANCH  11  14
HETATM   14  C   UNL     1      40.012 -12.814  -2.579  1.00  0.00     0.186 C 
HETATM   15  C   UNL     1      39.726 -14.304  -2.686  1.00  0.00     0.033 C 
HETATM   16  C   UNL     1      38.303 -14.333  -3.226  1.00  0.00     0.002 C 
HETATM   17  C   UNL     1      37.615 -13.104  -2.630  1.00  0.00     0.002 C 
HETATM   18  C   UNL     1      38.720 -12.252  -2.004  1.00  0.00     0.033 C 
ENDBRANCH  11  14
ENDBRANCH  10  11
ENDBRANCH   7  10
ENDBRANCH   3   6
BRANCH   4  19
HETATM   19  C   UNL     1      42.878 -13.099   3.944  1.00  0.00     0.252 C 
HETATM   20  N   UNL     1      42.187 -12.983   5.110  1.00  0.00    -0.366 N 
HETATM   21  H   UNL     1      41.681 -13.738   5.549  1.00  0.00     0.159 HD
HETATM   22  H   UNL     1      42.138 -12.070   5.545  1.00  0.00     0.159 HD
HETATM   23  O   UNL     1      43.438 -12.125   3.440  1.00  0.00    -0.268 OA
ENDBRANCH   4  19
BRANCH   1  24
HETATM   24  C   UNL     1      43.477 -18.163   3.292  1.00  0.00    -0.019 A 
HETATM   25  C   UNL     1      43.953 -18.571   4.548  1.00  0.00     0.013 A 
HETATM   26  C   UNL     1      44.225 -19.917   4.806  1.00  0.00     0.001 A 
HETATM   27  C   UNL     1      44.020 -20.873   3.814  1.00  0.00     0.000 A 
HETATM   28  C   UNL     1      43.544 -20.486   2.565  1.00  0.00     0.001 A 
HETATM   29  C   UNL     1      43.273 -19.139   2.305  1.00  0.00     0.013 A 
ENDBRANCH   1  24
TORSDOF 6
ENDMDL
MODEL 2
REMARK VINA RESULT:      -8.2      3.005      6.622
REMARK  6 active torsions:
REMARK  status: ('A' for Active; 'I' for Inactive)
REMARK    1  A    between atoms: C_4  and  C_5 
REMARK    2  A    between atoms: C_7  and  N_8 
REMARK       I    between atoms: N_8  and  C_9 
REMARK    3  A    between atoms: C_9  and  C_10 
REMARK    4  A    between atoms: C_10  and  N_11 
REMARK    5  A    between atoms: N_11  and  C_14 
REMARK    6  A    between atoms: C_20  and  C_21 
REMARK       I    between atoms: C_21  and  N_22 
ROOT
HETATM    1  C   UNL     1      43.173 -16.750   3.405  1.00  0.00     0.018 A 
HETATM    2  S   UNL     1      43.244 -15.857   4.862  1.00  0.00    -0.071 SA
HETATM    3  C   UNL     1      42.824 -14.409   4.094  1.00  0.00     0.093 A 
HETATM    4  C   UNL     1      42.615 -14.561   2.730  1.00  0.00     0.067 A 
HETATM    5  C   UNL     1      42.815 -15.933   2.348  1.00  0.00     0.039 A 
ENDROOT
BRANCH   3   6
HETATM    6  N   UNL     1      42.705 -13.213   4.794  1.00  0.00    -0.319 N 
HETATM    7  C   UNL     1      41.635 -12.793   5.548  1.00  0.00     0.248 C 
HETATM    8  O   UNL     1      40.570 -13.368   5.767  1.00  0.00    -0.271 OA
HETATM    9  H   UNL     1      43.545 -12.631   4.730  1.00  0.00     0.169 HD
BRANCH   7  10
HETATM   10  C   UNL     1      41.845 -11.429   6.204  1.00  0.00     0.335 C 
BRANCH  10  11
HETATM   11  N   UNL     1      42.843 -11.571   7.333  1.00  0.00    -0.063 N 
HETATM   12  H   UNL     1      42.299 -11.420   8.202  1.00  0.00     0.278 HD
HETATM   13  H   UNL     1      43.107 -12.565   7.405  1.00  0.00     0.278 HD
BRANCH  11  14
HETATM   14  C   UNL     1      44.025 -10.689   7.294  1.00  0.00     0.186 C 
HETATM   15  C   UNL     1      44.322 -10.141   8.681  1.00  0.00     0.033 C 
HETATM   16  C   UNL     1      45.763  -9.667   8.552  1.00  0.00     0.002 C 
HETATM   17  C   UNL     1      46.424 -10.634   7.568  1.00  0.00     0.002 C 
HETATM   18  C   UNL     1      45.293 -11.453   6.942  1.00  0.00     0.033 C 
ENDBRANCH  11  14
ENDBRANCH  10  11
ENDBRANCH   7  10
ENDBRANCH   3   6
BRANCH   4  19
HETATM   19  C   UNL     1      42.252 -13.429   1.879  1.00  0.00     0.252 C 
HETATM   20  N   UNL     1      41.594 -13.706   0.721  1.00  0.00    -0.366 N 
HETATM   21  H   UNL     1      41.369 -14.638   0.405  1.00  0.00     0.159 HD
HETATM   22  H   UNL     1      41.351 -12.933   0.115  1.00  0.00     0.159 HD
HETATM   23  O   UNL     1      42.534 -12.270   2.186  1.00  0.00    -0.268 OA
ENDBRANCH   4  19
BRANCH   1  24
HETATM   24  C   UNL     1      43.443 -18.193   3.399  1.00  0.00    -0.019 A 
HETATM   25  C   UNL     1      43.961 -18.816   4.545  1.00  0.00     0.013 A 
HETATM   26  C   UNL     1      44.211 -20.190   4.560  1.00  0.00     0.001 A 
HETATM   27  C   UNL     1      43.942 -20.961   3.432  1.00  0.00     0.000 A 
HETATM   28  C   UNL     1      43.423 -20.360   2.288  1.00  0.00     0.001 A 
HETATM   29  C   UNL     1      43.174 -18.984   2.272  1.00  0.00     0.013 A 
ENDBRANCH   1  24
TORSDOF 6
ENDMDL
MODEL 3
REMARK VINA RESULT:      -7.5      4.357      8.082
REMARK  6 active torsions:
REMARK  status: ('A' for Active; 'I' for Inactive)
REMARK    1  A    between atoms: C_4  and  C_5 
REMARK    2  A    between atoms: C_7  and  N_8 
REMARK       I    between atoms: N_8  and  C_9 
REMARK    3  A    between atoms: C_9  and  C_10 
REMARK    4  A    between atoms: C_10  and  N_11 
REMARK    5  A    between atoms: N_11  and  C_14 
REMARK    6  A    between atoms: C_20  and  C_21 
REMARK       I    between atoms: C_21  and  N_22 
ROOT
HETATM    1  C   UNL     1      43.305 -11.762   6.532  1.00  0.00     0.018 A 
HETATM    2  S   UNL     1      43.900 -13.337   6.231  1.00  0.00    -0.071 SA
HETATM    3  C   UNL     1      42.485 -13.811   5.432  1.00  0.00     0.093 A 
HETATM    4  C   UNL     1      41.537 -12.798   5.367  1.00  0.00     0.067 A 
HETATM    5  C   UNL     1      42.035 -11.610   6.005  1.00  0.00     0.039 A 
ENDROOT
BRANCH   3   6
HETATM    6  N   UNL     1      42.331 -15.088   4.905  1.00  0.00    -0.319 N 
HETATM    7  C   UNL     1      42.748 -15.536   3.674  1.00  0.00     0.248 C 
HETATM    8  O   UNL     1      43.337 -14.922   2.786  1.00  0.00    -0.271 OA
HETATM    9  H   UNL     1      41.876 -15.733   5.556  1.00  0.00     0.169 HD
BRANCH   7  10
HETATM   10  C   UNL     1      42.436 -17.011   3.420  1.00  0.00     0.335 C 
BRANCH  10  11
HETATM   11  N   UNL     1      43.553 -17.618   2.599  1.00  0.00    -0.063 N 
HETATM   12  H   UNL     1      43.133 -17.828   1.675  1.00  0.00     0.278 HD
HETATM   13  H   UNL     1      44.229 -16.872   2.373  1.00  0.00     0.278 HD
BRANCH  11  14
HETATM   14  C   UNL     1      44.219 -18.811   3.156  1.00  0.00     0.186 C 
HETATM   15  C   UNL     1      43.995 -18.889   4.658  1.00  0.00     0.033 C 
HETATM   16  C   UNL     1      44.323 -20.342   4.971  1.00  0.00     0.002 C 
HETATM   17  C   UNL     1      43.891 -21.133   3.735  1.00  0.00     0.002 C 
HETATM   18  C   UNL     1      43.597 -20.102   2.644  1.00  0.00     0.033 C 
ENDBRANCH  11  14
ENDBRANCH  10  11
ENDBRANCH   7  10
ENDBRANCH   3   6
BRANCH   4  19
HETATM   19  C   UNL     1      40.239 -13.005   4.726  1.00  0.00     0.252 C 
HETATM   20  N   UNL     1      39.130 -12.836   5.496  1.00  0.00    -0.366 N 
HETATM   21  H   UNL     1      39.151 -12.607   6.479  1.00  0.00     0.159 HD
HETATM   22  H   UNL     1      38.226 -12.992   5.070  1.00  0.00     0.159 HD
HETATM   23  O   UNL     1      40.144 -13.327   3.541  1.00  0.00    -0.268 OA
ENDBRANCH   4  19
BRANCH   1  24
HETATM   24  C   UNL     1      44.131 -10.773   7.235  1.00  0.00    -0.019 A 
HETATM   25  C   UNL     1      43.522  -9.756   7.986  1.00  0.00     0.013 A 
HETATM   26  C   UNL     1      44.293  -8.814   8.672  1.00  0.00     0.001 A 
HETATM   27  C   UNL     1      45.683  -8.881   8.622  1.00  0.00     0.000 A 
HETATM   28  C   UNL     1      46.303  -9.887   7.886  1.00  0.00     0.001 A 
HETATM   29  C   UNL     1      45.532 -10.828   7.198  1.00  0.00     0.013 A 
ENDBRANCH   1  24
TORSDOF 6
ENDMDL
MODEL 4
REMARK VINA RESULT:      -7.4      4.286      7.886
REMARK  6 active torsions:
REMARK  status: ('A' for Active; 'I' for Inactive)
REMARK    1  A    between atoms: C_4  and  C_5 
REMARK    2  A    between atoms: C_7  and  N_8 
REMARK       I    between atoms: N_8  and  C_9 
REMARK    3  A    between atoms: C_9  and  C_10 
REMARK    4  A    between atoms: C_10  and  N_11 
REMARK    5  A    between atoms: N_11  and  C_14 
REMARK    6  A    between atoms: C_20  and  C_21 
REMARK       I    between atoms: C_21  and  N_22 
ROOT
HETATM    1  C   UNL     1      42.545 -15.773   4.445  1.00  0.00     0.018 A 
HETATM    2  S   UNL     1      43.343 -14.968   5.727  1.00  0.00    -0.071 SA
HETATM    3  C   UNL     1      42.273 -13.657   5.682  1.00  0.00     0.093 A 
HETATM    4  C   UNL     1      41.291 -13.794   4.710  1.00  0.00     0.067 A 
HETATM    5  C   UNL     1      41.460 -15.036   4.005  1.00  0.00     0.039 A 
ENDROOT
BRANCH   3   6
HETATM    6  N   UNL     1      42.397 -12.578   6.549  1.00  0.00    -0.319 N 
HETATM    7  C   UNL     1      43.211 -11.480   6.400  1.00  0.00     0.248 C 
HETATM    8  O   UNL     1      43.992 -11.213   5.488  1.00  0.00    -0.271 OA
HETATM    9  H   UNL     1      41.773 -12.645   7.357  1.00  0.00     0.169 HD
BRANCH   7  10
HETATM   10  C   UNL     1      43.085 -10.464   7.535  1.00  0.00     0.335 C 
BRANCH  10  11
HETATM   11  N   UNL     1      43.762 -11.016   8.771  1.00  0.00    -0.063 N 
HETATM   12  H   UNL     1      43.145 -11.778   9.106  1.00  0.00     0.278 HD
HETATM   13  H   UNL     1      44.607 -11.526   8.474  1.00  0.00     0.278 HD
BRANCH  11  14
HETATM   14  C   UNL     1      44.051 -10.060   9.858  1.00  0.00     0.186 C 
HETATM   15  C   UNL     1      43.236  -8.790   9.675  1.00  0.00     0.033 C 
HETATM   16  C   UNL     1      43.295  -8.153  11.056  1.00  0.00     0.002 C 
HETATM   17  C   UNL     1      43.337  -9.321  12.043  1.00  0.00     0.002 C 
HETATM   18  C   UNL     1      43.589 -10.580  11.211  1.00  0.00     0.033 C 
ENDBRANCH  11  14
ENDBRANCH  10  11
ENDBRANCH   7  10
ENDBRANCH   3   6
BRANCH   4  19
HETATM   19  C   UNL     1      40.273 -12.766   4.500  1.00  0.00     0.252 C 
HETATM   20  N   UNL     1      39.150 -12.837   5.266  1.00  0.00    -0.366 N 
HETATM   21  H   UNL     1      38.968 -13.564   5.942  1.00  0.00     0.159 HD
HETATM   22  H   UNL     1      38.430 -12.142   5.120  1.00  0.00     0.159 HD
HETATM   23  O   UNL     1      40.412 -11.874   3.662  1.00  0.00    -0.268 OA
ENDBRANCH   4  19
BRANCH   1  24
HETATM   24  C   UNL     1      43.016 -17.082   3.977  1.00  0.00    -0.019 A 
HETATM   25  C   UNL     1      43.763 -17.907   4.832  1.00  0.00     0.013 A 
HETATM   26  C   UNL     1      44.207 -19.161   4.406  1.00  0.00     0.001 A 
HETATM   27  C   UNL     1      43.906 -19.610   3.122  1.00  0.00     0.000 A 
HETATM   28  C   UNL     1      43.161 -18.806   2.264  1.00  0.00     0.001 A 
HETATM   29  C   UNL     1      42.718 -17.550   2.688  1.00  0.00     0.013 A 
ENDBRANCH   1  24
TORSDOF 6
ENDMDL
MODEL 5
REMARK VINA RESULT:      -7.2      2.418      2.825
REMARK  6 active torsions:
REMARK  status: ('A' for Active; 'I' for Inactive)
REMARK    1  A    between atoms: C_4  and  C_5 
REMARK    2  A    between atoms: C_7  and  N_8 
REMARK       I    between atoms: N_8  and  C_9 
REMARK    3  A    between atoms: C_9  and  C_10 
REMARK    4  A    between atoms: C_10  and  N_11 
REMARK    5  A    between atoms: N_11  and  C_14 
REMARK    6  A    between atoms: C_20  and  C_21 
REMARK       I    between atoms: C_21  and  N_22 
ROOT
HETATM    1  C   UNL     1      41.748 -16.013   3.849  1.00  0.00     0.018 A 
HETATM    2  S   UNL     1      40.792 -15.412   2.564  1.00  0.00    -0.071 SA
HETATM    3  C   UNL     1      40.181 -14.142   3.500  1.00  0.00     0.093 A 
HETATM    4  C   UNL     1      40.683 -14.135   4.795  1.00  0.00     0.067 A 
HETATM    5  C   UNL     1      41.601 -15.227   4.977  1.00  0.00     0.039 A 
ENDROOT
BRANCH   3   6
HETATM    6  N   UNL     1      39.277 -13.219   2.987  1.00  0.00    -0.319 N 
HETATM    7  C   UNL     1      39.554 -11.963   2.502  1.00  0.00     0.248 C 
HETATM    8  O   UNL     1      40.639 -11.389   2.415  1.00  0.00    -0.271 OA
HETATM    9  H   UNL     1      38.317 -13.574   2.965  1.00  0.00     0.169 HD
BRANCH   7  10
HETATM   10  C   UNL     1      38.322 -11.217   1.991  1.00  0.00     0.335 C 
BRANCH  10  11
HETATM   11  N   UNL     1      37.755 -11.956   0.798  1.00  0.00    -0.063 N 
HETATM   12  H   UNL     1      37.499 -12.895   1.153  1.00  0.00     0.278 HD
HETATM   13  H   UNL     1      36.838 -11.544   0.570  1.00  0.00     0.278 HD
BRANCH  11  14
HETATM   14  C   UNL     1      38.620 -12.064  -0.393  1.00  0.00     0.186 C 
HETATM   15  C   UNL     1      37.838 -12.638  -1.564  1.00  0.00     0.033 C 
HETATM   16  C   UNL     1      38.697 -12.255  -2.761  1.00  0.00     0.002 C 
HETATM   17  C   UNL     1      39.332 -10.913  -2.393  1.00  0.00     0.002 C 
HETATM   18  C   UNL     1      39.059 -10.699  -0.903  1.00  0.00     0.033 C 
ENDBRANCH  11  14
ENDBRANCH  10  11
ENDBRANCH   7  10
ENDBRANCH   3   6
BRANCH   4  19
HETATM   19  C   UNL     1      40.275 -13.123   5.769  1.00  0.00     0.252 C 
HETATM   20  N   UNL     1      41.263 -12.424   6.390  1.00  0.00    -0.366 N 
HETATM   21  H   UNL     1      42.249 -12.578   6.242  1.00  0.00     0.159 HD
HETATM   22  H   UNL     1      40.996 -11.732   7.079  1.00  0.00     0.159 HD
HETATM   23  O   UNL     1      39.090 -12.913   6.029  1.00  0.00    -0.268 OA
ENDBRANCH   4  19
BRANCH   1  24
HETATM   24  C   UNL     1      42.599 -17.194   3.658  1.00  0.00    -0.019 A 
HETATM   25  C   UNL     1      42.505 -17.944   2.476  1.00  0.00     0.013 A 
HETATM   26  C   UNL     1      43.317 -19.063   2.273  1.00  0.00     0.001 A 
HETATM   27  C   UNL     1      44.238 -19.443   3.246  1.00  0.00     0.000 A 
HETATM   28  C   UNL     1      44.348 -18.706   4.423  1.00  0.00     0.001 A 
HETATM   29  C   UNL     1      43.534 -17.587   4.627  1.00  0.00     0.013 A 
ENDBRANCH   1  24
TORSDOF 6
ENDMDL
MODEL 6
REMARK VINA RESULT:      -7.0      6.493      9.539
REMARK  6 active torsions:
REMARK  status: ('A' for Active; 'I' for Inactive)
REMARK    1  A    between atoms: C_4  and  C_5 
REMARK    2  A    between atoms: C_7  and  N_8 
REMARK       I    between atoms: N_8  and  C_9 
REMARK    3  A    between atoms: C_9  and  C_10 
REMARK    4  A    between atoms: C_10  and  N_11 
REMARK    5  A    between atoms: N_11  and  C_14 
REMARK    6  A    between atoms: C_20  and  C_21 
REMARK       I    between atoms: C_21  and  N_22 
ROOT
HETATM    1  C   UNL     1      43.427  -9.488  10.347  1.00  0.00     0.018 A 
HETATM    2  S   UNL     1      42.284  -9.761   9.105  1.00  0.00    -0.071 SA
HETATM    3  C   UNL     1      43.483 -10.104   7.961  1.00  0.00     0.093 A 
HETATM    4  C   UNL     1      44.767 -10.027   8.484  1.00  0.00     0.067 A 
HETATM    5  C   UNL     1      44.715  -9.675   9.877  1.00  0.00     0.039 A 
ENDROOT
BRANCH   3   6
HETATM    6  N   UNL     1      43.172 -10.430   6.646  1.00  0.00    -0.319 N 
HETATM    7  C   UNL     1      42.916 -11.681   6.136  1.00  0.00     0.248 C 
HETATM    8  O   UNL     1      42.905 -12.765   6.717  1.00  0.00    -0.271 OA
HETATM    9  H   UNL     1      43.113  -9.609   6.037  1.00  0.00     0.169 HD
BRANCH   7  10
HETATM   10  C   UNL     1      42.585 -11.680   4.644  1.00  0.00     0.335 C 
BRANCH  10  11
HETATM   11  N   UNL     1      41.495 -12.697   4.379  1.00  0.00    -0.063 N 
HETATM   12  H   UNL     1      41.255 -13.091   5.307  1.00  0.00     0.278 HD
HETATM   13  H   UNL     1      40.636 -12.187   4.123  1.00  0.00     0.278 HD
BRANCH  11  14
HETATM   14  C   UNL     1      41.804 -13.772   3.417  1.00  0.00     0.186 C 
HETATM   15  C   UNL     1      42.983 -13.376   2.542  1.00  0.00     0.033 C 
HETATM   16  C   UNL     1      43.438 -14.710   1.970  1.00  0.00     0.002 C 
HETATM   17  C   UNL     1      43.156 -15.741   3.064  1.00  0.00     0.002 C 
HETATM   18  C   UNL     1      42.293 -15.034   4.111  1.00  0.00     0.033 C 
ENDBRANCH  11  14
ENDBRANCH  10  11
ENDBRANCH   7  10
ENDBRANCH   3   6
BRANCH   4  19
HETATM   19  C   UNL     1      45.947 -10.279   7.657  1.00  0.00     0.252 C 
HETATM   20  N   UNL     1      46.906  -9.314   7.633  1.00  0.00    -0.366 N 
HETATM   21  H   UNL     1      46.840  -8.434   8.122  1.00  0.00     0.159 HD
HETATM   22  H   UNL     1      47.720  -9.468   7.052  1.00  0.00     0.159 HD
HETATM   23  O   UNL     1      46.072 -11.314   7.002  1.00  0.00    -0.268 OA
ENDBRANCH   4  19
BRANCH   1  24
HETATM   24  C   UNL     1      42.988  -9.138  11.704  1.00  0.00    -0.019 A 
HETATM   25  C   UNL     1      43.554  -8.036  12.363  1.00  0.00     0.013 A 
HETATM   26  C   UNL     1      43.138  -7.681  13.649  1.00  0.00     0.001 A 
HETATM   27  C   UNL     1      42.147  -8.420  14.290  1.00  0.00     0.000 A 
HETATM   28  C   UNL     1      41.571  -9.513  13.648  1.00  0.00     0.001 A 
HETATM   29  C   UNL     1      41.988  -9.869  12.362  1.00  0.00     0.013 A 
ENDBRANCH   1  24
TORSDOF 6
ENDMDL
MODEL 7
REMARK VINA RESULT:      -7.0     14.641     16.465
REMARK  6 active torsions:
REMARK  status: ('A' for Active; 'I' for Inactive)
REMARK    1  A    between atoms: C_4  and  C_5 
REMARK    2  A    between atoms: C_7  and  N_8 
REMARK       I    between atoms: N_8  and  C_9 
REMARK    3  A    between atoms: C_9  and  C_10 
REMARK    4  A    between atoms: C_10  and  N_11 
REMARK    5  A    between atoms: N_11  and  C_14 
REMARK    6  A    between atoms: C_20  and  C_21 
REMARK       I    between atoms: C_21  and  N_22 
ROOT
HETATM    1  C   UNL     1      49.393 -30.914   3.898  1.00  0.00     0.018 A 
HETATM    2  S   UNL     1      49.691 -31.294   2.258  1.00  0.00    -0.071 SA
HETATM    3  C   UNL     1      48.435 -30.301   1.711  1.00  0.00     0.093 A 
HETATM    4  C   UNL     1      47.767 -29.657   2.744  1.00  0.00     0.067 A 
HETATM    5  C   UNL     1      48.344 -30.019   4.010  1.00  0.00     0.039 A 
ENDROOT
BRANCH   3   6
HETATM    6  N   UNL     1      48.139 -30.168   0.359  1.00  0.00    -0.319 N 
HETATM    7  C   UNL     1      49.006 -29.832  -0.653  1.00  0.00     0.248 C 
HETATM    8  O   UNL     1      50.209 -29.581  -0.591  1.00  0.00    -0.271 OA
HETATM    9  H   UNL     1      47.161 -30.380   0.145  1.00  0.00     0.169 HD
BRANCH   7  10
HETATM   10  C   UNL     1      48.352 -29.795  -2.034  1.00  0.00     0.335 C 
BRANCH  10  11
HETATM   11  N   UNL     1      47.675 -28.454  -2.226  1.00  0.00    -0.063 N 
HETATM   12  H   UNL     1      47.852 -27.929  -1.350  1.00  0.00     0.278 HD
HETATM   13  H   UNL     1      48.216 -27.918  -2.921  1.00  0.00     0.278 HD
BRANCH  11  14
HETATM   14  C   UNL     1      46.235 -28.473  -2.545  1.00  0.00     0.186 C 
HETATM   15  C   UNL     1      45.875 -29.747  -3.292  1.00  0.00     0.033 C 
HETATM   16  C   UNL     1      44.363 -29.816  -3.128  1.00  0.00     0.002 C 
HETATM   17  C   UNL     1      44.074 -29.206  -1.755  1.00  0.00     0.002 C 
HETATM   18  C   UNL     1      45.375 -28.548  -1.292  1.00  0.00     0.033 C 
ENDBRANCH  11  14
ENDBRANCH  10  11
ENDBRANCH   7  10
ENDBRANCH   3   6
BRANCH   4  19
HETATM   19  C   UNL     1      46.642 -28.759   2.486  1.00  0.00     0.252 C 
HETATM   20  N   UNL     1      45.422 -29.140   2.955  1.00  0.00    -0.366 N 
HETATM   21  H   UNL     1      45.245 -30.007   3.439  1.00  0.00     0.159 HD
HETATM   22  H   UNL     1      44.631 -28.536   2.769  1.00  0.00     0.159 HD
HETATM   23  O   UNL     1      46.781 -27.706   1.865  1.00  0.00    -0.268 OA
ENDBRANCH   4  19
BRANCH   1  24
HETATM   24  C   UNL     1      50.224 -31.491   4.963  1.00  0.00    -0.019 A 
HETATM   25  C   UNL     1      51.473 -30.926   5.264  1.00  0.00     0.013 A 
HETATM   26  C   UNL     1      52.269 -31.455   6.282  1.00  0.00     0.001 A 
HETATM   27  C   UNL     1      51.826 -32.552   7.017  1.00  0.00     0.000 A 
HETATM   28  C   UNL     1      50.587 -33.122   6.734  1.00  0.00     0.001 A 
HETATM   29  C   UNL     1      49.790 -32.594   5.714  1.00  0.00     0.013 A 
ENDBRANCH   1  24
TORSDOF 6
ENDMDL
MODEL 8
REMARK VINA RESULT:      -6.9      3.375      5.668
REMARK  6 active torsions:
REMARK  status: ('A' for Active; 'I' for Inactive)
REMARK    1  A    between atoms: C_4  and  C_5 
REMARK    2  A    between atoms: C_7  and  N_8 
REMARK       I    between atoms: N_8  and  C_9 
REMARK    3  A    between atoms: C_9  and  C_10 
REMARK    4  A    between atoms: C_10  and  N_11 
REMARK    5  A    between atoms: N_11  and  C_14 
REMARK    6  A    between atoms: C_20  and  C_21 
REMARK       I    between atoms: C_21  and  N_22 
ROOT
HETATM    1  C   UNL     1      40.700 -14.769   0.801  1.00  0.00     0.018 A 
HETATM    2  S   UNL     1      41.028 -13.114   0.523  1.00  0.00    -0.071 SA
HETATM    3  C   UNL     1      39.983 -13.044  -0.807  1.00  0.00     0.093 A 
HETATM    4  C   UNL     1      39.361 -14.257  -1.070  1.00  0.00     0.067 A 
HETATM    5  C   UNL     1      39.784 -15.248  -0.118  1.00  0.00     0.039 A 
ENDROOT
BRANCH   3   6
HETATM    6  N   UNL     1      39.792 -11.872  -1.530  1.00  0.00    -0.319 N 
HETATM    7  C   UNL     1      40.417 -11.504  -2.698  1.00  0.00     0.248 C 
HETATM    8  O   UNL     1      41.264 -12.116  -3.349  1.00  0.00    -0.271 OA
HETATM    9  H   UNL     1      39.079 -11.264  -1.119  1.00  0.00     0.169 HD
BRANCH   7  10
HETATM   10  C   UNL     1      39.956 -10.153  -3.242  1.00  0.00     0.335 C 
BRANCH  10  11
HETATM   11  N   UNL     1      40.415  -9.058  -2.303  1.00  0.00    -0.063 N 
HETATM   12  H   UNL     1      39.712  -8.303  -2.396  1.00  0.00     0.278 HD
HETATM   13  H   UNL     1      40.269  -9.382  -1.335  1.00  0.00     0.278 HD
BRANCH  11  14
HETATM   14  C   UNL     1      41.779  -8.533  -2.506  1.00  0.00     0.186 C 
HETATM   15  C   UNL     1      41.729  -7.193  -3.223  1.00  0.00     0.033 C 
HETATM   16  C   UNL     1      43.106  -6.609  -2.939  1.00  0.00     0.002 C 
HETATM   17  C   UNL     1      43.485  -7.118  -1.547  1.00  0.00     0.002 C 
HETATM   18  C   UNL     1      42.463  -8.198  -1.189  1.00  0.00     0.033 C 
ENDBRANCH  11  14
ENDBRANCH  10  11
ENDBRANCH   7  10
ENDBRANCH   3   6
BRANCH   4  19
HETATM   19  C   UNL     1      38.426 -14.412  -2.183  1.00  0.00     0.252 C 
HETATM   20  N   UNL     1      38.439 -15.601  -2.845  1.00  0.00    -0.366 N 
HETATM   21  H   UNL     1      39.067 -16.362  -2.635  1.00  0.00     0.159 HD
HETATM   22  H   UNL     1      37.809 -15.717  -3.629  1.00  0.00     0.159 HD
HETATM   23  O   UNL     1      37.661 -13.508  -2.520  1.00  0.00    -0.268 OA
ENDBRANCH   4  19
BRANCH   1  24
HETATM   24  C   UNL     1      41.337 -15.480   1.917  1.00  0.00    -0.019 A 
HETATM   25  C   UNL     1      42.626 -16.015   1.764  1.00  0.00     0.013 A 
HETATM   26  C   UNL     1      43.252 -16.682   2.820  1.00  0.00     0.001 A 
HETATM   27  C   UNL     1      42.601 -16.820   4.043  1.00  0.00     0.000 A 
HETATM   28  C   UNL     1      41.324 -16.291   4.212  1.00  0.00     0.001 A 
HETATM   29  C   UNL     1      40.696 -15.624   3.156  1.00  0.00     0.013 A 
ENDBRANCH   1  24
TORSDOF 6
ENDMDL
MODEL 9
REMARK VINA RESULT:      -6.9      7.602     10.765
REMARK  6 active torsions:
REMARK  status: ('A' for Active; 'I' for Inactive)
REMARK    1  A    between atoms: C_4  and  C_5 
REMARK    2  A    between atoms: C_7  and  N_8 
REMARK       I    between atoms: N_8  and  C_9 
REMARK    3  A    between atoms: C_9  and  C_10 
REMARK    4  A    between atoms: C_10  and  N_11 
REMARK    5  A    between atoms: N_11  and  C_14 
REMARK    6  A    between atoms: C_20  and  C_21 
REMARK       I    between atoms: C_21  and  N_22 
ROOT
HETATM    1  C   UNL     1      43.061  -8.961  11.664  1.00  0.00     0.018 A 
HETATM    2  S   UNL     1      41.827  -9.458  10.589  1.00  0.00    -0.071 SA
HETATM    3  C   UNL     1      42.934  -9.889   9.383  1.00  0.00     0.093 A 
HETATM    4  C   UNL     1      44.253  -9.675   9.760  1.00  0.00     0.067 A 
HETATM    5  C   UNL     1      44.308  -9.143  11.095  1.00  0.00     0.039 A 
ENDROOT
BRANCH   3   6
HETATM    6  N   UNL     1      42.523 -10.404   8.159  1.00  0.00    -0.319 N 
HETATM    7  C   UNL     1      42.176  -9.696   7.033  1.00  0.00     0.248 C 
HETATM    8  O   UNL     1      42.152  -8.478   6.861  1.00  0.00    -0.271 OA
HETATM    9  H   UNL     1      42.523 -11.427   8.139  1.00  0.00     0.169 HD
BRANCH   7  10
HETATM   10  C   UNL     1      41.792 -10.580   5.847  1.00  0.00     0.335 C 
BRANCH  10  11
HETATM   11  N   UNL     1      41.132 -11.841   6.363  1.00  0.00    -0.063 N 
HETATM   12  H   UNL     1      41.153 -11.760   7.395  1.00  0.00     0.278 HD
HETATM   13  H   UNL     1      40.123 -11.784   6.154  1.00  0.00     0.278 HD
BRANCH  11  14
HETATM   14  C   UNL     1      41.712 -13.125   5.924  1.00  0.00     0.186 C 
HETATM   15  C   UNL     1      40.658 -13.972   5.229  1.00  0.00     0.033 C 
HETATM   16  C   UNL     1      41.495 -14.990   4.467  1.00  0.00     0.002 C 
HETATM   17  C   UNL     1      42.774 -14.251   4.071  1.00  0.00     0.002 C 
HETATM   18  C   UNL     1      42.771 -12.934   4.849  1.00  0.00     0.033 C 
ENDBRANCH  11  14
ENDBRANCH  10  11
ENDBRANCH   7  10
ENDBRANCH   3   6
BRANCH   4  19
HETATM   19  C   UNL     1      45.365  -9.973   8.858  1.00  0.00     0.252 C 
HETATM   20  N   UNL     1      46.130  -8.926   8.446  1.00  0.00    -0.366 N 
HETATM   21  H   UNL     1      45.961  -7.964   8.700  1.00  0.00     0.159 HD
HETATM   22  H   UNL     1      46.893  -9.115   7.809  1.00  0.00     0.159 HD
HETATM   23  O   UNL     1      45.601 -11.119   8.475  1.00  0.00    -0.268 OA
ENDBRANCH   4  19
BRANCH   1  24
HETATM   24  C   UNL     1      42.728  -8.456  13.002  1.00  0.00    -0.019 A 
HETATM   25  C   UNL     1      43.407  -7.343  13.521  1.00  0.00     0.013 A 
HETATM   26  C   UNL     1      43.093  -6.841  14.787  1.00  0.00     0.001 A 
HETATM   27  C   UNL     1      42.093  -7.441  15.547  1.00  0.00     0.000 A 
HETATM   28  C   UNL     1      41.405  -8.542  15.044  1.00  0.00     0.001 A 
HETATM   29  C   UNL     1      41.720  -9.046  13.779  1.00  0.00     0.013 A 
ENDBRANCH   1  24
TORSDOF 6
ENDMDL
MODEL 10
REMARK VINA RESULT:      -6.9      3.955      7.005
REMARK  6 active torsions:
REMARK  status: ('A' for Active; 'I' for Inactive)
REMARK    1  A    between atoms: C_4  and  C_5 
REMARK    2  A    between atoms: C_7  and  N_8 
REMARK       I    between atoms: N_8  and  C_9 
REMARK    3  A    between atoms: C_9  and  C_10 
REMARK    4  A    between atoms: C_10  and  N_11 
REMARK    5  A    between atoms: N_11  and  C_14 
REMARK    6  A    between atoms: C_20  and  C_21 
REMARK       I    between atoms: C_21  and  N_22 
ROOT
HETATM    1  C   UNL     1      43.851 -12.018   6.952  1.00  0.00     0.018 A 
HETATM    2  S   UNL     1      43.000 -11.618   5.523  1.00  0.00    -0.071 SA
HETATM    3  C   UNL     1      42.544 -13.224   5.245  1.00  0.00     0.093 A 
HETATM    4  C   UNL     1      43.015 -14.096   6.218  1.00  0.00     0.067 A 
HETATM    5  C   UNL     1      43.767 -13.374   7.208  1.00  0.00     0.039 A 
ENDROOT
BRANCH   3   6
HETATM    6  N   UNL     1      41.774 -13.589   4.146  1.00  0.00    -0.319 N 
HETATM    7  C   UNL     1      40.417 -13.433   3.993  1.00  0.00     0.248 C 
HETATM    8  O   UNL     1      39.601 -12.945   4.773  1.00  0.00    -0.271 OA
HETATM    9  H   UNL     1      42.331 -13.990   3.387  1.00  0.00     0.169 HD
BRANCH   7  10
HETATM   10  C   UNL     1      39.891 -13.926   2.645  1.00  0.00     0.335 C 
BRANCH  10  11
HETATM   11  N   UNL     1      41.033 -13.964   1.652  1.00  0.00    -0.063 N 
HETATM   12  H   UNL     1      40.664 -13.521   0.791  1.00  0.00     0.278 HD
HETATM   13  H   UNL     1      41.750 -13.290   1.961  1.00  0.00     0.278 HD
BRANCH  11  14
HETATM   14  C   UNL     1      41.614 -15.287   1.353  1.00  0.00     0.186 C 
HETATM   15  C   UNL     1      43.097 -15.301   1.689  1.00  0.00     0.033 C 
HETATM   16  C   UNL     1      43.409 -16.789   1.766  1.00  0.00     0.002 C 
HETATM   17  C   UNL     1      42.135 -17.445   2.302  1.00  0.00     0.002 C 
HETATM   18  C   UNL     1      41.043 -16.375   2.249  1.00  0.00     0.033 C 
ENDBRANCH  11  14
ENDBRANCH  10  11
ENDBRANCH   7  10
ENDBRANCH   3   6
BRANCH   4  19
HETATM   19  C   UNL     1      42.740 -15.531   6.158  1.00  0.00     0.252 C 
HETATM   20  N   UNL     1      41.900 -16.043   7.098  1.00  0.00    -0.366 N 
HETATM   21  H   UNL     1      41.482 -15.503   7.841  1.00  0.00     0.159 HD
HETATM   22  H   UNL     1      41.713 -17.037   7.078  1.00  0.00     0.159 HD
HETATM   23  O   UNL     1      43.249 -16.255   5.302  1.00  0.00    -0.268 OA
ENDBRANCH   4  19
BRANCH   1  24
HETATM   24  C   UNL     1      44.519 -10.975   7.740  1.00  0.00    -0.019 A 
HETATM   25  C   UNL     1      45.738 -10.435   7.302  1.00  0.00     0.013 A 
HETATM   26  C   UNL     1      46.380  -9.433   8.034  1.00  0.00     0.001 A 
HETATM   27  C   UNL     1      45.809  -8.953   9.210  1.00  0.00     0.000 A 
HETATM   28  C   UNL     1      44.597  -9.474   9.656  1.00  0.00     0.001 A 
HETATM   29  C   UNL     1      43.955 -10.478   8.925  1.00  0.00     0.013 A 
ENDBRANCH   1  24
TORSDOF 6
ENDMDL
