MODEL 1
REMARK VINA RESULT:      -7.1      0.000      0.000
REMARK  5 active torsions:
REMARK  status: ('A' for Active; 'I' for Inactive)
REMARK    1  A    between atoms: C_2  and  O_3 
REMARK    2  A    between atoms: O_3  and  C_4 
REMARK    3  A    between atoms: C_10  and  N_11 
REMARK       I    between atoms: N_11  and  C_12 
REMARK       I    between atoms: C_12  and  N_13 
REMARK    4  A    between atoms: N_13  and  C_14 
REMARK    5  A    between atoms: C_14  and  C_15 
ROOT
HETATM    1  N   UNL     1      41.042 -12.949   4.661  1.00  0.00    -0.306 N 
HETATM    2  C   UNL     1      40.477 -12.766   5.892  1.00  0.00     0.321 C 
HETATM    3  N   UNL     1      40.709 -11.565   6.493  1.00  0.00    -0.337 N 
HETATM    4  O   UNL     1      39.798 -13.578   6.513  1.00  0.00    -0.247 OA
HETATM    5  H   UNL     1      41.347 -12.111   4.165  1.00  0.00     0.171 HD
HETATM    6  H   UNL     1      40.275 -11.507   7.405  1.00  0.00     0.164 HD
ENDROOT
BRANCH   1   7
HETATM    7  C   UNL     1      41.011 -14.115   3.858  1.00  0.00     0.071 A 
HETATM    8  C   UNL     1      42.112 -14.992   3.924  1.00  0.00     0.117 A 
HETATM    9  C   UNL     1      42.184 -16.098   3.061  1.00  0.00     0.069 A 
HETATM   10 CL   UNL     1      43.583 -17.109   2.974  1.00  0.00    -0.081 Cl
HETATM   11  C   UNL     1      41.119 -16.390   2.208  1.00  0.00     0.027 A 
HETATM   12  C   UNL     1      39.995 -15.568   2.195  1.00  0.00     0.004 A 
HETATM   13  C   UNL     1      39.945 -14.433   3.010  1.00  0.00     0.032 A 
BRANCH   8  14
HETATM   14  O   UNL     1      43.133 -14.679   4.793  1.00  0.00    -0.343 OA
BRANCH  14  15
HETATM   15  C   UNL     1      43.086 -15.450   6.009  1.00  0.00     0.121 C 
HETATM   16  C   UNL     1      43.105 -14.525   7.224  1.00  0.00     0.040 C 
HETATM   17  C   UNL     1      44.320 -16.348   6.017  1.00  0.00     0.040 C 
ENDBRANCH  14  15
ENDBRANCH   8  14
ENDBRANCH   1   7
BRANCH   3  18
HETATM   18  C   UNL     1      41.628 -10.517   6.100  1.00  0.00     0.183 C 
BRANCH  18  19
HETATM   19  C   UNL     1      43.031 -10.772   6.597  1.00  0.00     0.053 A 
HETATM   20  N   UNL     1      43.887 -11.351   5.718  1.00  0.00    -0.264 NA
HETATM   21  C   UNL     1      45.166 -11.539   6.112  1.00  0.00     0.118 A 
HETATM   22  C   UNL     1      45.641 -11.181   7.356  1.00  0.00     0.043 A 
HETATM   23  C   UNL     1      44.748 -10.586   8.236  1.00  0.00     0.037 A 
HETATM   24 CL   UNL     1      45.282 -10.111   9.801  1.00  0.00    -0.084 Cl
HETATM   25  C   UNL     1      43.427 -10.366   7.864  1.00  0.00     0.052 A 
ENDBRANCH  18  19
ENDBRANCH   3  18
TORSDOF 5
ENDMDL
MODEL 2
REMARK VINA RESULT:      -7.1      4.165      7.486
REMARK  5 active torsions:
REMARK  status: ('A' for Active; 'I' for Inactive)
REMARK    1  A    between atoms: C_2  and  O_3 
REMARK    2  A    between atoms: O_3  and  C_4 
REMARK    3  A    between atoms: C_10  and  N_11 
REMARK       I    between atoms: N_11  and  C_12 
REMARK       I    between atoms: C_12  and  N_13 
REMARK    4  A    between atoms: N_13  and  C_14 
REMARK    5  A    between atoms: C_14  and  C_15 
ROOT
HETATM    1  N   UNL     1      42.082 -16.186   2.288  1.00  0.00    -0.306 N 
HETATM    2  C   UNL     1      42.583 -15.128   1.582  1.00  0.00     0.321 C 
HETATM    3  N   UNL     1      41.701 -14.452   0.794  1.00  0.00    -0.337 N 
HETATM    4  O   UNL     1      43.747 -14.739   1.577  1.00  0.00    -0.247 OA
HETATM    5  H   UNL     1      41.069 -16.225   2.401  1.00  0.00     0.171 HD
HETATM    6  H   UNL     1      42.144 -13.695   0.290  1.00  0.00     0.164 HD
ENDROOT
BRANCH   1   7
HETATM    7  C   UNL     1      42.790 -17.084   3.123  1.00  0.00     0.071 A 
HETATM    8  C   UNL     1      43.043 -16.691   4.453  1.00  0.00     0.117 A 
HETATM    9  C   UNL     1      43.844 -17.491   5.284  1.00  0.00     0.069 A 
HETATM   10 CL   UNL     1      44.331 -16.982   6.862  1.00  0.00    -0.081 Cl
HETATM   11  C   UNL     1      44.306 -18.727   4.830  1.00  0.00     0.027 A 
HETATM   12  C   UNL     1      43.994 -19.154   3.542  1.00  0.00     0.004 A 
HETATM   13  C   UNL     1      43.247 -18.334   2.691  1.00  0.00     0.032 A 
BRANCH   8  14
HETATM   14  O   UNL     1      42.552 -15.473   4.867  1.00  0.00    -0.343 OA
BRANCH  14  15
HETATM   15  C   UNL     1      41.132 -15.497   5.107  1.00  0.00     0.121 C 
HETATM   16  C   UNL     1      40.520 -14.133   4.799  1.00  0.00     0.040 C 
HETATM   17  C   UNL     1      40.933 -15.837   6.582  1.00  0.00     0.040 C 
ENDBRANCH  14  15
ENDBRANCH   8  14
ENDBRANCH   1   7
BRANCH   3  18
HETATM   18  C   UNL     1      40.341 -14.808   0.445  1.00  0.00     0.183 C 
BRANCH  18  19
HETATM   19  C   UNL     1      39.859 -14.083  -0.788  1.00  0.00     0.053 A 
HETATM   20  N   UNL     1      40.183 -12.767  -0.881  1.00  0.00    -0.264 NA
HETATM   21  C   UNL     1      39.817 -12.105  -2.001  1.00  0.00     0.118 A 
HETATM   22  C   UNL     1      39.131 -12.690  -3.044  1.00  0.00     0.043 A 
HETATM   23  C   UNL     1      38.816 -14.037  -2.928  1.00  0.00     0.037 A 
HETATM   24 CL   UNL     1      37.966 -14.826  -4.199  1.00  0.00    -0.084 Cl
HETATM   25  C   UNL     1      39.185 -14.756  -1.797  1.00  0.00     0.052 A 
ENDBRANCH  18  19
ENDBRANCH   3  18
TORSDOF 5
ENDMDL
MODEL 3
REMARK VINA RESULT:      -6.8      3.270      6.914
REMARK  5 active torsions:
REMARK  status: ('A' for Active; 'I' for Inactive)
REMARK    1  A    between atoms: C_2  and  O_3 
REMARK    2  A    between atoms: O_3  and  C_4 
REMARK    3  A    between atoms: C_10  and  N_11 
REMARK       I    between atoms: N_11  and  C_12 
REMARK       I    between atoms: C_12  and  N_13 
REMARK    4  A    between atoms: N_13  and  C_14 
REMARK    5  A    between atoms: C_14  and  C_15 
ROOT
HETATM    1  N   UNL     1      41.678 -14.032   3.619  1.00  0.00    -0.306 N 
HETATM    2  C   UNL     1      40.464 -13.411   3.718  1.00  0.00     0.321 C 
HETATM    3  N   UNL     1      39.935 -12.926   2.560  1.00  0.00    -0.337 N 
HETATM    4  O   UNL     1      39.813 -13.237   4.744  1.00  0.00    -0.247 OA
HETATM    5  H   UNL     1      41.966 -14.335   2.689  1.00  0.00     0.171 HD
HETATM    6  H   UNL     1      39.047 -12.467   2.710  1.00  0.00     0.164 HD
ENDROOT
BRANCH   1   7
HETATM    7  C   UNL     1      42.467 -14.563   4.669  1.00  0.00     0.071 A 
HETATM    8  C   UNL     1      42.741 -15.946   4.655  1.00  0.00     0.117 A 
HETATM    9  C   UNL     1      43.415 -16.541   5.733  1.00  0.00     0.069 A 
HETATM   10 CL   UNL     1      43.628 -18.252   5.857  1.00  0.00    -0.081 Cl
HETATM   11  C   UNL     1      43.907 -15.750   6.772  1.00  0.00     0.027 A 
HETATM   12  C   UNL     1      43.706 -14.373   6.751  1.00  0.00     0.004 A 
HETATM   13  C   UNL     1      42.983 -13.784   5.709  1.00  0.00     0.032 A 
BRANCH   8  14
HETATM   14  O   UNL     1      42.254 -16.687   3.602  1.00  0.00    -0.343 OA
BRANCH  14  15
HETATM   15  C   UNL     1      43.282 -17.073   2.669  1.00  0.00     0.121 C 
HETATM   16  C   UNL     1      43.237 -16.178   1.432  1.00  0.00     0.040 C 
HETATM   17  C   UNL     1      43.010 -18.522   2.276  1.00  0.00     0.040 C 
ENDBRANCH  14  15
ENDBRANCH   8  14
ENDBRANCH   1   7
BRANCH   3  18
HETATM   18  C   UNL     1      40.562 -12.802   1.260  1.00  0.00     0.183 C 
BRANCH  18  19
HETATM   19  C   UNL     1      39.563 -12.901   0.132  1.00  0.00     0.053 A 
HETATM   20  N   UNL     1      38.662 -11.890   0.033  1.00  0.00    -0.264 NA
HETATM   21  C   UNL     1      37.792 -11.919  -1.000  1.00  0.00     0.118 A 
HETATM   22  C   UNL     1      37.767 -12.919  -1.950  1.00  0.00     0.043 A 
HETATM   23  C   UNL     1      38.701 -13.939  -1.829  1.00  0.00     0.037 A 
HETATM   24 CL   UNL     1      38.725 -15.212  -2.986  1.00  0.00    -0.084 Cl
HETATM   25  C   UNL     1      39.620 -13.939  -0.787  1.00  0.00     0.052 A 
ENDBRANCH  18  19
ENDBRANCH   3  18
TORSDOF 5
ENDMDL
MODEL 4
REMARK VINA RESULT:      -6.8      1.146      2.893
REMARK  5 active torsions:
REMARK  status: ('A' for Active; 'I' for Inactive)
REMARK    1  A    between atoms: C_2  and  O_3 
REMARK    2  A    between atoms: O_3  and  C_4 
REMARK    3  A    between atoms: C_10  and  N_11 
REMARK       I    between atoms: N_11  and  C_12 
REMARK       I    between atoms: C_12  and  N_13 
REMARK    4  A    between atoms: N_13  and  C_14 
REMARK    5  A    between atoms: C_14  and  C_15 
ROOT
HETATM    1  N   UNL     1      42.664 -13.856   5.307  1.00  0.00    -0.306 N 
HETATM    2  C   UNL     1      41.609 -13.505   6.101  1.00  0.00     0.321 C 
HETATM    3  N   UNL     1      41.366 -12.170   6.232  1.00  0.00    -0.337 N 
HETATM    4  O   UNL     1      40.870 -14.268   6.716  1.00  0.00    -0.247 OA
HETATM    5  H   UNL     1      43.011 -13.147   4.661  1.00  0.00     0.171 HD
HETATM    6  H   UNL     1      40.583 -11.984   6.844  1.00  0.00     0.164 HD
ENDROOT
BRANCH   1   7
HETATM    7  C   UNL     1      43.165 -15.157   5.057  1.00  0.00     0.071 A 
HETATM    8  C   UNL     1      42.900 -15.736   3.799  1.00  0.00     0.117 A 
HETATM    9  C   UNL     1      43.269 -17.067   3.545  1.00  0.00     0.069 A 
HETATM   10 CL   UNL     1      42.821 -17.887   2.091  1.00  0.00    -0.081 Cl
HETATM   11  C   UNL     1      43.991 -17.787   4.499  1.00  0.00     0.027 A 
HETATM   12  C   UNL     1      44.322 -17.191   5.713  1.00  0.00     0.004 A 
HETATM   13  C   UNL     1      43.904 -15.887   5.993  1.00  0.00     0.032 A 
BRANCH   8  14
HETATM   14  O   UNL     1      42.202 -14.986   2.880  1.00  0.00    -0.343 OA
BRANCH  14  15
HETATM   15  C   UNL     1      40.780 -15.206   2.944  1.00  0.00     0.121 C 
HETATM   16  C   UNL     1      40.299 -15.935   1.692  1.00  0.00     0.040 C 
HETATM   17  C   UNL     1      40.118 -13.834   3.037  1.00  0.00     0.040 C 
ENDBRANCH  14  15
ENDBRANCH   8  14
ENDBRANCH   1   7
BRANCH   3  18
HETATM   18  C   UNL     1      42.183 -11.054   5.802  1.00  0.00     0.183 C 
BRANCH  18  19
HETATM   19  C   UNL     1      43.491 -10.981   6.553  1.00  0.00     0.053 A 
HETATM   20  N   UNL     1      44.601 -11.365   5.872  1.00  0.00    -0.264 NA
HETATM   21  C   UNL     1      45.794 -11.256   6.497  1.00  0.00     0.118 A 
HETATM   22  C   UNL     1      45.941 -10.783   7.785  1.00  0.00     0.043 A 
HETATM   23  C   UNL     1      44.792 -10.393   8.459  1.00  0.00     0.037 A 
HETATM   24 CL   UNL     1      44.910  -9.790  10.065  1.00  0.00    -0.084 Cl
HETATM   25  C   UNL     1      43.547 -10.480   7.846  1.00  0.00     0.052 A 
ENDBRANCH  18  19
ENDBRANCH   3  18
TORSDOF 5
ENDMDL
MODEL 5
REMARK VINA RESULT:      -6.7      2.287      6.897
REMARK  5 active torsions:
REMARK  status: ('A' for Active; 'I' for Inactive)
REMARK    1  A    between atoms: C_2  and  O_3 
REMARK    2  A    between atoms: O_3  and  C_4 
REMARK    3  A    between atoms: C_10  and  N_11 
REMARK       I    between atoms: N_11  and  C_12 
REMARK       I    between atoms: C_12  and  N_13 
REMARK    4  A    between atoms: N_13  and  C_14 
REMARK    5  A    between atoms: C_14  and  C_15 
ROOT
HETATM    1  N   UNL     1      42.705 -13.149   4.898  1.00  0.00    -0.306 N 
HETATM    2  C   UNL     1      43.032 -13.158   3.571  1.00  0.00     0.321 C 
HETATM    3  N   UNL     1      42.506 -14.169   2.824  1.00  0.00    -0.337 N 
HETATM    4  O   UNL     1      43.761 -12.358   2.992  1.00  0.00    -0.247 OA
HETATM    5  H   UNL     1      41.896 -13.703   5.177  1.00  0.00     0.171 HD
HETATM    6  H   UNL     1      42.803 -14.122   1.858  1.00  0.00     0.164 HD
ENDROOT
BRANCH   1   7
HETATM    7  C   UNL     1      43.164 -12.255   5.897  1.00  0.00     0.071 A 
HETATM    8  C   UNL     1      42.373 -11.124   6.185  1.00  0.00     0.117 A 
HETATM    9  C   UNL     1      42.841 -10.147   7.079  1.00  0.00     0.069 A 
HETATM   10 CL   UNL     1      42.000  -8.660   7.342  1.00  0.00    -0.081 Cl
HETATM   11  C   UNL     1      44.042 -10.343   7.762  1.00  0.00     0.027 A 
HETATM   12  C   UNL     1      44.788 -11.497   7.538  1.00  0.00     0.004 A 
HETATM   13  C   UNL     1      44.355 -12.443   6.605  1.00  0.00     0.032 A 
BRANCH   8  14
HETATM   14  O   UNL     1      41.186 -10.979   5.503  1.00  0.00    -0.343 OA
BRANCH  14  15
HETATM   15  C   UNL     1      40.048 -11.429   6.262  1.00  0.00     0.121 C 
HETATM   16  C   UNL     1      39.419 -12.652   5.599  1.00  0.00     0.040 C 
HETATM   17  C   UNL     1      39.046 -10.278   6.293  1.00  0.00     0.040 C 
ENDBRANCH  14  15
ENDBRANCH   8  14
ENDBRANCH   1   7
BRANCH   3  18
HETATM   18  C   UNL     1      41.800 -15.352   3.270  1.00  0.00     0.183 C 
BRANCH  18  19
HETATM   19  C   UNL     1      42.732 -16.509   3.536  1.00  0.00     0.053 A 
HETATM   20  N   UNL     1      43.475 -16.437   4.670  1.00  0.00    -0.264 NA
HETATM   21  C   UNL     1      44.277 -17.484   4.967  1.00  0.00     0.118 A 
HETATM   22  C   UNL     1      44.383 -18.611   4.179  1.00  0.00     0.043 A 
HETATM   23  C   UNL     1      43.610 -18.663   3.028  1.00  0.00     0.037 A 
HETATM   24 CL   UNL     1      43.693 -20.045   2.007  1.00  0.00    -0.084 Cl
HETATM   25  C   UNL     1      42.764 -17.611   2.693  1.00  0.00     0.052 A 
ENDBRANCH  18  19
ENDBRANCH   3  18
TORSDOF 5
ENDMDL
MODEL 6
REMARK VINA RESULT:      -6.6     17.000     19.023
REMARK  5 active torsions:
REMARK  status: ('A' for Active; 'I' for Inactive)
REMARK    1  A    between atoms: C_2  and  O_3 
REMARK    2  A    between atoms: O_3  and  C_4 
REMARK    3  A    between atoms: C_10  and  N_11 
REMARK       I    between atoms: N_11  and  C_12 
REMARK       I    between atoms: C_12  and  N_13 
REMARK    4  A    between atoms: N_13  and  C_14 
REMARK    5  A    between atoms: C_14  and  C_15 
ROOT
HETATM    1  N   UNL     1      47.009 -29.944   1.470  1.00  0.00    -0.306 N 
HETATM    2  C   UNL     1      46.461 -28.693   1.403  1.00  0.00     0.321 C 
HETATM    3  N   UNL     1      45.252 -28.593   0.782  1.00  0.00    -0.337 N 
HETATM    4  O   UNL     1      46.953 -27.655   1.833  1.00  0.00    -0.247 OA
HETATM    5  H   UNL     1      46.380 -30.731   1.315  1.00  0.00     0.171 HD
HETATM    6  H   UNL     1      44.916 -27.640   0.755  1.00  0.00     0.164 HD
ENDROOT
BRANCH   1   7
HETATM    7  C   UNL     1      48.270 -30.309   2.000  1.00  0.00     0.071 A 
HETATM    8  C   UNL     1      49.238 -30.819   1.110  1.00  0.00     0.117 A 
HETATM    9  C   UNL     1      50.459 -31.307   1.602  1.00  0.00     0.069 A 
HETATM   10 CL   UNL     1      51.612 -32.100   0.586  1.00  0.00    -0.081 Cl
HETATM   11  C   UNL     1      50.761 -31.195   2.960  1.00  0.00     0.027 A 
HETATM   12  C   UNL     1      49.838 -30.621   3.830  1.00  0.00     0.004 A 
HETATM   13  C   UNL     1      48.598 -30.188   3.354  1.00  0.00     0.032 A 
BRANCH   8  14
HETATM   14  O   UNL     1      48.907 -30.895  -0.225  1.00  0.00    -0.343 OA
BRANCH  14  15
HETATM   15  C   UNL     1      49.457 -29.810  -0.997  1.00  0.00     0.121 C 
HETATM   16  C   UNL     1      48.340 -29.046  -1.705  1.00  0.00     0.040 C 
HETATM   17  C   UNL     1      50.401 -30.427  -2.025  1.00  0.00     0.040 C 
ENDBRANCH  14  15
ENDBRANCH   8  14
ENDBRANCH   1   7
BRANCH   3  18
HETATM   18  C   UNL     1      44.546 -29.593   0.008  1.00  0.00     0.183 C 
BRANCH  18  19
HETATM   19  C   UNL     1      44.616 -29.324  -1.475  1.00  0.00     0.053 A 
HETATM   20  N   UNL     1      45.019 -28.081  -1.845  1.00  0.00    -0.264 NA
HETATM   21  C   UNL     1      45.148 -27.826  -3.166  1.00  0.00     0.118 A 
HETATM   22  C   UNL     1      44.889 -28.755  -4.151  1.00  0.00     0.043 A 
HETATM   23  C   UNL     1      44.483 -30.020  -3.748  1.00  0.00     0.037 A 
HETATM   24 CL   UNL     1      44.150 -31.224  -4.931  1.00  0.00    -0.084 Cl
HETATM   25  C   UNL     1      44.348 -30.324  -2.399  1.00  0.00     0.052 A 
ENDBRANCH  18  19
ENDBRANCH   3  18
TORSDOF 5
ENDMDL
MODEL 7
REMARK VINA RESULT:      -6.4      2.015      3.249
REMARK  5 active torsions:
REMARK  status: ('A' for Active; 'I' for Inactive)
REMARK    1  A    between atoms: C_2  and  O_3 
REMARK    2  A    between atoms: O_3  and  C_4 
REMARK    3  A    between atoms: C_10  and  N_11 
REMARK       I    between atoms: N_11  and  C_12 
REMARK       I    between atoms: C_12  and  N_13 
REMARK    4  A    between atoms: N_13  and  C_14 
REMARK    5  A    between atoms: C_14  and  C_15 
ROOT
HETATM    1  N   UNL     1      42.676 -13.762   4.842  1.00  0.00    -0.306 N 
HETATM    2  C   UNL     1      42.463 -13.706   6.191  1.00  0.00     0.321 C 
HETATM    3  N   UNL     1      42.757 -12.525   6.803  1.00  0.00    -0.337 N 
HETATM    4  O   UNL     1      42.048 -14.615   6.904  1.00  0.00    -0.247 OA
HETATM    5  H   UNL     1      42.764 -12.872   4.352  1.00  0.00     0.171 HD
HETATM    6  H   UNL     1      42.591 -12.561   7.800  1.00  0.00     0.164 HD
ENDROOT
BRANCH   1   7
HETATM    7  C   UNL     1      42.514 -14.878   3.985  1.00  0.00     0.071 A 
HETATM    8  C   UNL     1      41.453 -14.849   3.056  1.00  0.00     0.117 A 
HETATM    9  C   UNL     1      41.176 -15.978   2.268  1.00  0.00     0.069 A 
HETATM   10 CL   UNL     1      39.790 -16.067   1.239  1.00  0.00    -0.081 Cl
HETATM   11  C   UNL     1      42.012 -17.094   2.328  1.00  0.00     0.027 A 
HETATM   12  C   UNL     1      43.106 -17.096   3.188  1.00  0.00     0.004 A 
HETATM   13  C   UNL     1      43.351 -15.998   4.017  1.00  0.00     0.032 A 
BRANCH   8  14
HETATM   14  O   UNL     1      40.664 -13.721   3.016  1.00  0.00    -0.343 OA
BRANCH  14  15
HETATM   15  C   UNL     1      40.873 -12.937   1.825  1.00  0.00     0.121 C 
HETATM   16  C   UNL     1      41.745 -11.723   2.136  1.00  0.00     0.040 C 
HETATM   17  C   UNL     1      39.498 -12.484   1.342  1.00  0.00     0.040 C 
ENDBRANCH  14  15
ENDBRANCH   8  14
ENDBRANCH   1   7
BRANCH   3  18
HETATM   18  C   UNL     1      43.446 -11.371   6.262  1.00  0.00     0.183 C 
BRANCH  18  19
HETATM   19  C   UNL     1      44.239 -10.634   7.315  1.00  0.00     0.053 A 
HETATM   20  N   UNL     1      45.567 -10.485   7.077  1.00  0.00    -0.264 NA
HETATM   21  C   UNL     1      46.293  -9.779   7.971  1.00  0.00     0.118 A 
HETATM   22  C   UNL     1      45.759  -9.211   9.109  1.00  0.00     0.043 A 
HETATM   23  C   UNL     1      44.398  -9.374   9.328  1.00  0.00     0.037 A 
HETATM   24 CL   UNL     1      43.672  -8.684  10.727  1.00  0.00    -0.084 Cl
HETATM   25  C   UNL     1      43.615 -10.084   8.426  1.00  0.00     0.052 A 
ENDBRANCH  18  19
ENDBRANCH   3  18
TORSDOF 5
ENDMDL
MODEL 8
REMARK VINA RESULT:      -6.4      4.478      7.146
REMARK  5 active torsions:
REMARK  status: ('A' for Active; 'I' for Inactive)
REMARK    1  A    between atoms: C_2  and  O_3 
REMARK    2  A    between atoms: O_3  and  C_4 
REMARK    3  A    between atoms: C_10  and  N_11 
REMARK       I    between atoms: N_11  and  C_12 
REMARK       I    between atoms: C_12  and  N_13 
REMARK    4  A    between atoms: N_13  and  C_14 
REMARK    5  A    between atoms: C_14  and  C_15 
ROOT
HETATM    1  N   UNL     1      41.878 -15.203   1.523  1.00  0.00    -0.306 N 
HETATM    2  C   UNL     1      40.586 -15.267   1.081  1.00  0.00     0.321 C 
HETATM    3  N   UNL     1      40.176 -14.262   0.258  1.00  0.00    -0.337 N 
HETATM    4  O   UNL     1      39.759 -16.129   1.363  1.00  0.00    -0.247 OA
HETATM    5  H   UNL     1      42.512 -14.594   1.006  1.00  0.00     0.171 HD
HETATM    6  H   UNL     1      39.208 -14.366  -0.016  1.00  0.00     0.164 HD
ENDROOT
BRANCH   1   7
HETATM    7  C   UNL     1      42.528 -16.076   2.429  1.00  0.00     0.071 A 
HETATM    8  C   UNL     1      42.792 -15.601   3.730  1.00  0.00     0.117 A 
HETATM    9  C   UNL     1      43.540 -16.382   4.626  1.00  0.00     0.069 A 
HETATM   10 CL   UNL     1      44.043 -15.787   6.169  1.00  0.00    -0.081 Cl
HETATM   11  C   UNL     1      43.935 -17.672   4.269  1.00  0.00     0.027 A 
HETATM   12  C   UNL     1      43.608 -18.174   3.012  1.00  0.00     0.004 A 
HETATM   13  C   UNL     1      42.916 -17.377   2.095  1.00  0.00     0.032 A 
BRANCH   8  14
HETATM   14  O   UNL     1      42.369 -14.330   4.049  1.00  0.00    -0.343 OA
BRANCH  14  15
HETATM   15  C   UNL     1      41.085 -14.318   4.703  1.00  0.00     0.121 C 
HETATM   16  C   UNL     1      40.137 -13.355   3.991  1.00  0.00     0.040 C 
HETATM   17  C   UNL     1      41.319 -13.856   6.138  1.00  0.00     0.040 C 
ENDBRANCH  14  15
ENDBRANCH   8  14
ENDBRANCH   1   7
BRANCH   3  18
HETATM   18  C   UNL     1      40.854 -13.025  -0.070  1.00  0.00     0.183 C 
BRANCH  18  19
HETATM   19  C   UNL     1      40.166 -12.273  -1.183  1.00  0.00     0.053 A 
HETATM   20  N   UNL     1      38.825 -12.455  -1.296  1.00  0.00    -0.264 NA
HETATM   21  C   UNL     1      38.170 -11.750  -2.245  1.00  0.00     0.118 A 
HETATM   22  C   UNL     1      38.790 -10.866  -3.103  1.00  0.00     0.043 A 
HETATM   23  C   UNL     1      40.161 -10.695  -2.965  1.00  0.00     0.037 A 
HETATM   24 CL   UNL     1      40.991  -9.601  -4.003  1.00  0.00    -0.084 Cl
HETATM   25  C   UNL     1      40.868 -11.392  -1.993  1.00  0.00     0.052 A 
ENDBRANCH  18  19
ENDBRANCH   3  18
TORSDOF 5
ENDMDL
MODEL 9
REMARK VINA RESULT:      -6.3      3.871      6.659
REMARK  5 active torsions:
REMARK  status: ('A' for Active; 'I' for Inactive)
REMARK    1  A    between atoms: C_2  and  O_3 
REMARK    2  A    between atoms: O_3  and  C_4 
REMARK    3  A    between atoms: C_10  and  N_11 
REMARK       I    between atoms: N_11  and  C_12 
REMARK       I    between atoms: C_12  and  N_13 
REMARK    4  A    between atoms: N_13  and  C_14 
REMARK    5  A    between atoms: C_14  and  C_15 
ROOT
HETATM    1  N   UNL     1      41.319 -14.063   2.800  1.00  0.00    -0.306 N 
HETATM    2  C   UNL     1      40.007 -13.738   2.593  1.00  0.00     0.321 C 
HETATM    3  N   UNL     1      39.480 -14.087   1.386  1.00  0.00    -0.337 N 
HETATM    4  O   UNL     1      39.266 -13.154   3.377  1.00  0.00    -0.247 OA
HETATM    5  H   UNL     1      41.722 -14.767   2.184  1.00  0.00     0.171 HD
HETATM    6  H   UNL     1      38.514 -13.802   1.296  1.00  0.00     0.164 HD
ENDROOT
BRANCH   1   7
HETATM    7  C   UNL     1      42.118 -13.760   3.931  1.00  0.00     0.071 A 
HETATM    8  C   UNL     1      42.621 -14.836   4.691  1.00  0.00     0.117 A 
HETATM    9  C   UNL     1      43.316 -14.589   5.886  1.00  0.00     0.069 A 
HETATM   10 CL   UNL     1      43.805 -15.863   6.947  1.00  0.00    -0.081 Cl
HETATM   11  C   UNL     1      43.600 -13.279   6.272  1.00  0.00     0.027 A 
HETATM   12  C   UNL     1      43.171 -12.215   5.482  1.00  0.00     0.004 A 
HETATM   13  C   UNL     1      42.428 -12.455   4.323  1.00  0.00     0.032 A 
BRANCH   8  14
HETATM   14  O   UNL     1      42.334 -16.114   4.265  1.00  0.00    -0.343 OA
BRANCH  14  15
HETATM   15  C   UNL     1      43.425 -16.719   3.545  1.00  0.00     0.121 C 
HETATM   16  C   UNL     1      43.048 -16.917   2.079  1.00  0.00     0.040 C 
HETATM   17  C   UNL     1      43.699 -18.070   4.201  1.00  0.00     0.040 C 
ENDBRANCH  14  15
ENDBRANCH   8  14
ENDBRANCH   1   7
BRANCH   3  18
HETATM   18  C   UNL     1      40.162 -14.586   0.209  1.00  0.00     0.183 C 
BRANCH  18  19
HETATM   19  C   UNL     1      40.237 -13.552  -0.889  1.00  0.00     0.053 A 
HETATM   20  N   UNL     1      39.558 -13.834  -2.030  1.00  0.00    -0.264 NA
HETATM   21  C   UNL     1      39.557 -12.903  -3.010  1.00  0.00     0.118 A 
HETATM   22  C   UNL     1      40.210 -11.692  -2.913  1.00  0.00     0.043 A 
HETATM   23  C   UNL     1      40.893 -11.426  -1.734  1.00  0.00     0.037 A 
HETATM   24 CL   UNL     1      41.723  -9.930  -1.550  1.00  0.00    -0.084 Cl
HETATM   25  C   UNL     1      40.909 -12.353  -0.699  1.00  0.00     0.052 A 
ENDBRANCH  18  19
ENDBRANCH   3  18
TORSDOF 5
ENDMDL
MODEL 10
REMARK VINA RESULT:      -6.0      4.026      6.537
REMARK  5 active torsions:
REMARK  status: ('A' for Active; 'I' for Inactive)
REMARK    1  A    between atoms: C_2  and  O_3 
REMARK    2  A    between atoms: O_3  and  C_4 
REMARK    3  A    between atoms: C_10  and  N_11 
REMARK       I    between atoms: N_11  and  C_12 
REMARK       I    between atoms: C_12  and  N_13 
REMARK    4  A    between atoms: N_13  and  C_14 
REMARK    5  A    between atoms: C_14  and  C_15 
ROOT
HETATM    1  N   UNL     1      41.652 -13.730   0.837  1.00  0.00    -0.306 N 
HETATM    2  C   UNL     1      40.958 -14.899   0.979  1.00  0.00     0.321 C 
HETATM    3  N   UNL     1      41.656 -15.964   1.462  1.00  0.00    -0.337 N 
HETATM    4  O   UNL     1      39.776 -15.086   0.703  1.00  0.00    -0.247 OA
HETATM    5  H   UNL     1      42.532 -13.652   1.346  1.00  0.00     0.171 HD
HETATM    6  H   UNL     1      41.085 -16.796   1.526  1.00  0.00     0.164 HD
ENDROOT
BRANCH   1   7
HETATM    7  C   UNL     1      41.185 -12.505   0.302  1.00  0.00     0.071 A 
HETATM    8  C   UNL     1      40.959 -11.438   1.195  1.00  0.00     0.117 A 
HETATM    9  C   UNL     1      40.383 -10.243   0.734  1.00  0.00     0.069 A 
HETATM   10 CL   UNL     1      39.924  -8.967   1.806  1.00  0.00    -0.081 Cl
HETATM   11  C   UNL     1      40.128 -10.070  -0.627  1.00  0.00     0.027 A 
HETATM   12  C   UNL     1      40.422 -11.094  -1.524  1.00  0.00     0.004 A 
HETATM   13  C   UNL     1      40.939 -12.306  -1.060  1.00  0.00     0.032 A 
BRANCH   8  14
HETATM   14  O   UNL     1      41.243 -11.643   2.527  1.00  0.00    -0.343 OA
BRANCH  14  15
HETATM   15  C   UNL     1      42.501 -11.065   2.925  1.00  0.00     0.121 C 
HETATM   16  C   UNL     1      43.502 -12.163   3.274  1.00  0.00     0.040 C 
HETATM   17  C   UNL     1      42.227 -10.198   4.151  1.00  0.00     0.040 C 
ENDBRANCH  14  15
ENDBRANCH   8  14
ENDBRANCH   1   7
BRANCH   3  18
HETATM   18  C   UNL     1      43.084 -16.093   1.670  1.00  0.00     0.183 C 
BRANCH  18  19
HETATM   19  C   UNL     1      43.415 -16.645   3.035  1.00  0.00     0.053 A 
HETATM   20  N   UNL     1      43.348 -15.772   4.073  1.00  0.00    -0.264 NA
HETATM   21  C   UNL     1      43.581 -16.249   5.316  1.00  0.00     0.118 A 
HETATM   22  C   UNL     1      43.889 -17.567   5.582  1.00  0.00     0.043 A 
HETATM   23  C   UNL     1      43.948 -18.441   4.505  1.00  0.00     0.037 A 
HETATM   24 CL   UNL     1      44.321 -20.099   4.773  1.00  0.00    -0.084 Cl
HETATM   25  C   UNL     1      43.702 -17.991   3.213  1.00  0.00     0.052 A 
ENDBRANCH  18  19
ENDBRANCH   3  18
TORSDOF 5
ENDMDL
