MODEL 1
REMARK VINA RESULT:      -9.0      0.000      0.000
REMARK  6 active torsions:
REMARK  status: ('A' for Active; 'I' for Inactive)
REMARK    1  A    between atoms: C_6  and  C_7 
REMARK    2  A    between atoms: C_7  and  N_8 
REMARK    3  A    between atoms: C_12  and  C_13 
REMARK    4  A    between atoms: C_13  and  C_14 
REMARK    5  A    between atoms: N_23  and  C_24 
REMARK    6  A    between atoms: C_24  and  C_25 
ROOT
HETATM    1  C   UNL     1      42.373 -10.899   6.365  1.00  0.00     0.164 C 
HETATM    2  N   UNL     1      41.332 -11.824   6.773  1.00  0.00    -0.319 N 
HETATM    3  C   UNL     1      40.208 -11.715   5.980  1.00  0.00     0.326 C 
HETATM    4  O   UNL     1      39.178 -12.317   6.226  1.00  0.00    -0.247 OA
HETATM    5  N   UNL     1      40.466 -10.857   4.961  1.00  0.00    -0.265 N 
HETATM    6  C   UNL     1      41.657 -10.216   5.172  1.00  0.00     0.263 C 
HETATM    7  O   UNL     1      42.101  -9.289   4.511  1.00  0.00    -0.270 OA
HETATM    8  H   UNL     1      41.182 -12.109   7.734  1.00  0.00     0.166 HD
ENDROOT
BRANCH   1   9
HETATM    9  C   UNL     1      43.647 -11.656   5.807  1.00  0.00     0.033 C 
HETATM   10  C   UNL     1      43.497 -12.251   4.385  1.00  0.00     0.036 C 
HETATM   11  C   UNL     1      42.653 -13.521   4.306  1.00  0.00     0.235 C 
HETATM   12  N   UNL     1      43.204 -14.569   5.247  1.00  0.00    -0.067 N 
HETATM   13  H   UNL     1      44.118 -14.844   4.868  1.00  0.00     0.280 HD
HETATM   14  C   UNL     1      43.414 -14.074   6.656  1.00  0.00     0.235 C 
HETATM   15  C   UNL     1      44.219 -12.789   6.685  1.00  0.00     0.036 C 
BRANCH  12  16
HETATM   16  C   UNL     1      42.364 -15.842   5.296  1.00  0.00     0.273 C 
BRANCH  16  17
HETATM   17  C   UNL     1      42.776 -16.962   4.376  1.00  0.00    -0.027 A 
HETATM   18  C   UNL     1      42.216 -17.106   3.086  1.00  0.00    -0.054 A 
HETATM   19  C   UNL     1      42.630 -18.173   2.271  1.00  0.00     0.014 A 
HETATM   20  C   UNL     1      41.170 -16.165   2.544  1.00  0.00     0.049 C 
HETATM   21  C   UNL     1      43.572 -19.106   2.716  1.00  0.00    -0.061 A 
HETATM   22  C   UNL     1      44.006 -20.222   1.810  1.00  0.00     0.048 C 
HETATM   23  C   UNL     1      44.121 -18.959   3.990  1.00  0.00     0.007 A 
HETATM   24  C   UNL     1      43.721 -17.906   4.816  1.00  0.00     0.010 A 
ENDBRANCH  16  17
ENDBRANCH  12  16
ENDBRANCH   1   9
BRANCH   1  25
HETATM   25  C   UNL     1      42.636  -9.868   7.468  1.00  0.00     0.072 A 
HETATM   26  N   UNL     1      41.566  -9.329   8.104  1.00  0.00    -0.262 NA
HETATM   27  C   UNL     1      41.792  -8.395   9.058  1.00  0.00     0.117 A 
HETATM   28  C   UNL     1      43.048  -7.934   9.401  1.00  0.00     0.019 A 
HETATM   29  C   UNL     1      44.141  -8.466   8.734  1.00  0.00     0.003 A 
HETATM   30  C   UNL     1      43.938  -9.441   7.759  1.00  0.00     0.030 A 
ENDBRANCH   1  25
BRANCH   5  31
HETATM   31  C   UNL     1      39.534 -10.546   3.886  1.00  0.00     0.168 C 
BRANCH  31  32
HETATM   32  C   UNL     1      39.558 -11.603   2.777  1.00  0.00     0.140 C 
HETATM   33  O   UNL     1      38.393 -11.492   1.927  1.00  0.00    -0.384 OA
HETATM   34  C   UNL     1      38.772 -11.955   0.615  1.00  0.00     0.168 C 
HETATM   35  C   UNL     1      40.255 -12.273   0.651  1.00  0.00     0.029 C 
HETATM   36  C   UNL     1      40.739 -11.470   1.833  1.00  0.00     0.036 C 
ENDBRANCH  31  32
ENDBRANCH   5  31
TORSDOF 6
ENDMDL
MODEL 2
REMARK VINA RESULT:      -8.8      2.122      7.595
REMARK  6 active torsions:
REMARK  status: ('A' for Active; 'I' for Inactive)
REMARK    1  A    between atoms: C_6  and  C_7 
REMARK    2  A    between atoms: C_7  and  N_8 
REMARK    3  A    between atoms: C_12  and  C_13 
REMARK    4  A    between atoms: C_13  and  C_14 
REMARK    5  A    between atoms: N_23  and  C_24 
REMARK    6  A    between atoms: C_24  and  C_25 
ROOT
HETATM    1  C   UNL     1      42.029 -15.231   4.121  1.00  0.00     0.164 C 
HETATM    2  N   UNL     1      42.860 -14.128   3.673  1.00  0.00    -0.319 N 
HETATM    3  C   UNL     1      42.280 -13.439   2.628  1.00  0.00     0.326 C 
HETATM    4  O   UNL     1      42.865 -12.554   2.029  1.00  0.00    -0.247 OA
HETATM    5  N   UNL     1      41.030 -13.922   2.417  1.00  0.00    -0.265 N 
HETATM    6  C   UNL     1      40.837 -15.066   3.145  1.00  0.00     0.263 C 
HETATM    7  O   UNL     1      39.872 -15.812   3.067  1.00  0.00    -0.270 OA
HETATM    8  H   UNL     1      43.873 -14.147   3.696  1.00  0.00     0.166 HD
ENDROOT
BRANCH   1   9
HETATM    9  C   UNL     1      41.494 -15.003   5.593  1.00  0.00     0.033 C 
HETATM   10  C   UNL     1      40.489 -13.837   5.763  1.00  0.00     0.036 C 
HETATM   11  C   UNL     1      41.110 -12.443   5.726  1.00  0.00     0.235 C 
HETATM   12  N   UNL     1      42.203 -12.334   6.765  1.00  0.00    -0.067 N 
HETATM   13  H   UNL     1      41.738 -12.384   7.678  1.00  0.00     0.280 HD
HETATM   14  C   UNL     1      43.220 -13.447   6.699  1.00  0.00     0.235 C 
HETATM   15  C   UNL     1      42.558 -14.812   6.695  1.00  0.00     0.036 C 
BRANCH  12  16
HETATM   16  C   UNL     1      42.939 -10.997   6.734  1.00  0.00     0.273 C 
BRANCH  16  17
HETATM   17  C   UNL     1      43.159 -10.315   8.059  1.00  0.00    -0.027 A 
HETATM   18  C   UNL     1      44.441 -10.237   8.650  1.00  0.00    -0.054 A 
HETATM   19  C   UNL     1      44.590  -9.597   9.892  1.00  0.00     0.014 A 
HETATM   20  C   UNL     1      45.670 -10.831   8.008  1.00  0.00     0.049 C 
HETATM   21  C   UNL     1      43.493  -9.050  10.564  1.00  0.00    -0.061 A 
HETATM   22  C   UNL     1      43.692  -8.354  11.880  1.00  0.00     0.048 C 
HETATM   23  C   UNL     1      42.230  -9.129   9.977  1.00  0.00     0.007 A 
HETATM   24  C   UNL     1      42.061  -9.764   8.745  1.00  0.00     0.010 A 
ENDBRANCH  16  17
ENDBRANCH  12  16
ENDBRANCH   1   9
BRANCH   1  25
HETATM   25  C   UNL     1      42.728 -16.570   3.861  1.00  0.00     0.072 A 
HETATM   26  N   UNL     1      43.464 -17.108   4.863  1.00  0.00    -0.262 NA
HETATM   27  C   UNL     1      44.110 -18.276   4.627  1.00  0.00     0.117 A 
HETATM   28  C   UNL     1      44.087 -18.935   3.414  1.00  0.00     0.019 A 
HETATM   29  C   UNL     1      43.355 -18.372   2.381  1.00  0.00     0.003 A 
HETATM   30  C   UNL     1      42.669 -17.179   2.601  1.00  0.00     0.030 A 
ENDBRANCH   1  25
BRANCH   5  31
HETATM   31  C   UNL     1      40.093 -13.393   1.437  1.00  0.00     0.168 C 
BRANCH  31  32
HETATM   32  C   UNL     1      40.439 -13.835   0.010  1.00  0.00     0.140 C 
HETATM   33  O   UNL     1      39.448 -14.754  -0.504  1.00  0.00    -0.384 OA
HETATM   34  C   UNL     1      39.407 -14.586  -1.936  1.00  0.00     0.168 C 
HETATM   35  C   UNL     1      40.350 -13.451  -2.292  1.00  0.00     0.029 C 
HETATM   36  C   UNL     1      40.466 -12.695  -0.991  1.00  0.00     0.036 C 
ENDBRANCH  31  32
ENDBRANCH   5  31
TORSDOF 6
ENDMDL
MODEL 3
REMARK VINA RESULT:      -8.5      2.107      4.639
REMARK  6 active torsions:
REMARK  status: ('A' for Active; 'I' for Inactive)
REMARK    1  A    between atoms: C_6  and  C_7 
REMARK    2  A    between atoms: C_7  and  N_8 
REMARK    3  A    between atoms: C_12  and  C_13 
REMARK    4  A    between atoms: C_13  and  C_14 
REMARK    5  A    between atoms: N_23  and  C_24 
REMARK    6  A    between atoms: C_24  and  C_25 
ROOT
HETATM    1  C   UNL     1      41.017 -11.064   5.054  1.00  0.00     0.164 C 
HETATM    2  N   UNL     1      39.868 -11.679   5.695  1.00  0.00    -0.319 N 
HETATM    3  C   UNL     1      39.163 -10.776   6.462  1.00  0.00     0.326 C 
HETATM    4  O   UNL     1      38.235 -11.114   7.175  1.00  0.00    -0.247 OA
HETATM    5  N   UNL     1      39.683  -9.536   6.279  1.00  0.00    -0.265 N 
HETATM    6  C   UNL     1      40.860  -9.616   5.583  1.00  0.00     0.263 C 
HETATM    7  O   UNL     1      41.637  -8.696   5.378  1.00  0.00    -0.270 OA
HETATM    8  H   UNL     1      39.850 -12.645   6.002  1.00  0.00     0.166 HD
ENDROOT
BRANCH   1   9
HETATM    9  C   UNL     1      40.864 -11.032   3.479  1.00  0.00     0.033 C 
HETATM   10  C   UNL     1      39.529 -11.592   2.928  1.00  0.00     0.036 C 
HETATM   11  C   UNL     1      39.411 -13.114   2.953  1.00  0.00     0.235 C 
HETATM   12  N   UNL     1      40.573 -13.735   2.212  1.00  0.00    -0.067 N 
HETATM   13  H   UNL     1      40.452 -13.485   1.224  1.00  0.00     0.280 HD
HETATM   14  C   UNL     1      41.923 -13.230   2.659  1.00  0.00     0.235 C 
HETATM   15  C   UNL     1      41.981 -11.714   2.661  1.00  0.00     0.036 C 
BRANCH  12  16
HETATM   16  C   UNL     1      40.581 -15.261   2.266  1.00  0.00     0.273 C 
BRANCH  16  17
HETATM   17  C   UNL     1      41.332 -15.894   3.408  1.00  0.00    -0.027 A 
HETATM   18  C   UNL     1      42.596 -16.499   3.221  1.00  0.00    -0.054 A 
HETATM   19  C   UNL     1      43.250 -17.083   4.318  1.00  0.00     0.014 A 
HETATM   20  C   UNL     1      43.277 -16.560   1.876  1.00  0.00     0.049 C 
HETATM   21  C   UNL     1      42.668 -17.094   5.590  1.00  0.00    -0.061 A 
HETATM   22  C   UNL     1      43.405 -17.709   6.744  1.00  0.00     0.048 C 
HETATM   23  C   UNL     1      41.421 -16.497   5.769  1.00  0.00     0.007 A 
HETATM   24  C   UNL     1      40.753 -15.914   4.690  1.00  0.00     0.010 A 
ENDBRANCH  16  17
ENDBRANCH  12  16
ENDBRANCH   1   9
BRANCH   1  25
HETATM   25  C   UNL     1      42.318 -11.671   5.590  1.00  0.00     0.072 A 
HETATM   26  N   UNL     1      43.463 -10.964   5.430  1.00  0.00    -0.262 NA
HETATM   27  C   UNL     1      44.621 -11.511   5.874  1.00  0.00     0.117 A 
HETATM   28  C   UNL     1      44.708 -12.762   6.453  1.00  0.00     0.019 A 
HETATM   29  C   UNL     1      43.540 -13.496   6.594  1.00  0.00     0.003 A 
HETATM   30  C   UNL     1      42.334 -12.951   6.160  1.00  0.00     0.030 A 
ENDBRANCH   1  25
BRANCH   5  31
HETATM   31  C   UNL     1      39.153  -8.320   6.877  1.00  0.00     0.168 C 
BRANCH  31  32
HETATM   32  C   UNL     1      39.585  -8.159   8.338  1.00  0.00     0.140 C 
HETATM   33  O   UNL     1      38.593  -8.706   9.237  1.00  0.00    -0.384 OA
HETATM   34  C   UNL     1      39.286  -9.158  10.419  1.00  0.00     0.168 C 
HETATM   35  C   UNL     1      40.771  -8.957  10.185  1.00  0.00     0.029 C 
HETATM   36  C   UNL     1      40.866  -8.897   8.680  1.00  0.00     0.036 C 
ENDBRANCH  31  32
ENDBRANCH   5  31
TORSDOF 6
ENDMDL
MODEL 4
REMARK VINA RESULT:      -8.4      2.440      6.195
REMARK  6 active torsions:
REMARK  status: ('A' for Active; 'I' for Inactive)
REMARK    1  A    between atoms: C_6  and  C_7 
REMARK    2  A    between atoms: C_7  and  N_8 
REMARK    3  A    between atoms: C_12  and  C_13 
REMARK    4  A    between atoms: C_13  and  C_14 
REMARK    5  A    between atoms: N_23  and  C_24 
REMARK    6  A    between atoms: C_24  and  C_25 
ROOT
HETATM    1  C   UNL     1      42.098 -12.280   4.612  1.00  0.00     0.164 C 
HETATM    2  N   UNL     1      42.709 -12.459   3.307  1.00  0.00    -0.319 N 
HETATM    3  C   UNL     1      42.752 -13.787   2.938  1.00  0.00     0.326 C 
HETATM    4  O   UNL     1      43.330 -14.163   1.934  1.00  0.00    -0.247 OA
HETATM    5  N   UNL     1      42.081 -14.525   3.856  1.00  0.00    -0.265 N 
HETATM    6  C   UNL     1      41.779 -13.758   4.950  1.00  0.00     0.263 C 
HETATM    7  O   UNL     1      41.303 -14.161   6.001  1.00  0.00    -0.270 OA
HETATM    8  H   UNL     1      43.450 -11.866   2.951  1.00  0.00     0.166 HD
ENDROOT
BRANCH   1   9
HETATM    9  C   UNL     1      40.729 -11.491   4.517  1.00  0.00     0.033 C 
HETATM   10  C   UNL     1      39.609 -12.195   3.712  1.00  0.00     0.036 C 
HETATM   11  C   UNL     1      39.787 -12.158   2.196  1.00  0.00     0.235 C 
HETATM   12  N   UNL     1      39.935 -10.728   1.727  1.00  0.00    -0.067 N 
HETATM   13  H   UNL     1      39.029 -10.276   1.890  1.00  0.00     0.280 HD
HETATM   14  C   UNL     1      40.988  -9.947   2.474  1.00  0.00     0.235 C 
HETATM   15  C   UNL     1      40.799 -10.046   3.976  1.00  0.00     0.036 C 
BRANCH  12  16
HETATM   16  C   UNL     1      40.208 -10.607   0.230  1.00  0.00     0.273 C 
BRANCH  16  17
HETATM   17  C   UNL     1      39.703 -11.726  -0.643  1.00  0.00    -0.027 A 
HETATM   18  C   UNL     1      38.350 -11.800  -1.047  1.00  0.00    -0.054 A 
HETATM   19  C   UNL     1      37.929 -12.869  -1.854  1.00  0.00     0.014 A 
HETATM   20  C   UNL     1      37.321 -10.778  -0.632  1.00  0.00     0.049 C 
HETATM   21  C   UNL     1      38.817 -13.873  -2.253  1.00  0.00    -0.061 A 
HETATM   22  C   UNL     1      38.337 -14.991  -3.134  1.00  0.00     0.048 C 
HETATM   23  C   UNL     1      40.151 -13.796  -1.852  1.00  0.00     0.007 A 
HETATM   24  C   UNL     1      40.588 -12.742  -1.047  1.00  0.00     0.010 A 
ENDBRANCH  16  17
ENDBRANCH  12  16
ENDBRANCH   1   9
BRANCH   1  25
HETATM   25  C   UNL     1      43.121 -11.731   5.613  1.00  0.00     0.072 A 
HETATM   26  N   UNL     1      42.655 -11.147   6.744  1.00  0.00    -0.262 NA
HETATM   27  C   UNL     1      43.555 -10.632   7.616  1.00  0.00     0.117 A 
HETATM   28  C   UNL     1      44.920 -10.639   7.406  1.00  0.00     0.019 A 
HETATM   29  C   UNL     1      45.396 -11.214   6.237  1.00  0.00     0.003 A 
HETATM   30  C   UNL     1      44.493 -11.765   5.331  1.00  0.00     0.030 A 
ENDBRANCH   1  25
BRANCH   5  31
HETATM   31  C   UNL     1      41.860 -15.961   3.762  1.00  0.00     0.168 C 
BRANCH  31  32
HETATM   32  C   UNL     1      43.157 -16.758   3.939  1.00  0.00     0.140 C 
HETATM   33  O   UNL     1      43.181 -17.436   5.216  1.00  0.00    -0.384 OA
HETATM   34  C   UNL     1      43.977 -18.628   5.056  1.00  0.00     0.168 C 
HETATM   35  C   UNL     1      44.375 -18.720   3.594  1.00  0.00     0.029 C 
HETATM   36  C   UNL     1      43.340 -17.860   2.913  1.00  0.00     0.036 C 
ENDBRANCH  31  32
ENDBRANCH   5  31
TORSDOF 6
ENDMDL
MODEL 5
REMARK VINA RESULT:      -8.3      2.121      5.441
REMARK  6 active torsions:
REMARK  status: ('A' for Active; 'I' for Inactive)
REMARK    1  A    between atoms: C_6  and  C_7 
REMARK    2  A    between atoms: C_7  and  N_8 
REMARK    3  A    between atoms: C_12  and  C_13 
REMARK    4  A    between atoms: C_13  and  C_14 
REMARK    5  A    between atoms: N_23  and  C_24 
REMARK    6  A    between atoms: C_24  and  C_25 
ROOT
HETATM    1  C   UNL     1      41.752 -11.137   5.793  1.00  0.00     0.164 C 
HETATM    2  N   UNL     1      40.349 -10.782   5.916  1.00  0.00    -0.319 N 
HETATM    3  C   UNL     1      40.120  -9.967   7.005  1.00  0.00     0.326 C 
HETATM    4  O   UNL     1      38.997  -9.652   7.355  1.00  0.00    -0.247 OA
HETATM    5  N   UNL     1      41.308  -9.629   7.566  1.00  0.00    -0.265 N 
HETATM    6  C   UNL     1      42.318 -10.375   7.017  1.00  0.00     0.263 C 
HETATM    7  O   UNL     1      43.478 -10.406   7.401  1.00  0.00    -0.270 OA
HETATM    8  H   UNL     1      39.591 -11.396   5.642  1.00  0.00     0.166 HD
ENDROOT
BRANCH   1   9
HETATM    9  C   UNL     1      42.401 -10.523   4.487  1.00  0.00     0.033 C 
HETATM   10  C   UNL     1      41.400 -10.068   3.396  1.00  0.00     0.036 C 
HETATM   11  C   UNL     1      40.761 -11.202   2.598  1.00  0.00     0.235 C 
HETATM   12  N   UNL     1      41.834 -12.070   1.981  1.00  0.00    -0.067 N 
HETATM   13  H   UNL     1      42.302 -11.491   1.274  1.00  0.00     0.280 HD
HETATM   14  C   UNL     1      42.877 -12.541   2.963  1.00  0.00     0.235 C 
HETATM   15  C   UNL     1      43.455 -11.390   3.764  1.00  0.00     0.036 C 
BRANCH  12  16
HETATM   16  C   UNL     1      41.279 -13.282   1.237  1.00  0.00     0.273 C 
BRANCH  16  17
HETATM   17  C   UNL     1      41.809 -14.631   1.651  1.00  0.00    -0.027 A 
HETATM   18  C   UNL     1      40.968 -15.617   2.216  1.00  0.00    -0.054 A 
HETATM   19  C   UNL     1      41.515 -16.855   2.593  1.00  0.00     0.014 A 
HETATM   20  C   UNL     1      39.495 -15.393   2.451  1.00  0.00     0.049 C 
HETATM   21  C   UNL     1      42.878 -17.126   2.436  1.00  0.00    -0.061 A 
HETATM   22  C   UNL     1      43.424 -18.468   2.830  1.00  0.00     0.048 C 
HETATM   23  C   UNL     1      43.703 -16.150   1.878  1.00  0.00     0.007 A 
HETATM   24  C   UNL     1      43.179 -14.911   1.501  1.00  0.00     0.010 A 
ENDBRANCH  16  17
ENDBRANCH  12  16
ENDBRANCH   1   9
BRANCH   1  25
HETATM   25  C   UNL     1      41.941 -12.646   5.991  1.00  0.00     0.072 A 
HETATM   26  N   UNL     1      43.151 -13.084   6.419  1.00  0.00    -0.262 NA
HETATM   27  C   UNL     1      43.333 -14.418   6.565  1.00  0.00     0.117 A 
HETATM   28  C   UNL     1      42.367 -15.362   6.275  1.00  0.00     0.019 A 
HETATM   29  C   UNL     1      41.139 -14.916   5.814  1.00  0.00     0.003 A 
HETATM   30  C   UNL     1      40.919 -13.548   5.669  1.00  0.00     0.030 A 
ENDBRANCH   1  25
BRANCH   5  31
HETATM   31  C   UNL     1      41.463  -8.726   8.696  1.00  0.00     0.168 C 
BRANCH  31  32
HETATM   32  C   UNL     1      41.266  -9.441  10.038  1.00  0.00     0.140 C 
HETATM   33  O   UNL     1      42.528  -9.910  10.566  1.00  0.00    -0.384 OA
HETATM   34  C   UNL     1      42.417  -9.915  12.005  1.00  0.00     0.168 C 
HETATM   35  C   UNL     1      41.060  -9.337  12.362  1.00  0.00     0.029 C 
HETATM   36  C   UNL     1      40.698  -8.550  11.126  1.00  0.00     0.036 C 
ENDBRANCH  31  32
ENDBRANCH   5  31
TORSDOF 6
ENDMDL
MODEL 6
REMARK VINA RESULT:      -8.2      2.370      4.526
REMARK  6 active torsions:
REMARK  status: ('A' for Active; 'I' for Inactive)
REMARK    1  A    between atoms: C_6  and  C_7 
REMARK    2  A    between atoms: C_7  and  N_8 
REMARK    3  A    between atoms: C_12  and  C_13 
REMARK    4  A    between atoms: C_13  and  C_14 
REMARK    5  A    between atoms: N_23  and  C_24 
REMARK    6  A    between atoms: C_24  and  C_25 
ROOT
HETATM    1  C   UNL     1      42.328  -9.733   7.231  1.00  0.00     0.164 C 
HETATM    2  N   UNL     1      41.130 -10.420   7.679  1.00  0.00    -0.319 N 
HETATM    3  C   UNL     1      40.052  -9.565   7.768  1.00  0.00     0.326 C 
HETATM    4  O   UNL     1      38.983  -9.915   8.237  1.00  0.00    -0.247 OA
HETATM    5  N   UNL     1      40.405  -8.351   7.277  1.00  0.00    -0.265 N 
HETATM    6  C   UNL     1      41.757  -8.302   7.066  1.00  0.00     0.263 C 
HETATM    7  O   UNL     1      42.401  -7.309   6.761  1.00  0.00    -0.270 OA
HETATM    8  H   UNL     1      41.142 -11.202   8.323  1.00  0.00     0.166 HD
ENDROOT
BRANCH   1   9
HETATM    9  C   UNL     1      42.801 -10.242   5.809  1.00  0.00     0.033 C 
HETATM   10  C   UNL     1      41.693 -10.867   4.924  1.00  0.00     0.036 C 
HETATM   11  C   UNL     1      41.262 -12.273   5.333  1.00  0.00     0.235 C 
HETATM   12  N   UNL     1      42.463 -13.191   5.378  1.00  0.00    -0.067 N 
HETATM   13  H   UNL     1      42.784 -13.293   4.409  1.00  0.00     0.280 HD
HETATM   14  C   UNL     1      43.611 -12.654   6.196  1.00  0.00     0.235 C 
HETATM   15  C   UNL     1      43.978 -11.240   5.786  1.00  0.00     0.036 C 
BRANCH  12  16
HETATM   16  C   UNL     1      42.132 -14.599   5.867  1.00  0.00     0.273 C 
BRANCH  16  17
HETATM   17  C   UNL     1      42.488 -15.736   4.945  1.00  0.00    -0.027 A 
HETATM   18  C   UNL     1      43.598 -16.575   5.195  1.00  0.00    -0.054 A 
HETATM   19  C   UNL     1      43.891 -17.616   4.299  1.00  0.00     0.014 A 
HETATM   20  C   UNL     1      44.503 -16.392   6.388  1.00  0.00     0.049 C 
HETATM   21  C   UNL     1      43.117 -17.830   3.154  1.00  0.00    -0.061 A 
HETATM   22  C   UNL     1      43.447 -18.965   2.229  1.00  0.00     0.048 C 
HETATM   23  C   UNL     1      42.023 -16.999   2.911  1.00  0.00     0.007 A 
HETATM   24  C   UNL     1      41.718 -15.957   3.788  1.00  0.00     0.010 A 
ENDBRANCH  16  17
ENDBRANCH  12  16
ENDBRANCH   1   9
BRANCH   1  25
HETATM   25  C   UNL     1      43.393  -9.739   8.334  1.00  0.00     0.072 A 
HETATM   26  N   UNL     1      43.063 -10.273   9.535  1.00  0.00    -0.262 NA
HETATM   27  C   UNL     1      43.990 -10.252  10.522  1.00  0.00     0.117 A 
HETATM   28  C   UNL     1      45.245  -9.691  10.386  1.00  0.00     0.019 A 
HETATM   29  C   UNL     1      45.575  -9.123   9.165  1.00  0.00     0.003 A 
HETATM   30  C   UNL     1      44.645  -9.145   8.128  1.00  0.00     0.030 A 
ENDBRANCH   1  25
BRANCH   5  31
HETATM   31  C   UNL     1      39.503  -7.216   7.149  1.00  0.00     0.168 C 
BRANCH  31  32
HETATM   32  C   UNL     1      39.067  -6.668   8.513  1.00  0.00     0.140 C 
HETATM   33  O   UNL     1      40.212  -6.370   9.344  1.00  0.00    -0.384 OA
HETATM   34  C   UNL     1      39.836  -5.290  10.223  1.00  0.00     0.168 C 
HETATM   35  C   UNL     1      38.433  -4.857   9.844  1.00  0.00     0.029 C 
HETATM   36  C   UNL     1      38.300  -5.361   8.428  1.00  0.00     0.036 C 
ENDBRANCH  31  32
ENDBRANCH   5  31
TORSDOF 6
ENDMDL
MODEL 7
REMARK VINA RESULT:      -8.1      2.412      3.467
REMARK  6 active torsions:
REMARK  status: ('A' for Active; 'I' for Inactive)
REMARK    1  A    between atoms: C_6  and  C_7 
REMARK    2  A    between atoms: C_7  and  N_8 
REMARK    3  A    between atoms: C_12  and  C_13 
REMARK    4  A    between atoms: C_13  and  C_14 
REMARK    5  A    between atoms: N_23  and  C_24 
REMARK    6  A    between atoms: C_24  and  C_25 
ROOT
HETATM    1  C   UNL     1      42.342  -9.685   7.255  1.00  0.00     0.164 C 
HETATM    2  N   UNL     1      41.159 -10.402   7.697  1.00  0.00    -0.319 N 
HETATM    3  C   UNL     1      40.053  -9.580   7.755  1.00  0.00     0.326 C 
HETATM    4  O   UNL     1      38.989  -9.955   8.214  1.00  0.00    -0.247 OA
HETATM    5  N   UNL     1      40.376  -8.363   7.249  1.00  0.00    -0.265 N 
HETATM    6  C   UNL     1      41.729  -8.276   7.057  1.00  0.00     0.263 C 
HETATM    7  O   UNL     1      42.346  -7.268   6.745  1.00  0.00    -0.270 OA
HETATM    8  H   UNL     1      41.186 -11.173   8.354  1.00  0.00     0.166 HD
ENDROOT
BRANCH   1   9
HETATM    9  C   UNL     1      42.852 -10.202   5.848  1.00  0.00     0.033 C 
HETATM   10  C   UNL     1      41.765 -10.814   4.931  1.00  0.00     0.036 C 
HETATM   11  C   UNL     1      41.304 -12.215   5.328  1.00  0.00     0.235 C 
HETATM   12  N   UNL     1      42.492 -13.147   5.411  1.00  0.00    -0.067 N 
HETATM   13  H   UNL     1      42.841 -13.254   4.452  1.00  0.00     0.280 HD
HETATM   14  C   UNL     1      43.620 -12.622   6.263  1.00  0.00     0.235 C 
HETATM   15  C   UNL     1      44.017 -11.214   5.863  1.00  0.00     0.036 C 
BRANCH  12  16
HETATM   16  C   UNL     1      42.129 -14.550   5.890  1.00  0.00     0.273 C 
BRANCH  16  17
HETATM   17  C   UNL     1      42.462 -15.690   4.963  1.00  0.00    -0.027 A 
HETATM   18  C   UNL     1      43.570 -16.537   5.197  1.00  0.00    -0.054 A 
HETATM   19  C   UNL     1      43.842 -17.580   4.296  1.00  0.00     0.014 A 
HETATM   20  C   UNL     1      44.494 -16.361   6.376  1.00  0.00     0.049 C 
HETATM   21  C   UNL     1      43.049 -17.787   3.163  1.00  0.00    -0.061 A 
HETATM   22  C   UNL     1      43.357 -18.925   2.232  1.00  0.00     0.048 C 
HETATM   23  C   UNL     1      41.958 -16.949   2.936  1.00  0.00     0.007 A 
HETATM   24  C   UNL     1      41.673 -15.904   3.818  1.00  0.00     0.010 A 
ENDBRANCH  16  17
ENDBRANCH  12  16
ENDBRANCH   1   9
BRANCH   1  25
HETATM   25  C   UNL     1      43.390  -9.640   8.373  1.00  0.00     0.072 A 
HETATM   26  N   UNL     1      44.606  -9.114   8.085  1.00  0.00    -0.262 NA
HETATM   27  C   UNL     1      45.545  -9.101   9.061  1.00  0.00     0.117 A 
HETATM   28  C   UNL     1      45.347  -9.621  10.326  1.00  0.00     0.019 A 
HETATM   29  C   UNL     1      44.112 -10.181  10.613  1.00  0.00     0.003 A 
HETATM   30  C   UNL     1      43.123 -10.193   9.632  1.00  0.00     0.030 A 
ENDBRANCH   1  25
BRANCH   5  31
HETATM   31  C   UNL     1      39.441  -7.259   7.089  1.00  0.00     0.168 C 
BRANCH  31  32
HETATM   32  C   UNL     1      38.737  -7.291   5.728  1.00  0.00     0.140 C 
HETATM   33  O   UNL     1      37.406  -7.843   5.844  1.00  0.00    -0.384 OA
HETATM   34  C   UNL     1      36.599  -7.241   4.811  1.00  0.00     0.168 C 
HETATM   35  C   UNL     1      37.458  -6.213   4.099  1.00  0.00     0.029 C 
HETATM   36  C   UNL     1      38.535  -5.919   5.114  1.00  0.00     0.036 C 
ENDBRANCH  31  32
ENDBRANCH   5  31
TORSDOF 6
ENDMDL
MODEL 8
REMARK VINA RESULT:      -8.0      3.153      7.463
REMARK  6 active torsions:
REMARK  status: ('A' for Active; 'I' for Inactive)
REMARK    1  A    between atoms: C_6  and  C_7 
REMARK    2  A    between atoms: C_7  and  N_8 
REMARK    3  A    between atoms: C_12  and  C_13 
REMARK    4  A    between atoms: C_13  and  C_14 
REMARK    5  A    between atoms: N_23  and  C_24 
REMARK    6  A    between atoms: C_24  and  C_25 
ROOT
HETATM    1  C   UNL     1      41.548 -13.919   3.463  1.00  0.00     0.164 C 
HETATM    2  N   UNL     1      42.388 -13.985   2.281  1.00  0.00    -0.319 N 
HETATM    3  C   UNL     1      43.357 -14.960   2.393  1.00  0.00     0.326 C 
HETATM    4  O   UNL     1      44.237 -15.100   1.562  1.00  0.00    -0.247 OA
HETATM    5  N   UNL     1      43.150 -15.664   3.534  1.00  0.00    -0.265 N 
HETATM    6  C   UNL     1      42.200 -15.046   4.303  1.00  0.00     0.263 C 
HETATM    7  O   UNL     1      41.890 -15.354   5.445  1.00  0.00    -0.270 OA
HETATM    8  H   UNL     1      42.622 -13.177   1.716  1.00  0.00     0.166 HD
ENDROOT
BRANCH   1   9
HETATM    9  C   UNL     1      40.055 -14.341   3.148  1.00  0.00     0.033 C 
HETATM   10  C   UNL     1      39.891 -15.645   2.329  1.00  0.00     0.036 C 
HETATM   11  C   UNL     1      40.215 -15.515   0.843  1.00  0.00     0.235 C 
HETATM   12  N   UNL     1      39.384 -14.413   0.226  1.00  0.00    -0.067 N 
HETATM   13  H   UNL     1      38.411 -14.738   0.249  1.00  0.00     0.280 HD
HETATM   14  C   UNL     1      39.456 -13.104   0.973  1.00  0.00     0.235 C 
HETATM   15  C   UNL     1      39.170 -13.285   2.451  1.00  0.00     0.036 C 
BRANCH  12  16
HETATM   16  C   UNL     1      39.711 -14.156  -1.243  1.00  0.00     0.273 C 
BRANCH  16  17
HETATM   17  C   UNL     1      39.045 -12.968  -1.887  1.00  0.00    -0.027 A 
HETATM   18  C   UNL     1      39.792 -11.859  -2.349  1.00  0.00    -0.054 A 
HETATM   19  C   UNL     1      39.121 -10.773  -2.935  1.00  0.00     0.014 A 
HETATM   20  C   UNL     1      41.293 -11.782  -2.227  1.00  0.00     0.049 C 
HETATM   21  C   UNL     1      37.728 -10.757  -3.055  1.00  0.00    -0.061 A 
HETATM   22  C   UNL     1      37.045  -9.588  -3.705  1.00  0.00     0.048 C 
HETATM   23  C   UNL     1      36.996 -11.853  -2.597  1.00  0.00     0.007 A 
HETATM   24  C   UNL     1      37.644 -12.941  -2.009  1.00  0.00     0.010 A 
ENDBRANCH  16  17
ENDBRANCH  12  16
ENDBRANCH   1   9
BRANCH   1  25
HETATM   25  C   UNL     1      41.730 -12.574   4.175  1.00  0.00     0.072 A 
HETATM   26  N   UNL     1      41.174 -12.424   5.403  1.00  0.00    -0.262 NA
HETATM   27  C   UNL     1      41.305 -11.226   6.022  1.00  0.00     0.117 A 
HETATM   28  C   UNL     1      41.946 -10.137   5.463  1.00  0.00     0.019 A 
HETATM   29  C   UNL     1      42.492 -10.283   4.198  1.00  0.00     0.003 A 
HETATM   30  C   UNL     1      42.386 -11.509   3.545  1.00  0.00     0.030 A 
ENDBRANCH   1  25
BRANCH   5  31
HETATM   31  C   UNL     1      43.937 -16.815   3.951  1.00  0.00     0.168 C 
BRANCH  31  32
HETATM   32  C   UNL     1      43.265 -18.141   3.576  1.00  0.00     0.140 C 
HETATM   33  O   UNL     1      43.179 -18.293   2.141  1.00  0.00    -0.384 OA
HETATM   34  C   UNL     1      43.217 -19.707   1.855  1.00  0.00     0.168 C 
HETATM   35  C   UNL     1      43.428 -20.435   3.170  1.00  0.00     0.029 C 
HETATM   36  C   UNL     1      44.025 -19.365   4.051  1.00  0.00     0.036 C 
ENDBRANCH  31  32
ENDBRANCH   5  31
TORSDOF 6
ENDMDL
MODEL 9
REMARK VINA RESULT:      -8.0      1.841      2.310
REMARK  6 active torsions:
REMARK  status: ('A' for Active; 'I' for Inactive)
REMARK    1  A    between atoms: C_6  and  C_7 
REMARK    2  A    between atoms: C_7  and  N_8 
REMARK    3  A    between atoms: C_12  and  C_13 
REMARK    4  A    between atoms: C_13  and  C_14 
REMARK    5  A    between atoms: N_23  and  C_24 
REMARK    6  A    between atoms: C_24  and  C_25 
ROOT
HETATM    1  C   UNL     1      42.425  -9.904   7.353  1.00  0.00     0.164 C 
HETATM    2  N   UNL     1      41.177 -10.638   7.451  1.00  0.00    -0.319 N 
HETATM    3  C   UNL     1      40.098  -9.873   7.060  1.00  0.00     0.326 C 
HETATM    4  O   UNL     1      38.950 -10.261   7.178  1.00  0.00    -0.247 OA
HETATM    5  N   UNL     1      40.547  -8.691   6.568  1.00  0.00    -0.265 N 
HETATM    6  C   UNL     1      41.885  -8.551   6.824  1.00  0.00     0.263 C 
HETATM    7  O   UNL     1      42.552  -7.545   6.632  1.00  0.00    -0.270 OA
HETATM    8  H   UNL     1      40.999 -11.346   8.155  1.00  0.00     0.166 HD
ENDROOT
BRANCH   1   9
HETATM    9  C   UNL     1      43.383 -10.516   6.251  1.00  0.00     0.033 C 
HETATM   10  C   UNL     1      42.716 -10.829   4.889  1.00  0.00     0.036 C 
HETATM   11  C   UNL     1      41.833 -12.074   4.877  1.00  0.00     0.235 C 
HETATM   12  N   UNL     1      42.623 -13.274   5.350  1.00  0.00    -0.067 N 
HETATM   13  H   UNL     1      43.331 -13.455   4.630  1.00  0.00     0.280 HD
HETATM   14  C   UNL     1      43.336 -13.056   6.662  1.00  0.00     0.235 C 
HETATM   15  C   UNL     1      44.166 -11.787   6.644  1.00  0.00     0.036 C 
BRANCH  12  16
HETATM   16  C   UNL     1      41.787 -14.547   5.454  1.00  0.00     0.273 C 
BRANCH  16  17
HETATM   17  C   UNL     1      42.221 -15.713   4.603  1.00  0.00    -0.027 A 
HETATM   18  C   UNL     1      41.538 -16.059   3.415  1.00  0.00    -0.054 A 
HETATM   19  C   UNL     1      41.978 -17.160   2.662  1.00  0.00     0.014 A 
HETATM   20  C   UNL     1      40.332 -15.300   2.919  1.00  0.00     0.049 C 
HETATM   21  C   UNL     1      43.069 -17.932   3.074  1.00  0.00    -0.061 A 
HETATM   22  C   UNL     1      43.525 -19.091   2.234  1.00  0.00     0.048 C 
HETATM   23  C   UNL     1      43.740 -17.587   4.247  1.00  0.00     0.007 A 
HETATM   24  C   UNL     1      43.315 -16.498   5.010  1.00  0.00     0.010 A 
ENDBRANCH  16  17
ENDBRANCH  12  16
ENDBRANCH   1   9
BRANCH   1  25
HETATM   25  C   UNL     1      43.041  -9.706   8.743  1.00  0.00     0.072 A 
HETATM   26  N   UNL     1      42.211  -9.397   9.769  1.00  0.00    -0.262 NA
HETATM   27  C   UNL     1      42.754  -9.190  10.992  1.00  0.00     0.117 A 
HETATM   28  C   UNL     1      44.110  -9.245  11.250  1.00  0.00     0.019 A 
HETATM   29  C   UNL     1      44.962  -9.537  10.196  1.00  0.00     0.003 A 
HETATM   30  C   UNL     1      44.428  -9.769   8.931  1.00  0.00     0.030 A 
ENDBRANCH   1  25
BRANCH   5  31
HETATM   31  C   UNL     1      39.697  -7.655   5.999  1.00  0.00     0.168 C 
BRANCH  31  32
HETATM   32  C   UNL     1      39.465  -7.859   4.498  1.00  0.00     0.140 C 
HETATM   33  O   UNL     1      40.624  -8.451   3.868  1.00  0.00    -0.384 OA
HETATM   34  C   UNL     1      40.155  -9.224   2.744  1.00  0.00     0.168 C 
HETATM   35  C   UNL     1      38.639  -9.170   2.751  1.00  0.00     0.029 C 
HETATM   36  C   UNL     1      38.325  -8.810   4.182  1.00  0.00     0.036 C 
ENDBRANCH  31  32
ENDBRANCH   5  31
TORSDOF 6
ENDMDL
MODEL 10
REMARK VINA RESULT:      -7.9     17.555     20.690
REMARK  6 active torsions:
REMARK  status: ('A' for Active; 'I' for Inactive)
REMARK    1  A    between atoms: C_6  and  C_7 
REMARK    2  A    between atoms: C_7  and  N_8 
REMARK    3  A    between atoms: C_12  and  C_13 
REMARK    4  A    between atoms: C_13  and  C_14 
REMARK    5  A    between atoms: N_23  and  C_24 
REMARK    6  A    between atoms: C_24  and  C_25 
ROOT
HETATM    1  C   UNL     1      46.930 -30.566  -2.073  1.00  0.00     0.164 C 
HETATM    2  N   UNL     1      46.296 -30.941  -0.822  1.00  0.00    -0.319 N 
HETATM    3  C   UNL     1      46.717 -32.179  -0.384  1.00  0.00     0.326 C 
HETATM    4  O   UNL     1      46.220 -32.730   0.582  1.00  0.00    -0.247 OA
HETATM    5  N   UNL     1      47.710 -32.623  -1.194  1.00  0.00    -0.265 N 
HETATM    6  C   UNL     1      47.816 -31.818  -2.297  1.00  0.00     0.263 C 
HETATM    7  O   UNL     1      48.517 -32.028  -3.275  1.00  0.00    -0.270 OA
HETATM    8  H   UNL     1      45.353 -30.668  -0.570  1.00  0.00     0.166 HD
ENDROOT
BRANCH   1   9
HETATM    9  C   UNL     1      47.883 -29.314  -1.897  1.00  0.00     0.033 C 
HETATM   10  C   UNL     1      49.130 -29.547  -1.010  1.00  0.00     0.036 C 
HETATM   11  C   UNL     1      48.851 -29.601   0.491  1.00  0.00     0.235 C 
HETATM   12  N   UNL     1      48.135 -28.343   0.930  1.00  0.00    -0.067 N 
HETATM   13  H   UNL     1      48.808 -27.576   0.821  1.00  0.00     0.280 HD
HETATM   14  C   UNL     1      46.917 -28.014   0.103  1.00  0.00     0.235 C 
HETATM   15  C   UNL     1      47.230 -28.014  -1.381  1.00  0.00     0.036 C 
BRANCH  12  16
HETATM   16  C   UNL     1      47.737 -28.355   2.403  1.00  0.00     0.273 C 
BRANCH  16  17
HETATM   17  C   UNL     1      48.353 -29.429   3.262  1.00  0.00    -0.027 A 
HETATM   18  C   UNL     1      47.593 -30.518   3.748  1.00  0.00    -0.054 A 
HETATM   19  C   UNL     1      48.214 -31.487   4.552  1.00  0.00     0.014 A 
HETATM   20  C   UNL     1      46.123 -30.680   3.452  1.00  0.00     0.049 C 
HETATM   21  C   UNL     1      49.566 -31.389   4.897  1.00  0.00    -0.061 A 
HETATM   22  C   UNL     1      50.202 -32.455   5.742  1.00  0.00     0.048 C 
HETATM   23  C   UNL     1      50.312 -30.313   4.415  1.00  0.00     0.007 A 
HETATM   24  C   UNL     1      49.711 -29.337   3.617  1.00  0.00     0.010 A 
ENDBRANCH  16  17
ENDBRANCH  12  16
ENDBRANCH   1   9
BRANCH   1  25
HETATM   25  C   UNL     1      45.888 -30.464  -3.193  1.00  0.00     0.072 A 
HETATM   26  N   UNL     1      46.187 -31.020  -4.393  1.00  0.00    -0.262 NA
HETATM   27  C   UNL     1      45.282 -30.904  -5.394  1.00  0.00     0.117 A 
HETATM   28  C   UNL     1      44.084 -30.227  -5.274  1.00  0.00     0.019 A 
HETATM   29  C   UNL     1      43.789 -29.637  -4.055  1.00  0.00     0.003 A 
HETATM   30  C   UNL     1      44.695 -29.754  -3.003  1.00  0.00     0.030 A 
ENDBRANCH   1  25
BRANCH   5  31
HETATM   31  C   UNL     1      48.444 -33.865  -1.000  1.00  0.00     0.168 C 
BRANCH  31  32
HETATM   32  C   UNL     1      49.735 -33.654  -0.202  1.00  0.00     0.140 C 
HETATM   33  O   UNL     1      50.649 -32.786  -0.911  1.00  0.00    -0.384 OA
HETATM   34  C   UNL     1      51.438 -32.092   0.078  1.00  0.00     0.168 C 
HETATM   35  C   UNL     1      50.915 -32.492   1.445  1.00  0.00     0.029 C 
HETATM   36  C   UNL     1      49.519 -32.977   1.139  1.00  0.00     0.036 C 
ENDBRANCH  31  32
ENDBRANCH   5  31
TORSDOF 6
ENDMDL
