MODEL 1
REMARK VINA RESULT:      -9.0      0.000      0.000
REMARK  4 active torsions:
REMARK  status: ('A' for Active; 'I' for Inactive)
REMARK    1  A    between atoms: O_2  and  C_3 
REMARK    2  A    between atoms: C_4  and  C_5 
REMARK    3  A    between atoms: C_9  and  C_10 
REMARK       I    between atoms: C_10  and  N_11 
REMARK    4  A    between atoms: N_11  and  N_12 
ROOT
HETATM    1  C   UNL     1      40.646 -14.043   1.395  1.00  0.00     0.289 C 
HETATM    2  N   UNL     1      40.727 -13.489   0.127  1.00  0.00    -0.241 N 
HETATM    3  O   UNL     1      39.847 -13.680   2.254  1.00  0.00    -0.264 OA
HETATM    4  H   UNL     1      41.397 -13.844  -0.554  1.00  0.00     0.192 HD
ENDROOT
BRANCH   1   5
HETATM    5  C   UNL     1      41.568 -15.122   1.647  1.00  0.00     0.121 A 
HETATM    6  N   UNL     1      42.826 -15.114   1.108  1.00  0.00    -0.272 N 
HETATM    7  N   UNL     1      43.589 -16.155   1.469  1.00  0.00    -0.174 NA
HETATM    8  H   UNL     1      43.218 -14.400   0.502  1.00  0.00     0.189 HD
HETATM    9  C   UNL     1      42.783 -16.913   2.227  1.00  0.00     0.092 A 
HETATM   10  C   UNL     1      41.507 -16.294   2.373  1.00  0.00     0.071 A 
BRANCH   9  11
HETATM   11  C   UNL     1      43.238 -18.158   2.843  1.00  0.00     0.028 A 
HETATM   12  C   UNL     1      43.729 -18.214   4.158  1.00  0.00     0.080 A 
HETATM   13  C   UNL     1      44.158 -19.429   4.706  1.00  0.00     0.037 A 
HETATM   14  C   UNL     1      44.072 -20.603   3.958  1.00  0.00     0.003 A 
HETATM   15  C   UNL     1      43.577 -20.564   2.657  1.00  0.00     0.001 A 
HETATM   16  C   UNL     1      43.167 -19.349   2.101  1.00  0.00     0.017 A 
BRANCH  12  17
HETATM   17  O   UNL     1      43.894 -17.063   4.889  1.00  0.00    -0.355 OA
HETATM   18  C   UNL     1      43.648 -17.303   6.275  1.00  0.00     0.210 C 
ENDBRANCH  12  17
ENDBRANCH   9  11
ENDBRANCH   1   5
BRANCH   2  19
HETATM   19  N   UNL     1      39.866 -12.491  -0.247  1.00  0.00    -0.165 NA
HETATM   20  C   UNL     1      38.967 -12.798  -1.126  1.00  0.00     0.157 A 
HETATM   21  C   UNL     1      38.727 -14.144  -1.815  1.00  0.00     0.277 A 
HETATM   22  C   UNL     1      37.951 -11.894  -1.653  1.00  0.00     0.027 A 
HETATM   23  O   UNL     1      39.382 -15.146  -1.619  1.00  0.00    -0.266 OA
HETATM   24  N   UNL     1      37.650 -13.946  -2.652  1.00  0.00    -0.321 N 
HETATM   25  C   UNL     1      37.192 -12.633  -2.559  1.00  0.00     0.048 A 
HETATM   26  H   UNL     1      37.259 -14.668  -3.239  1.00  0.00     0.169 HD
HETATM   27  C   UNL     1      36.133 -12.064  -3.235  1.00  0.00     0.030 A 
HETATM   28  C   UNL     1      35.855 -10.715  -2.973  1.00  0.00     0.002 A 
HETATM   29  C   UNL     1      36.629  -9.975  -2.055  1.00  0.00     0.001 A 
HETATM   30  C   UNL     1      37.697 -10.566  -1.378  1.00  0.00     0.016 A 
ENDBRANCH   2  19
TORSDOF 4
ENDMDL
MODEL 2
REMARK VINA RESULT:      -8.8      5.252      7.679
REMARK  4 active torsions:
REMARK  status: ('A' for Active; 'I' for Inactive)
REMARK    1  A    between atoms: O_2  and  C_3 
REMARK    2  A    between atoms: C_4  and  C_5 
REMARK    3  A    between atoms: C_9  and  C_10 
REMARK       I    between atoms: C_10  and  N_11 
REMARK    4  A    between atoms: N_11  and  N_12 
ROOT
HETATM    1  C   UNL     1      42.736 -12.716   3.977  1.00  0.00     0.289 C 
HETATM    2  N   UNL     1      42.437 -12.604   5.325  1.00  0.00    -0.241 N 
HETATM    3  O   UNL     1      42.837 -11.758   3.213  1.00  0.00    -0.264 OA
HETATM    4  H   UNL     1      42.387 -13.433   5.917  1.00  0.00     0.192 HD
ENDROOT
BRANCH   1   5
HETATM    5  C   UNL     1      42.951 -14.062   3.511  1.00  0.00     0.121 A 
HETATM    6  N   UNL     1      43.189 -14.321   2.188  1.00  0.00    -0.272 N 
HETATM    7  N   UNL     1      43.421 -15.611   1.909  1.00  0.00    -0.174 NA
HETATM    8  H   UNL     1      43.226 -13.638   1.437  1.00  0.00     0.189 HD
HETATM    9  C   UNL     1      43.270 -16.239   3.085  1.00  0.00     0.092 A 
HETATM   10  C   UNL     1      42.986 -15.301   4.120  1.00  0.00     0.071 A 
BRANCH   9  11
HETATM   11  C   UNL     1      43.454 -17.682   3.226  1.00  0.00     0.028 A 
HETATM   12  C   UNL     1      43.901 -18.274   4.419  1.00  0.00     0.080 A 
HETATM   13  C   UNL     1      44.066 -19.662   4.506  1.00  0.00     0.037 A 
HETATM   14  C   UNL     1      43.758 -20.473   3.414  1.00  0.00     0.003 A 
HETATM   15  C   UNL     1      43.304 -19.901   2.229  1.00  0.00     0.001 A 
HETATM   16  C   UNL     1      43.157 -18.515   2.133  1.00  0.00     0.017 A 
BRANCH  12  17
HETATM   17  O   UNL     1      44.282 -17.494   5.483  1.00  0.00    -0.355 OA
HETATM   18  C   UNL     1      43.520 -17.816   6.646  1.00  0.00     0.210 C 
ENDBRANCH  12  17
ENDBRANCH   9  11
ENDBRANCH   1   5
BRANCH   2  19
HETATM   19  N   UNL     1      42.263 -11.371   5.895  1.00  0.00    -0.165 NA
HETATM   20  C   UNL     1      43.199 -10.959   6.689  1.00  0.00     0.157 A 
HETATM   21  C   UNL     1      44.497 -11.670   7.084  1.00  0.00     0.277 A 
HETATM   22  C   UNL     1      43.217  -9.679   7.388  1.00  0.00     0.027 A 
HETATM   23  O   UNL     1      44.831 -12.766   6.687  1.00  0.00    -0.266 OA
HETATM   24  N   UNL     1      45.147 -10.807   7.939  1.00  0.00    -0.321 N 
HETATM   25  C   UNL     1      44.404  -9.642   8.119  1.00  0.00     0.048 A 
HETATM   26  H   UNL     1      46.040 -11.010   8.363  1.00  0.00     0.169 HD
HETATM   27  C   UNL     1      44.731  -8.549   8.894  1.00  0.00     0.030 A 
HETATM   28  C   UNL     1      43.822  -7.483   8.916  1.00  0.00     0.002 A 
HETATM   29  C   UNL     1      42.624  -7.529   8.174  1.00  0.00     0.001 A 
HETATM   30  C   UNL     1      42.308  -8.643   7.393  1.00  0.00     0.016 A 
ENDBRANCH   2  19
TORSDOF 4
ENDMDL
MODEL 3
REMARK VINA RESULT:      -8.6      5.512      9.533
REMARK  4 active torsions:
REMARK  status: ('A' for Active; 'I' for Inactive)
REMARK    1  A    between atoms: O_2  and  C_3 
REMARK    2  A    between atoms: C_4  and  C_5 
REMARK    3  A    between atoms: C_9  and  C_10 
REMARK       I    between atoms: C_10  and  N_11 
REMARK    4  A    between atoms: N_11  and  N_12 
ROOT
HETATM    1  C   UNL     1      42.153 -13.650   4.641  1.00  0.00     0.289 C 
HETATM    2  N   UNL     1      43.286 -14.340   4.241  1.00  0.00    -0.241 N 
HETATM    3  O   UNL     1      41.006 -13.997   4.370  1.00  0.00    -0.264 OA
HETATM    4  H   UNL     1      44.215 -14.018   4.511  1.00  0.00     0.192 HD
ENDROOT
BRANCH   1   5
HETATM    5  C   UNL     1      42.406 -12.476   5.438  1.00  0.00     0.121 A 
HETATM    6  N   UNL     1      42.202 -11.223   4.930  1.00  0.00    -0.272 N 
HETATM    7  N   UNL     1      42.429 -10.229   5.800  1.00  0.00    -0.174 NA
HETATM    8  H   UNL     1      41.881 -10.995   3.994  1.00  0.00     0.189 HD
HETATM    9  C   UNL     1      42.862 -10.849   6.909  1.00  0.00     0.092 A 
HETATM   10  C   UNL     1      42.851 -12.263   6.727  1.00  0.00     0.071 A 
BRANCH   9  11
HETATM   11  C   UNL     1      43.213 -10.115   8.124  1.00  0.00     0.028 A 
HETATM   12  C   UNL     1      44.454 -10.264   8.764  1.00  0.00     0.080 A 
HETATM   13  C   UNL     1      44.744  -9.543   9.928  1.00  0.00     0.037 A 
HETATM   14  C   UNL     1      43.813  -8.644  10.446  1.00  0.00     0.003 A 
HETATM   15  C   UNL     1      42.582  -8.479   9.815  1.00  0.00     0.001 A 
HETATM   16  C   UNL     1      42.282  -9.212   8.665  1.00  0.00     0.017 A 
BRANCH  12  17
HETATM   17  O   UNL     1      45.359 -11.196   8.319  1.00  0.00    -0.355 OA
HETATM   18  C   UNL     1      46.420 -10.568   7.597  1.00  0.00     0.210 C 
ENDBRANCH  12  17
ENDBRANCH   9  11
ENDBRANCH   1   5
BRANCH   2  19
HETATM   19  N   UNL     1      43.171 -15.501   3.522  1.00  0.00    -0.165 NA
HETATM   20  C   UNL     1      43.549 -16.590   4.111  1.00  0.00     0.157 A 
HETATM   21  C   UNL     1      44.115 -16.764   5.524  1.00  0.00     0.277 A 
HETATM   22  C   UNL     1      43.502 -17.928   3.534  1.00  0.00     0.027 A 
HETATM   23  O   UNL     1      44.293 -15.859   6.312  1.00  0.00    -0.266 OA
HETATM   24  N   UNL     1      44.348 -18.114   5.667  1.00  0.00    -0.321 N 
HETATM   25  C   UNL     1      43.989 -18.799   4.507  1.00  0.00     0.048 A 
HETATM   26  H   UNL     1      44.723 -18.530   6.506  1.00  0.00     0.169 HD
HETATM   27  C   UNL     1      44.070 -20.157   4.275  1.00  0.00     0.030 A 
HETATM   28  C   UNL     1      43.643 -20.620   3.023  1.00  0.00     0.002 A 
HETATM   29  C   UNL     1      43.152 -19.732   2.044  1.00  0.00     0.001 A 
HETATM   30  C   UNL     1      43.075 -18.360   2.295  1.00  0.00     0.016 A 
ENDBRANCH   2  19
TORSDOF 4
ENDMDL
MODEL 4
REMARK VINA RESULT:      -8.5      8.108     10.988
REMARK  4 active torsions:
REMARK  status: ('A' for Active; 'I' for Inactive)
REMARK    1  A    between atoms: O_2  and  C_3 
REMARK    2  A    between atoms: C_4  and  C_5 
REMARK    3  A    between atoms: C_9  and  C_10 
REMARK       I    between atoms: C_10  and  N_11 
REMARK    4  A    between atoms: N_11  and  N_12 
ROOT
HETATM    1  C   UNL     1      43.044 -10.480   7.661  1.00  0.00     0.289 C 
HETATM    2  N   UNL     1      43.297 -11.781   7.254  1.00  0.00    -0.241 N 
HETATM    3  O   UNL     1      42.779  -9.558   6.893  1.00  0.00    -0.264 OA
HETATM    4  H   UNL     1      43.491 -12.511   7.937  1.00  0.00     0.192 HD
ENDROOT
BRANCH   1   5
HETATM    5  C   UNL     1      43.090 -10.270   9.086  1.00  0.00     0.121 A 
HETATM    6  N   UNL     1      43.817 -11.098   9.897  1.00  0.00    -0.272 N 
HETATM    7  N   UNL     1      43.809 -10.752  11.192  1.00  0.00    -0.174 NA
HETATM    8  H   UNL     1      44.359 -11.906   9.605  1.00  0.00     0.189 HD
HETATM    9  C   UNL     1      42.993  -9.688  11.247  1.00  0.00     0.092 A 
HETATM   10  C   UNL     1      42.529  -9.345   9.944  1.00  0.00     0.071 A 
BRANCH   9  11
HETATM   11  C   UNL     1      42.717  -8.983  12.498  1.00  0.00     0.028 A 
HETATM   12  C   UNL     1      41.719  -9.399  13.395  1.00  0.00     0.080 A 
HETATM   13  C   UNL     1      41.489  -8.691  14.581  1.00  0.00     0.037 A 
HETATM   14  C   UNL     1      42.271  -7.580  14.896  1.00  0.00     0.003 A 
HETATM   15  C   UNL     1      43.271  -7.164  14.021  1.00  0.00     0.001 A 
HETATM   16  C   UNL     1      43.490  -7.857  12.829  1.00  0.00     0.017 A 
BRANCH  12  17
HETATM   17  O   UNL     1      40.886 -10.442  13.075  1.00  0.00    -0.355 OA
HETATM   18  C   UNL     1      39.585  -9.965  12.730  1.00  0.00     0.210 C 
ENDBRANCH  12  17
ENDBRANCH   9  11
ENDBRANCH   1   5
BRANCH   2  19
HETATM   19  N   UNL     1      43.230 -12.114   5.926  1.00  0.00    -0.165 NA
HETATM   20  C   UNL     1      43.196 -13.377   5.645  1.00  0.00     0.157 A 
HETATM   21  C   UNL     1      43.218 -14.570   6.605  1.00  0.00     0.277 A 
HETATM   22  C   UNL     1      43.115 -13.947   4.305  1.00  0.00     0.027 A 
HETATM   23  O   UNL     1      43.276 -14.482   7.814  1.00  0.00    -0.266 OA
HETATM   24  N   UNL     1      43.154 -15.691   5.807  1.00  0.00    -0.321 N 
HETATM   25  C   UNL     1      43.092 -15.331   4.461  1.00  0.00     0.048 A 
HETATM   26  H   UNL     1      43.149 -16.633   6.167  1.00  0.00     0.169 HD
HETATM   27  C   UNL     1      43.011 -16.172   3.371  1.00  0.00     0.030 A 
HETATM   28  C   UNL     1      42.954 -15.577   2.104  1.00  0.00     0.002 A 
HETATM   29  C   UNL     1      42.978 -14.174   1.955  1.00  0.00     0.001 A 
HETATM   30  C   UNL     1      43.059 -13.336   3.069  1.00  0.00     0.016 A 
ENDBRANCH   2  19
TORSDOF 4
ENDMDL
MODEL 5
REMARK VINA RESULT:      -8.4      2.917      3.815
REMARK  4 active torsions:
REMARK  status: ('A' for Active; 'I' for Inactive)
REMARK    1  A    between atoms: O_2  and  C_3 
REMARK    2  A    between atoms: C_4  and  C_5 
REMARK    3  A    between atoms: C_9  and  C_10 
REMARK       I    between atoms: C_10  and  N_11 
REMARK    4  A    between atoms: N_11  and  N_12 
ROOT
HETATM    1  C   UNL     1      40.291 -13.749  -0.245  1.00  0.00     0.289 C 
HETATM    2  N   UNL     1      41.187 -12.709  -0.437  1.00  0.00    -0.241 N 
HETATM    3  O   UNL     1      39.265 -13.903  -0.905  1.00  0.00    -0.264 OA
HETATM    4  H   UNL     1      42.034 -12.642   0.126  1.00  0.00     0.192 HD
ENDROOT
BRANCH   1   5
HETATM    5  C   UNL     1      40.654 -14.681   0.791  1.00  0.00     0.121 A 
HETATM    6  N   UNL     1      39.709 -15.204   1.632  1.00  0.00    -0.272 N 
HETATM    7  N   UNL     1      40.184 -16.096   2.513  1.00  0.00    -0.174 NA
HETATM    8  H   UNL     1      38.715 -14.998   1.625  1.00  0.00     0.189 HD
HETATM    9  C   UNL     1      41.507 -16.116   2.286  1.00  0.00     0.092 A 
HETATM   10  C   UNL     1      41.842 -15.251   1.205  1.00  0.00     0.071 A 
BRANCH   9  11
HETATM   11  C   UNL     1      42.412 -16.985   3.038  1.00  0.00     0.028 A 
HETATM   12  C   UNL     1      42.715 -16.768   4.392  1.00  0.00     0.080 A 
HETATM   13  C   UNL     1      43.591 -17.625   5.070  1.00  0.00     0.037 A 
HETATM   14  C   UNL     1      44.146 -18.722   4.413  1.00  0.00     0.003 A 
HETATM   15  C   UNL     1      43.844 -18.955   3.074  1.00  0.00     0.001 A 
HETATM   16  C   UNL     1      42.987 -18.091   2.389  1.00  0.00     0.017 A 
BRANCH  12  17
HETATM   17  O   UNL     1      42.243 -15.654   5.041  1.00  0.00    -0.355 OA
HETATM   18  C   UNL     1      41.341 -16.020   6.086  1.00  0.00     0.210 C 
ENDBRANCH  12  17
ENDBRANCH   9  11
ENDBRANCH   1   5
BRANCH   2  19
HETATM   19  N   UNL     1      40.975 -11.789  -1.430  1.00  0.00    -0.165 NA
HETATM   20  C   UNL     1      41.229 -10.553  -1.141  1.00  0.00     0.157 A 
HETATM   21  C   UNL     1      41.743  -9.967   0.177  1.00  0.00     0.277 A 
HETATM   22  C   UNL     1      41.082  -9.421  -2.049  1.00  0.00     0.027 A 
HETATM   23  O   UNL     1      41.990 -10.618   1.172  1.00  0.00    -0.266 OA
HETATM   24  N   UNL     1      41.855  -8.611  -0.037  1.00  0.00    -0.321 N 
HETATM   25  C   UNL     1      41.471  -8.287  -1.338  1.00  0.00     0.048 A 
HETATM   26  H   UNL     1      42.176  -7.960   0.663  1.00  0.00     0.169 HD
HETATM   27  C   UNL     1      41.454  -7.037  -1.921  1.00  0.00     0.030 A 
HETATM   28  C   UNL     1      41.031  -6.958  -3.255  1.00  0.00     0.002 A 
HETATM   29  C   UNL     1      40.639  -8.110  -3.967  1.00  0.00     0.001 A 
HETATM   30  C   UNL     1      40.662  -9.369  -3.362  1.00  0.00     0.016 A 
ENDBRANCH   2  19
TORSDOF 4
ENDMDL
MODEL 6
REMARK VINA RESULT:      -8.4      7.192     10.530
REMARK  4 active torsions:
REMARK  status: ('A' for Active; 'I' for Inactive)
REMARK    1  A    between atoms: O_2  and  C_3 
REMARK    2  A    between atoms: C_4  and  C_5 
REMARK    3  A    between atoms: C_9  and  C_10 
REMARK       I    between atoms: C_10  and  N_11 
REMARK    4  A    between atoms: N_11  and  N_12 
ROOT
HETATM    1  C   UNL     1      44.006 -12.409   7.106  1.00  0.00     0.289 C 
HETATM    2  N   UNL     1      43.201 -13.535   7.173  1.00  0.00    -0.241 N 
HETATM    3  O   UNL     1      45.138 -12.401   6.626  1.00  0.00    -0.264 OA
HETATM    4  H   UNL     1      42.261 -13.480   7.564  1.00  0.00     0.192 HD
ENDROOT
BRANCH   1   5
HETATM    5  C   UNL     1      43.412 -11.205   7.628  1.00  0.00     0.121 A 
HETATM    6  N   UNL     1      42.234 -10.725   7.123  1.00  0.00    -0.272 N 
HETATM    7  N   UNL     1      41.774  -9.626   7.739  1.00  0.00    -0.174 NA
HETATM    8  H   UNL     1      41.690 -11.132   6.368  1.00  0.00     0.189 HD
HETATM    9  C   UNL     1      42.719  -9.333   8.646  1.00  0.00     0.092 A 
HETATM   10  C   UNL     1      43.760 -10.306   8.617  1.00  0.00     0.071 A 
BRANCH   9  11
HETATM   11  C   UNL     1      42.598  -8.194   9.554  1.00  0.00     0.028 A 
HETATM   12  C   UNL     1      42.140  -8.326  10.875  1.00  0.00     0.080 A 
HETATM   13  C   UNL     1      42.037  -7.206  11.708  1.00  0.00     0.037 A 
HETATM   14  C   UNL     1      42.420  -5.949  11.241  1.00  0.00     0.003 A 
HETATM   15  C   UNL     1      42.887  -5.805   9.937  1.00  0.00     0.001 A 
HETATM   16  C   UNL     1      42.972  -6.918   9.097  1.00  0.00     0.017 A 
BRANCH  12  17
HETATM   17  O   UNL     1      41.686  -9.538  11.336  1.00  0.00    -0.355 OA
HETATM   18  C   UNL     1      42.557 -10.056  12.342  1.00  0.00     0.210 C 
ENDBRANCH  12  17
ENDBRANCH   9  11
ENDBRANCH   1   5
BRANCH   2  19
HETATM   19  N   UNL     1      43.637 -14.729   6.661  1.00  0.00    -0.165 NA
HETATM   20  C   UNL     1      43.136 -15.092   5.524  1.00  0.00     0.157 A 
HETATM   21  C   UNL     1      42.107 -14.360   4.657  1.00  0.00     0.277 A 
HETATM   22  C   UNL     1      43.467 -16.314   4.802  1.00  0.00     0.027 A 
HETATM   23  O   UNL     1      41.602 -13.293   4.938  1.00  0.00    -0.266 OA
HETATM   24  N   UNL     1      41.918 -15.159   3.551  1.00  0.00    -0.321 N 
HETATM   25  C   UNL     1      42.712 -16.302   3.630  1.00  0.00     0.048 A 
HETATM   26  H   UNL     1      41.289 -14.928   2.797  1.00  0.00     0.169 HD
HETATM   27  C   UNL     1      42.800 -17.328   2.712  1.00  0.00     0.030 A 
HETATM   28  C   UNL     1      43.679 -18.379   3.007  1.00  0.00     0.002 A 
HETATM   29  C   UNL     1      44.439 -18.384   4.195  1.00  0.00     0.001 A 
HETATM   30  C   UNL     1      44.339 -17.337   5.114  1.00  0.00     0.016 A 
ENDBRANCH   2  19
TORSDOF 4
ENDMDL
MODEL 7
REMARK VINA RESULT:      -8.4      5.776      9.797
REMARK  4 active torsions:
REMARK  status: ('A' for Active; 'I' for Inactive)
REMARK    1  A    between atoms: O_2  and  C_3 
REMARK    2  A    between atoms: C_4  and  C_5 
REMARK    3  A    between atoms: C_9  and  C_10 
REMARK       I    between atoms: C_10  and  N_11 
REMARK    4  A    between atoms: N_11  and  N_12 
ROOT
HETATM    1  C   UNL     1      43.206 -12.972   4.520  1.00  0.00     0.289 C 
HETATM    2  N   UNL     1      42.894 -14.247   4.965  1.00  0.00    -0.241 N 
HETATM    3  O   UNL     1      43.465 -12.697   3.350  1.00  0.00    -0.264 OA
HETATM    4  H   UNL     1      42.667 -14.414   5.945  1.00  0.00     0.192 HD
ENDROOT
BRANCH   1   5
HETATM    5  C   UNL     1      43.186 -11.951   5.536  1.00  0.00     0.121 A 
HETATM    6  N   UNL     1      42.618 -10.729   5.296  1.00  0.00    -0.272 N 
HETATM    7  N   UNL     1      42.626  -9.898   6.347  1.00  0.00    -0.174 NA
HETATM    8  H   UNL     1      42.187 -10.424   4.429  1.00  0.00     0.189 HD
HETATM    9  C   UNL     1      43.282 -10.576   7.303  1.00  0.00     0.092 A 
HETATM   10  C   UNL     1      43.640 -11.875   6.838  1.00  0.00     0.071 A 
BRANCH   9  11
HETATM   11  C   UNL     1      43.501 -10.022   8.638  1.00  0.00     0.028 A 
HETATM   12  C   UNL     1      42.465  -9.460   9.401  1.00  0.00     0.080 A 
HETATM   13  C   UNL     1      42.723  -8.938  10.675  1.00  0.00     0.037 A 
HETATM   14  C   UNL     1      44.009  -9.001  11.210  1.00  0.00     0.003 A 
HETATM   15  C   UNL     1      45.043  -9.567  10.468  1.00  0.00     0.001 A 
HETATM   16  C   UNL     1      44.793 -10.070   9.189  1.00  0.00     0.017 A 
BRANCH  12  17
HETATM   17  O   UNL     1      41.207  -9.316   8.870  1.00  0.00    -0.355 OA
HETATM   18  C   UNL     1      40.693  -8.009   9.128  1.00  0.00     0.210 C 
ENDBRANCH  12  17
ENDBRANCH   9  11
ENDBRANCH   1   5
BRANCH   2  19
HETATM   19  N   UNL     1      42.831 -15.292   4.081  1.00  0.00    -0.165 NA
HETATM   20  C   UNL     1      43.319 -16.422   4.481  1.00  0.00     0.157 A 
HETATM   21  C   UNL     1      43.966 -16.760   5.827  1.00  0.00     0.277 A 
HETATM   22  C   UNL     1      43.344 -17.657   3.706  1.00  0.00     0.027 A 
HETATM   23  O   UNL     1      44.115 -15.973   6.738  1.00  0.00    -0.266 OA
HETATM   24  N   UNL     1      44.306 -18.093   5.751  1.00  0.00    -0.321 N 
HETATM   25  C   UNL     1      43.943 -18.622   4.513  1.00  0.00     0.048 A 
HETATM   26  H   UNL     1      44.753 -18.598   6.501  1.00  0.00     0.169 HD
HETATM   27  C   UNL     1      44.114 -19.918   4.072  1.00  0.00     0.030 A 
HETATM   28  C   UNL     1      43.661 -20.220   2.781  1.00  0.00     0.002 A 
HETATM   29  C   UNL     1      43.056 -19.238   1.970  1.00  0.00     0.001 A 
HETATM   30  C   UNL     1      42.889 -17.930   2.432  1.00  0.00     0.016 A 
ENDBRANCH   2  19
TORSDOF 4
ENDMDL
MODEL 8
REMARK VINA RESULT:      -8.3      7.353     10.457
REMARK  4 active torsions:
REMARK  status: ('A' for Active; 'I' for Inactive)
REMARK    1  A    between atoms: O_2  and  C_3 
REMARK    2  A    between atoms: C_4  and  C_5 
REMARK    3  A    between atoms: C_9  and  C_10 
REMARK       I    between atoms: C_10  and  N_11 
REMARK    4  A    between atoms: N_11  and  N_12 
ROOT
HETATM    1  C   UNL     1      44.468 -11.594   6.598  1.00  0.00     0.289 C 
HETATM    2  N   UNL     1      43.363 -12.364   6.273  1.00  0.00    -0.241 N 
HETATM    3  O   UNL     1      45.423 -11.410   5.846  1.00  0.00    -0.264 OA
HETATM    4  H   UNL     1      42.589 -12.465   6.928  1.00  0.00     0.192 HD
ENDROOT
BRANCH   1   5
HETATM    5  C   UNL     1      44.421 -10.982   7.902  1.00  0.00     0.121 A 
HETATM    6  N   UNL     1      45.557 -10.828   8.648  1.00  0.00    -0.272 N 
HETATM    7  N   UNL     1      45.371 -10.199   9.817  1.00  0.00    -0.174 NA
HETATM    8  H   UNL     1      46.495 -11.119   8.388  1.00  0.00     0.189 HD
HETATM    9  C   UNL     1      44.047  -9.983   9.872  1.00  0.00     0.092 A 
HETATM   10  C   UNL     1      43.415 -10.450   8.683  1.00  0.00     0.071 A 
BRANCH   9  11
HETATM   11  C   UNL     1      43.417  -9.295  10.998  1.00  0.00     0.028 A 
HETATM   12  C   UNL     1      43.110  -7.925  10.969  1.00  0.00     0.080 A 
HETATM   13  C   UNL     1      42.509  -7.308  12.073  1.00  0.00     0.037 A 
HETATM   14  C   UNL     1      42.181  -8.058  13.202  1.00  0.00     0.003 A 
HETATM   15  C   UNL     1      42.470  -9.420  13.239  1.00  0.00     0.001 A 
HETATM   16  C   UNL     1      43.087 -10.034  12.147  1.00  0.00     0.017 A 
BRANCH  12  17
HETATM   17  O   UNL     1      43.489  -7.149   9.902  1.00  0.00    -0.355 OA
HETATM   18  C   UNL     1      42.787  -5.906   9.904  1.00  0.00     0.210 C 
ENDBRANCH  12  17
ENDBRANCH   9  11
ENDBRANCH   1   5
BRANCH   2  19
HETATM   19  N   UNL     1      43.269 -12.953   5.040  1.00  0.00    -0.165 NA
HETATM   20  C   UNL     1      43.224 -14.246   5.015  1.00  0.00     0.157 A 
HETATM   21  C   UNL     1      43.258 -15.225   6.192  1.00  0.00     0.277 A 
HETATM   22  C   UNL     1      43.115 -15.069   3.816  1.00  0.00     0.027 A 
HETATM   23  O   UNL     1      43.339 -14.900   7.358  1.00  0.00    -0.266 OA
HETATM   24  N   UNL     1      43.173 -16.482   5.632  1.00  0.00    -0.321 N 
HETATM   25  C   UNL     1      43.087 -16.395   4.244  1.00  0.00     0.048 A 
HETATM   26  H   UNL     1      43.170 -17.334   6.173  1.00  0.00     0.169 HD
HETATM   27  C   UNL     1      42.982 -17.435   3.343  1.00  0.00     0.030 A 
HETATM   28  C   UNL     1      42.903 -17.101   1.985  1.00  0.00     0.002 A 
HETATM   29  C   UNL     1      42.933 -15.757   1.560  1.00  0.00     0.001 A 
HETATM   30  C   UNL     1      43.039 -14.715   2.484  1.00  0.00     0.016 A 
ENDBRANCH   2  19
TORSDOF 4
ENDMDL
MODEL 9
REMARK VINA RESULT:      -8.1      7.181      9.849
REMARK  4 active torsions:
REMARK  status: ('A' for Active; 'I' for Inactive)
REMARK    1  A    between atoms: O_2  and  C_3 
REMARK    2  A    between atoms: C_4  and  C_5 
REMARK    3  A    between atoms: C_9  and  C_10 
REMARK       I    between atoms: C_10  and  N_11 
REMARK    4  A    between atoms: N_11  and  N_12 
ROOT
HETATM    1  C   UNL     1      41.613 -10.670   6.361  1.00  0.00     0.289 C 
HETATM    2  N   UNL     1      42.398 -10.411   7.473  1.00  0.00    -0.241 N 
HETATM    3  O   UNL     1      40.534 -10.126   6.139  1.00  0.00    -0.264 OA
HETATM    4  H   UNL     1      43.296 -10.876   7.596  1.00  0.00     0.192 HD
ENDROOT
BRANCH   1   5
HETATM    5  C   UNL     1      42.165 -11.628   5.437  1.00  0.00     0.121 A 
HETATM    6  N   UNL     1      43.185 -11.285   4.592  1.00  0.00    -0.272 N 
HETATM    7  N   UNL     1      43.632 -12.290   3.826  1.00  0.00    -0.174 NA
HETATM    8  H   UNL     1      43.628 -10.374   4.519  1.00  0.00     0.189 HD
HETATM    9  C   UNL     1      42.833 -13.324   4.133  1.00  0.00     0.092 A 
HETATM   10  C   UNL     1      41.906 -12.953   5.150  1.00  0.00     0.071 A 
BRANCH   9  11
HETATM   11  C   UNL     1      42.994 -14.641   3.520  1.00  0.00     0.028 A 
HETATM   12  C   UNL     1      43.155 -15.812   4.278  1.00  0.00     0.080 A 
HETATM   13  C   UNL     1      43.309 -17.052   3.647  1.00  0.00     0.037 A 
HETATM   14  C   UNL     1      43.275 -17.139   2.255  1.00  0.00     0.003 A 
HETATM   15  C   UNL     1      43.105 -15.986   1.492  1.00  0.00     0.001 A 
HETATM   16  C   UNL     1      42.970 -14.745   2.119  1.00  0.00     0.017 A 
BRANCH  12  17
HETATM   17  O   UNL     1      43.267 -15.747   5.645  1.00  0.00    -0.355 OA
HETATM   18  C   UNL     1      42.267 -16.547   6.275  1.00  0.00     0.210 C 
ENDBRANCH  12  17
ENDBRANCH   9  11
ENDBRANCH   1   5
BRANCH   2  19
HETATM   19  N   UNL     1      42.002  -9.479   8.396  1.00  0.00    -0.165 NA
HETATM   20  C   UNL     1      42.655  -9.453   9.514  1.00  0.00     0.157 A 
HETATM   21  C   UNL     1      43.830 -10.332   9.953  1.00  0.00     0.277 A 
HETATM   22  C   UNL     1      42.405  -8.539  10.622  1.00  0.00     0.027 A 
HETATM   23  O   UNL     1      44.323 -11.212   9.279  1.00  0.00    -0.266 OA
HETATM   24  N   UNL     1      44.166  -9.897  11.217  1.00  0.00    -0.321 N 
HETATM   25  C   UNL     1      43.337  -8.848  11.611  1.00  0.00     0.048 A 
HETATM   26  H   UNL     1      44.916 -10.295  11.762  1.00  0.00     0.169 HD
HETATM   27  C   UNL     1      43.373  -8.153  12.802  1.00  0.00     0.030 A 
HETATM   28  C   UNL     1      42.435  -7.126  12.973  1.00  0.00     0.002 A 
HETATM   29  C   UNL     1      41.495  -6.819  11.968  1.00  0.00     0.001 A 
HETATM   30  C   UNL     1      41.473  -7.532  10.767  1.00  0.00     0.016 A 
ENDBRANCH   2  19
TORSDOF 4
ENDMDL
MODEL 10
REMARK VINA RESULT:      -7.7      6.154      8.059
REMARK  4 active torsions:
REMARK  status: ('A' for Active; 'I' for Inactive)
REMARK    1  A    between atoms: O_2  and  C_3 
REMARK    2  A    between atoms: C_4  and  C_5 
REMARK    3  A    between atoms: C_9  and  C_10 
REMARK       I    between atoms: C_10  and  N_11 
REMARK    4  A    between atoms: N_11  and  N_12 
ROOT
HETATM    1  C   UNL     1      41.266 -12.432   5.360  1.00  0.00     0.289 C 
HETATM    2  N   UNL     1      42.140 -11.574   6.008  1.00  0.00    -0.241 N 
HETATM    3  O   UNL     1      40.046 -12.288   5.344  1.00  0.00    -0.264 OA
HETATM    4  H   UNL     1      43.147 -11.730   5.971  1.00  0.00     0.192 HD
ENDROOT
BRANCH   1   5
HETATM    5  C   UNL     1      41.894 -13.526   4.663  1.00  0.00     0.121 A 
HETATM    6  N   UNL     1      42.639 -13.309   3.536  1.00  0.00    -0.272 N 
HETATM    7  N   UNL     1      43.204 -14.412   3.025  1.00  0.00    -0.174 NA
HETATM    8  H   UNL     1      42.810 -12.414   3.089  1.00  0.00     0.189 HD
HETATM    9  C   UNL     1      42.764 -15.407   3.811  1.00  0.00     0.092 A 
HETATM   10  C   UNL     1      41.948 -14.892   4.859  1.00  0.00     0.071 A 
BRANCH   9  11
HETATM   11  C   UNL     1      43.163 -16.798   3.602  1.00  0.00     0.028 A 
HETATM   12  C   UNL     1      43.959 -17.501   4.522  1.00  0.00     0.080 A 
HETATM   13  C   UNL     1      44.320 -18.831   4.278  1.00  0.00     0.037 A 
HETATM   14  C   UNL     1      43.866 -19.482   3.131  1.00  0.00     0.003 A 
HETATM   15  C   UNL     1      43.067 -18.800   2.216  1.00  0.00     0.001 A 
HETATM   16  C   UNL     1      42.721 -17.466   2.448  1.00  0.00     0.017 A 
BRANCH  12  17
HETATM   17  O   UNL     1      44.482 -16.864   5.620  1.00  0.00    -0.355 OA
HETATM   18  C   UNL     1      43.848 -17.314   6.817  1.00  0.00     0.210 C 
ENDBRANCH  12  17
ENDBRANCH   9  11
ENDBRANCH   1   5
BRANCH   2  19
HETATM   19  N   UNL     1      41.664 -10.467   6.661  1.00  0.00    -0.165 NA
HETATM   20  C   UNL     1      42.523  -9.781   7.344  1.00  0.00     0.157 A 
HETATM   21  C   UNL     1      44.022 -10.037   7.525  1.00  0.00     0.277 A 
HETATM   22  C   UNL     1      42.231  -8.569   8.102  1.00  0.00     0.027 A 
HETATM   23  O   UNL     1      44.629 -10.963   7.030  1.00  0.00    -0.266 OA
HETATM   24  N   UNL     1      44.478  -9.017   8.332  1.00  0.00    -0.321 N 
HETATM   25  C   UNL     1      43.435  -8.156   8.670  1.00  0.00     0.048 A 
HETATM   26  H   UNL     1      45.440  -8.923   8.622  1.00  0.00     0.169 HD
HETATM   27  C   UNL     1      43.504  -7.022   9.453  1.00  0.00     0.030 A 
HETATM   28  C   UNL     1      42.315  -6.307   9.651  1.00  0.00     0.002 A 
HETATM   29  C   UNL     1      41.101  -6.733   9.073  1.00  0.00     0.001 A 
HETATM   30  C   UNL     1      41.049  -7.883   8.282  1.00  0.00     0.016 A 
ENDBRANCH   2  19
TORSDOF 4
ENDMDL
