MODEL 1
REMARK VINA RESULT:     -10.0      0.000      0.000
REMARK  8 active torsions:
REMARK  status: ('A' for Active; 'I' for Inactive)
REMARK    1  A    between atoms: C_3  and  N_4 
REMARK       I    between atoms: N_4  and  C_5 
REMARK    2  A    between atoms: C_5  and  C_6 
REMARK    3  A    between atoms: C_6  and  S_7 
REMARK    4  A    between atoms: S_7  and  C_8 
REMARK    5  A    between atoms: N_9  and  C_10 
REMARK    6  A    between atoms: C_10  and  C_11 
REMARK       I    between atoms: C_11  and  N_12 
REMARK    7  A    between atoms: N_12  and  C_13 
REMARK    8  A    between atoms: C_20  and  C_21 
ROOT
HETATM    1  C   UNL     1      40.872 -13.638   4.951  1.00  0.00     0.169 A 
HETATM    2  N   UNL     1      40.994 -14.691   4.073  1.00  0.00    -0.315 N 
HETATM    3  C   UNL     1      41.944 -15.551   4.604  1.00  0.00     0.065 A 
HETATM    4  C   UNL     1      42.235 -15.005   5.844  1.00  0.00     0.150 A 
HETATM    5  N   UNL     1      41.547 -13.842   6.057  1.00  0.00    -0.234 NA
ENDROOT
BRANCH   1   6
HETATM    6  S   UNL     1      39.980 -12.198   4.593  1.00  0.00    -0.083 SA
BRANCH   6   7
HETATM    7  C   UNL     1      40.289 -11.195   6.069  1.00  0.00     0.185 C 
BRANCH   7   8
HETATM    8  C   UNL     1      41.668 -10.551   6.049  1.00  0.00     0.231 C 
HETATM    9  N   UNL     1      42.416 -10.831   7.178  1.00  0.00    -0.326 N 
HETATM   10  H   UNL     1      41.932 -11.377   7.891  1.00  0.00     0.169 HD
HETATM   11  O   UNL     1      41.982  -9.785   5.140  1.00  0.00    -0.272 OA
BRANCH   9  12
HETATM   12  C   UNL     1      43.642 -10.246   7.564  1.00  0.00     0.046 A 
HETATM   13  C   UNL     1      44.820 -10.985   7.284  1.00  0.00    -0.035 A 
HETATM   14  C   UNL     1      44.781 -12.343   6.632  1.00  0.00     0.050 C 
HETATM   15  C   UNL     1      46.072 -10.471   7.659  1.00  0.00     0.009 A 
HETATM   16  C   UNL     1      46.169  -9.245   8.303  1.00  0.00     0.001 A 
HETATM   17  C   UNL     1      45.017  -8.503   8.549  1.00  0.00     0.009 A 
HETATM   18  C   UNL     1      43.749  -8.973   8.159  1.00  0.00    -0.035 A 
HETATM   19  C   UNL     1      42.592  -8.030   8.357  1.00  0.00     0.050 C 
ENDBRANCH   9  12
ENDBRANCH   7   8
ENDBRANCH   6   7
ENDBRANCH   1   6
BRANCH   2  20
HETATM   20  C   UNL     1      40.177 -14.917   2.891  1.00  0.00     0.234 C 
BRANCH  20  21
HETATM   21  C   UNL     1      40.577 -14.238   1.599  1.00  0.00     0.236 C 
HETATM   22  N   UNL     1      39.662 -14.156   0.581  1.00  0.00    -0.355 N 
HETATM   23  H   UNL     1      38.732 -14.517   0.750  1.00  0.00     0.162 HD
HETATM   24  O   UNL     1      41.715 -13.779   1.517  1.00  0.00    -0.272 OA
BRANCH  22  25
HETATM   25  C   UNL     1      39.794 -13.356  -0.641  1.00  0.00     0.084 C 
HETATM   26  C   UNL     1      40.190 -14.205  -1.855  1.00  0.00     0.025 C 
HETATM   27  C   UNL     1      39.009 -14.786  -2.619  1.00  0.00     0.002 C 
HETATM   28  C   UNL     1      38.038 -13.691  -3.037  1.00  0.00     0.000 C 
HETATM   29  C   UNL     1      37.531 -12.882  -1.849  1.00  0.00     0.002 C 
HETATM   30  C   UNL     1      38.646 -12.375  -0.932  1.00  0.00     0.025 C 
ENDBRANCH  22  25
ENDBRANCH  20  21
ENDBRANCH   2  20
BRANCH   3  31
HETATM   31  C   UNL     1      42.558 -16.702   3.951  1.00  0.00    -0.008 A 
HETATM   32  C   UNL     1      42.130 -17.161   2.699  1.00  0.00     0.017 A 
HETATM   33  C   UNL     1      42.746 -18.266   2.105  1.00  0.00     0.043 A 
HETATM   34  C   UNL     1      43.775 -18.922   2.769  1.00  0.00     0.116 A 
HETATM   35  F   UNL     1      44.361 -19.982   2.198  1.00  0.00    -0.206 F 
HETATM   36  C   UNL     1      44.199 -18.499   4.022  1.00  0.00     0.043 A 
HETATM   37  C   UNL     1      43.590 -17.389   4.612  1.00  0.00     0.017 A 
ENDBRANCH   3  31
TORSDOF 8
ENDMDL
MODEL 2
REMARK VINA RESULT:      -9.9      0.189      1.486
REMARK  8 active torsions:
REMARK  status: ('A' for Active; 'I' for Inactive)
REMARK    1  A    between atoms: C_3  and  N_4 
REMARK       I    between atoms: N_4  and  C_5 
REMARK    2  A    between atoms: C_5  and  C_6 
REMARK    3  A    between atoms: C_6  and  S_7 
REMARK    4  A    between atoms: S_7  and  C_8 
REMARK    5  A    between atoms: N_9  and  C_10 
REMARK    6  A    between atoms: C_10  and  C_11 
REMARK       I    between atoms: C_11  and  N_12 
REMARK    7  A    between atoms: N_12  and  C_13 
REMARK    8  A    between atoms: C_20  and  C_21 
ROOT
HETATM    1  C   UNL     1      40.763 -13.495   4.841  1.00  0.00     0.169 A 
HETATM    2  N   UNL     1      40.902 -14.571   3.993  1.00  0.00    -0.315 N 
HETATM    3  C   UNL     1      41.854 -15.408   4.556  1.00  0.00     0.065 A 
HETATM    4  C   UNL     1      42.130 -14.825   5.782  1.00  0.00     0.150 A 
HETATM    5  N   UNL     1      41.431 -13.662   5.958  1.00  0.00    -0.234 NA
ENDROOT
BRANCH   1   6
HETATM    6  S   UNL     1      39.863 -12.073   4.436  1.00  0.00    -0.083 SA
BRANCH   6   7
HETATM    7  C   UNL     1      40.255 -10.979   5.824  1.00  0.00     0.185 C 
BRANCH   7   8
HETATM    8  C   UNL     1      41.719 -10.562   5.833  1.00  0.00     0.231 C 
HETATM    9  N   UNL     1      42.319 -10.709   7.070  1.00  0.00    -0.326 N 
HETATM   10  H   UNL     1      41.698 -11.019   7.817  1.00  0.00     0.169 HD
HETATM   11  O   UNL     1      42.225 -10.054   4.835  1.00  0.00    -0.272 OA
BRANCH   9  12
HETATM   12  C   UNL     1      43.592 -10.243   7.469  1.00  0.00     0.046 A 
HETATM   13  C   UNL     1      43.630  -9.019   8.184  1.00  0.00    -0.035 A 
HETATM   14  C   UNL     1      42.385  -8.226   8.489  1.00  0.00     0.050 C 
HETATM   15  C   UNL     1      44.865  -8.488   8.593  1.00  0.00     0.009 A 
HETATM   16  C   UNL     1      46.050  -9.151   8.303  1.00  0.00     0.001 A 
HETATM   17  C   UNL     1      46.012 -10.368   7.630  1.00  0.00     0.009 A 
HETATM   18  C   UNL     1      44.790 -10.945   7.233  1.00  0.00    -0.035 A 
HETATM   19  C   UNL     1      44.861 -12.323   6.631  1.00  0.00     0.050 C 
ENDBRANCH   9  12
ENDBRANCH   7   8
ENDBRANCH   6   7
ENDBRANCH   1   6
BRANCH   2  20
HETATM   20  C   UNL     1      40.096 -14.837   2.811  1.00  0.00     0.234 C 
BRANCH  20  21
HETATM   21  C   UNL     1      40.487 -14.171   1.509  1.00  0.00     0.236 C 
HETATM   22  N   UNL     1      39.553 -14.065   0.512  1.00  0.00    -0.355 N 
HETATM   23  H   UNL     1      38.617 -14.400   0.701  1.00  0.00     0.162 HD
HETATM   24  O   UNL     1      41.636 -13.745   1.402  1.00  0.00    -0.272 OA
BRANCH  22  25
HETATM   25  C   UNL     1      39.682 -13.271  -0.715  1.00  0.00     0.084 C 
HETATM   26  C   UNL     1      40.166 -14.109  -1.905  1.00  0.00     0.025 C 
HETATM   27  C   UNL     1      39.046 -14.764  -2.701  1.00  0.00     0.002 C 
HETATM   28  C   UNL     1      38.030 -13.730  -3.164  1.00  0.00     0.000 C 
HETATM   29  C   UNL     1      37.438 -12.939  -2.004  1.00  0.00     0.002 C 
HETATM   30  C   UNL     1      38.491 -12.360  -1.056  1.00  0.00     0.025 C 
ENDBRANCH  22  25
ENDBRANCH  20  21
ENDBRANCH   2  20
BRANCH   3  31
HETATM   31  C   UNL     1      42.483 -16.571   3.939  1.00  0.00    -0.008 A 
HETATM   32  C   UNL     1      42.087 -17.053   2.686  1.00  0.00     0.017 A 
HETATM   33  C   UNL     1      42.716 -18.169   2.128  1.00  0.00     0.043 A 
HETATM   34  C   UNL     1      43.727 -18.814   2.831  1.00  0.00     0.116 A 
HETATM   35  F   UNL     1      44.326 -19.884   2.294  1.00  0.00    -0.206 F 
HETATM   36  C   UNL     1      44.120 -18.367   4.085  1.00  0.00     0.043 A 
HETATM   37  C   UNL     1      43.497 -17.247   4.639  1.00  0.00     0.017 A 
ENDBRANCH   3  31
TORSDOF 8
ENDMDL
MODEL 3
REMARK VINA RESULT:      -9.8      3.939      9.555
REMARK  8 active torsions:
REMARK  status: ('A' for Active; 'I' for Inactive)
REMARK    1  A    between atoms: C_3  and  N_4 
REMARK       I    between atoms: N_4  and  C_5 
REMARK    2  A    between atoms: C_5  and  C_6 
REMARK    3  A    between atoms: C_6  and  S_7 
REMARK    4  A    between atoms: S_7  and  C_8 
REMARK    5  A    between atoms: N_9  and  C_10 
REMARK    6  A    between atoms: C_10  and  C_11 
REMARK       I    between atoms: C_11  and  N_12 
REMARK    7  A    between atoms: N_12  and  C_13 
REMARK    8  A    between atoms: C_20  and  C_21 
ROOT
HETATM    1  C   UNL     1      42.780 -11.934   5.845  1.00  0.00     0.169 A 
HETATM    2  N   UNL     1      42.535 -10.925   6.748  1.00  0.00    -0.315 N 
HETATM    3  C   UNL     1      43.586 -10.929   7.653  1.00  0.00     0.065 A 
HETATM    4  C   UNL     1      44.462 -11.874   7.146  1.00  0.00     0.150 A 
HETATM    5  N   UNL     1      43.967 -12.466   6.016  1.00  0.00    -0.234 NA
ENDROOT
BRANCH   1   6
HETATM    6  S   UNL     1      41.623 -12.467   4.673  1.00  0.00    -0.083 SA
BRANCH   6   7
HETATM    7  C   UNL     1      40.628 -13.633   5.637  1.00  0.00     0.185 C 
BRANCH   7   8
HETATM    8  C   UNL     1      41.151 -15.059   5.531  1.00  0.00     0.231 C 
HETATM    9  N   UNL     1      42.262 -15.171   4.715  1.00  0.00    -0.326 N 
HETATM   10  H   UNL     1      42.549 -14.308   4.254  1.00  0.00     0.169 HD
HETATM   11  O   UNL     1      40.538 -15.985   6.056  1.00  0.00    -0.272 OA
BRANCH   9  12
HETATM   12  C   UNL     1      42.872 -16.359   4.253  1.00  0.00     0.046 A 
HETATM   13  C   UNL     1      42.440 -16.854   2.996  1.00  0.00    -0.035 A 
HETATM   14  C   UNL     1      41.362 -16.173   2.192  1.00  0.00     0.050 C 
HETATM   15  C   UNL     1      42.990 -18.041   2.487  1.00  0.00     0.009 A 
HETATM   16  C   UNL     1      43.955 -18.737   3.203  1.00  0.00     0.001 A 
HETATM   17  C   UNL     1      44.405 -18.236   4.420  1.00  0.00     0.009 A 
HETATM   18  C   UNL     1      43.898 -17.032   4.946  1.00  0.00    -0.035 A 
HETATM   19  C   UNL     1      44.550 -16.519   6.202  1.00  0.00     0.050 C 
ENDBRANCH   9  12
ENDBRANCH   7   8
ENDBRANCH   6   7
ENDBRANCH   1   6
BRANCH   2  20
HETATM   20  C   UNL     1      41.452  -9.956   6.673  1.00  0.00     0.234 C 
BRANCH  20  21
HETATM   21  C   UNL     1      40.279 -10.113   7.616  1.00  0.00     0.236 C 
HETATM   22  N   UNL     1      40.365  -9.583   8.877  1.00  0.00    -0.355 N 
HETATM   23  H   UNL     1      41.200  -9.064   9.117  1.00  0.00     0.162 HD
HETATM   24  O   UNL     1      39.286 -10.712   7.205  1.00  0.00    -0.272 OA
BRANCH  22  25
HETATM   25  C   UNL     1      39.265  -9.449   9.837  1.00  0.00     0.084 C 
HETATM   26  C   UNL     1      39.604 -10.057  11.204  1.00  0.00     0.025 C 
HETATM   27  C   UNL     1      40.278  -9.087  12.165  1.00  0.00     0.002 C 
HETATM   28  C   UNL     1      39.444  -7.827  12.343  1.00  0.00     0.000 C 
HETATM   29  C   UNL     1      39.166  -7.125  11.019  1.00  0.00     0.002 C 
HETATM   30  C   UNL     1      38.621  -8.055   9.934  1.00  0.00     0.025 C 
ENDBRANCH  22  25
ENDBRANCH  20  21
ENDBRANCH   2  20
BRANCH   3  31
HETATM   31  C   UNL     1      43.681 -10.178   8.901  1.00  0.00    -0.008 A 
HETATM   32  C   UNL     1      43.806  -8.784   8.921  1.00  0.00     0.017 A 
HETATM   33  C   UNL     1      43.891  -8.101  10.137  1.00  0.00     0.043 A 
HETATM   34  C   UNL     1      43.871  -8.813  11.331  1.00  0.00     0.116 A 
HETATM   35  F   UNL     1      43.956  -8.155  12.494  1.00  0.00    -0.206 F 
HETATM   36  C   UNL     1      43.772 -10.197  11.334  1.00  0.00     0.043 A 
HETATM   37  C   UNL     1      43.678 -10.879  10.118  1.00  0.00     0.017 A 
ENDBRANCH   3  31
TORSDOF 8
ENDMDL
MODEL 4
REMARK VINA RESULT:      -9.5      1.577      2.012
REMARK  8 active torsions:
REMARK  status: ('A' for Active; 'I' for Inactive)
REMARK    1  A    between atoms: C_3  and  N_4 
REMARK       I    between atoms: N_4  and  C_5 
REMARK    2  A    between atoms: C_5  and  C_6 
REMARK    3  A    between atoms: C_6  and  S_7 
REMARK    4  A    between atoms: S_7  and  C_8 
REMARK    5  A    between atoms: N_9  and  C_10 
REMARK    6  A    between atoms: C_10  and  C_11 
REMARK       I    between atoms: C_11  and  N_12 
REMARK    7  A    between atoms: N_12  and  C_13 
REMARK    8  A    between atoms: C_20  and  C_21 
ROOT
HETATM    1  C   UNL     1      42.756 -13.016   4.715  1.00  0.00     0.169 A 
HETATM    2  N   UNL     1      42.847 -14.018   3.775  1.00  0.00    -0.315 N 
HETATM    3  C   UNL     1      42.914 -15.217   4.470  1.00  0.00     0.065 A 
HETATM    4  C   UNL     1      42.730 -14.850   5.792  1.00  0.00     0.150 A 
HETATM    5  N   UNL     1      42.606 -13.494   5.928  1.00  0.00    -0.234 NA
ENDROOT
BRANCH   1   6
HETATM    6  S   UNL     1      42.891 -11.334   4.330  1.00  0.00    -0.083 SA
BRANCH   6   7
HETATM    7  C   UNL     1      41.653 -10.601   5.429  1.00  0.00     0.185 C 
BRANCH   7   8
HETATM    8  C   UNL     1      42.286  -9.757   6.526  1.00  0.00     0.231 C 
HETATM    9  N   UNL     1      42.756 -10.509   7.588  1.00  0.00    -0.326 N 
HETATM   10  H   UNL     1      42.571 -11.510   7.523  1.00  0.00     0.169 HD
HETATM   11  O   UNL     1      42.254  -8.530   6.462  1.00  0.00    -0.272 OA
BRANCH   9  12
HETATM   12  C   UNL     1      43.218 -10.038   8.837  1.00  0.00     0.046 A 
HETATM   13  C   UNL     1      44.615 -10.113   9.073  1.00  0.00    -0.035 A 
HETATM   14  C   UNL     1      45.571 -10.691   8.062  1.00  0.00     0.050 C 
HETATM   15  C   UNL     1      45.139  -9.681  10.303  1.00  0.00     0.009 A 
HETATM   16  C   UNL     1      44.301  -9.180  11.291  1.00  0.00     0.001 A 
HETATM   17  C   UNL     1      42.935  -9.074  11.049  1.00  0.00     0.009 A 
HETATM   18  C   UNL     1      42.380  -9.469   9.816  1.00  0.00    -0.035 A 
HETATM   19  C   UNL     1      40.915  -9.187   9.618  1.00  0.00     0.050 C 
ENDBRANCH   9  12
ENDBRANCH   7   8
ENDBRANCH   6   7
ENDBRANCH   1   6
BRANCH   2  20
HETATM   20  C   UNL     1      42.745 -13.849   2.334  1.00  0.00     0.234 C 
BRANCH  20  21
HETATM   21  C   UNL     1      41.369 -13.722   1.719  1.00  0.00     0.236 C 
HETATM   22  N   UNL     1      41.262 -13.387   0.394  1.00  0.00    -0.355 N 
HETATM   23  H   UNL     1      42.115 -13.279  -0.138  1.00  0.00     0.162 HD
HETATM   24  O   UNL     1      40.394 -13.932   2.440  1.00  0.00    -0.272 OA
BRANCH  22  25
HETATM   25  C   UNL     1      40.039 -13.432  -0.415  1.00  0.00     0.084 C 
HETATM   26  C   UNL     1      39.289 -12.094  -0.414  1.00  0.00     0.025 C 
HETATM   27  C   UNL     1      39.727 -11.136  -1.513  1.00  0.00     0.002 C 
HETATM   28  C   UNL     1      39.627 -11.794  -2.881  1.00  0.00     0.000 C 
HETATM   29  C   UNL     1      40.442 -13.078  -2.968  1.00  0.00     0.002 C 
HETATM   30  C   UNL     1      40.179 -14.050  -1.816  1.00  0.00     0.025 C 
ENDBRANCH  22  25
ENDBRANCH  20  21
ENDBRANCH   2  20
BRANCH   3  31
HETATM   31  C   UNL     1      43.214 -16.538   3.926  1.00  0.00    -0.008 A 
HETATM   32  C   UNL     1      42.613 -17.011   2.754  1.00  0.00     0.017 A 
HETATM   33  C   UNL     1      42.928 -18.282   2.263  1.00  0.00     0.043 A 
HETATM   34  C   UNL     1      43.828 -19.084   2.954  1.00  0.00     0.116 A 
HETATM   35  F   UNL     1      44.126 -20.301   2.483  1.00  0.00    -0.206 F 
HETATM   36  C   UNL     1      44.418 -18.643   4.132  1.00  0.00     0.043 A 
HETATM   37  C   UNL     1      44.109 -17.370   4.617  1.00  0.00     0.017 A 
ENDBRANCH   3  31
TORSDOF 8
ENDMDL
MODEL 5
REMARK VINA RESULT:      -9.3      2.707      4.852
REMARK  8 active torsions:
REMARK  status: ('A' for Active; 'I' for Inactive)
REMARK    1  A    between atoms: C_3  and  N_4 
REMARK       I    between atoms: N_4  and  C_5 
REMARK    2  A    between atoms: C_5  and  C_6 
REMARK    3  A    between atoms: C_6  and  S_7 
REMARK    4  A    between atoms: S_7  and  C_8 
REMARK    5  A    between atoms: N_9  and  C_10 
REMARK    6  A    between atoms: C_10  and  C_11 
REMARK       I    between atoms: C_11  and  N_12 
REMARK    7  A    between atoms: N_12  and  C_13 
REMARK    8  A    between atoms: C_20  and  C_21 
ROOT
HETATM    1  C   UNL     1      40.693 -10.856   3.313  1.00  0.00     0.169 A 
HETATM    2  N   UNL     1      40.588 -12.210   3.532  1.00  0.00    -0.315 N 
HETATM    3  C   UNL     1      41.623 -12.813   2.833  1.00  0.00     0.065 A 
HETATM    4  C   UNL     1      42.359 -11.749   2.339  1.00  0.00     0.150 A 
HETATM    5  N   UNL     1      41.792 -10.547   2.666  1.00  0.00    -0.234 NA
ENDROOT
BRANCH   1   6
HETATM    6  S   UNL     1      39.478  -9.717   3.787  1.00  0.00    -0.083 SA
BRANCH   6   7
HETATM    7  C   UNL     1      39.716  -9.645   5.580  1.00  0.00     0.185 C 
BRANCH   7   8
HETATM    8  C   UNL     1      41.163  -9.362   5.957  1.00  0.00     0.231 C 
HETATM    9  N   UNL     1      41.723 -10.351   6.747  1.00  0.00    -0.326 N 
HETATM   10  H   UNL     1      41.085 -11.101   7.015  1.00  0.00     0.169 HD
HETATM   11  O   UNL     1      41.689  -8.295   5.648  1.00  0.00    -0.272 OA
BRANCH   9  12
HETATM   12  C   UNL     1      42.963 -10.313   7.422  1.00  0.00     0.046 A 
HETATM   13  C   UNL     1      44.079 -10.866   6.743  1.00  0.00    -0.035 A 
HETATM   14  C   UNL     1      43.959 -11.492   5.377  1.00  0.00     0.050 C 
HETATM   15  C   UNL     1      45.338 -10.879   7.365  1.00  0.00     0.009 A 
HETATM   16  C   UNL     1      45.501 -10.356   8.641  1.00  0.00     0.001 A 
HETATM   17  C   UNL     1      44.415  -9.784   9.296  1.00  0.00     0.009 A 
HETATM   18  C   UNL     1      43.145  -9.725   8.689  1.00  0.00    -0.035 A 
HETATM   19  C   UNL     1      42.079  -8.968   9.434  1.00  0.00     0.050 C 
ENDBRANCH   9  12
ENDBRANCH   7   8
ENDBRANCH   6   7
ENDBRANCH   1   6
BRANCH   2  20
HETATM   20  C   UNL     1      39.654 -12.860   4.439  1.00  0.00     0.234 C 
BRANCH  20  21
HETATM   21  C   UNL     1      40.187 -13.425   5.737  1.00  0.00     0.236 C 
HETATM   22  N   UNL     1      40.921 -14.582   5.706  1.00  0.00    -0.355 N 
HETATM   23  H   UNL     1      41.117 -14.995   4.803  1.00  0.00     0.162 HD
HETATM   24  O   UNL     1      39.941 -12.813   6.776  1.00  0.00    -0.272 OA
BRANCH  22  25
HETATM   25  C   UNL     1      41.690 -15.150   6.818  1.00  0.00     0.084 C 
HETATM   26  C   UNL     1      41.793 -16.679   6.737  1.00  0.00     0.025 C 
HETATM   27  C   UNL     1      42.986 -17.179   5.934  1.00  0.00     0.002 C 
HETATM   28  C   UNL     1      44.286 -16.592   6.466  1.00  0.00     0.000 C 
HETATM   29  C   UNL     1      44.275 -15.068   6.469  1.00  0.00     0.002 C 
HETATM   30  C   UNL     1      43.032 -14.465   7.128  1.00  0.00     0.025 C 
ENDBRANCH  22  25
ENDBRANCH  20  21
ENDBRANCH   2  20
BRANCH   3  31
HETATM   31  C   UNL     1      41.816 -14.240   2.596  1.00  0.00    -0.008 A 
HETATM   32  C   UNL     1      40.775 -15.068   2.161  1.00  0.00     0.017 A 
HETATM   33  C   UNL     1      41.001 -16.430   1.943  1.00  0.00     0.043 A 
HETATM   34  C   UNL     1      42.262 -16.966   2.177  1.00  0.00     0.116 A 
HETATM   35  F   UNL     1      42.474 -18.272   1.970  1.00  0.00    -0.206 F 
HETATM   36  C   UNL     1      43.303 -16.168   2.631  1.00  0.00     0.043 A 
HETATM   37  C   UNL     1      43.079 -14.805   2.841  1.00  0.00     0.017 A 
ENDBRANCH   3  31
TORSDOF 8
ENDMDL
MODEL 6
REMARK VINA RESULT:      -9.3      3.815      7.572
REMARK  8 active torsions:
REMARK  status: ('A' for Active; 'I' for Inactive)
REMARK    1  A    between atoms: C_3  and  N_4 
REMARK       I    between atoms: N_4  and  C_5 
REMARK    2  A    between atoms: C_5  and  C_6 
REMARK    3  A    between atoms: C_6  and  S_7 
REMARK    4  A    between atoms: S_7  and  C_8 
REMARK    5  A    between atoms: N_9  and  C_10 
REMARK    6  A    between atoms: C_10  and  C_11 
REMARK       I    between atoms: C_11  and  N_12 
REMARK    7  A    between atoms: N_12  and  C_13 
REMARK    8  A    between atoms: C_20  and  C_21 
ROOT
HETATM    1  C   UNL     1      40.072 -13.670   1.423  1.00  0.00     0.169 A 
HETATM    2  N   UNL     1      40.617 -14.630   2.246  1.00  0.00    -0.315 N 
HETATM    3  C   UNL     1      40.589 -14.119   3.535  1.00  0.00     0.065 A 
HETATM    4  C   UNL     1      39.905 -12.922   3.407  1.00  0.00     0.150 A 
HETATM    5  N   UNL     1      39.567 -12.669   2.106  1.00  0.00    -0.234 NA
ENDROOT
BRANCH   1   6
HETATM    6  S   UNL     1      40.117 -13.759  -0.305  1.00  0.00    -0.083 SA
BRANCH   6   7
HETATM    7  C   UNL     1      38.654 -12.795  -0.764  1.00  0.00     0.185 C 
BRANCH   7   8
HETATM    8  C   UNL     1      39.017 -11.409  -1.277  1.00  0.00     0.231 C 
HETATM    9  N   UNL     1      40.382 -11.198  -1.356  1.00  0.00    -0.326 N 
HETATM   10  H   UNL     1      40.958 -11.967  -1.012  1.00  0.00     0.169 HD
HETATM   11  O   UNL     1      38.139 -10.574  -1.482  1.00  0.00    -0.272 OA
BRANCH   9  12
HETATM   12  C   UNL     1      41.050  -9.979  -1.605  1.00  0.00     0.046 A 
HETATM   13  C   UNL     1      41.667  -9.349  -0.494  1.00  0.00    -0.035 A 
HETATM   14  C   UNL     1      41.600  -9.925   0.897  1.00  0.00     0.050 C 
HETATM   15  C   UNL     1      42.331  -8.123  -0.667  1.00  0.00     0.009 A 
HETATM   16  C   UNL     1      42.389  -7.521  -1.917  1.00  0.00     0.001 A 
HETATM   17  C   UNL     1      41.813  -8.154  -3.014  1.00  0.00     0.009 A 
HETATM   18  C   UNL     1      41.166  -9.398  -2.883  1.00  0.00    -0.035 A 
HETATM   19  C   UNL     1      40.697 -10.049  -4.156  1.00  0.00     0.050 C 
ENDBRANCH   9  12
ENDBRANCH   7   8
ENDBRANCH   6   7
ENDBRANCH   1   6
BRANCH   2  20
HETATM   20  C   UNL     1      41.010 -15.973   1.848  1.00  0.00     0.234 C 
BRANCH  20  21
HETATM   21  C   UNL     1      42.425 -16.423   2.136  1.00  0.00     0.236 C 
HETATM   22  N   UNL     1      42.623 -17.512   2.944  1.00  0.00    -0.355 N 
HETATM   23  H   UNL     1      41.808 -18.004   3.286  1.00  0.00     0.162 HD
HETATM   24  O   UNL     1      43.347 -15.790   1.623  1.00  0.00    -0.272 OA
BRANCH  22  25
HETATM   25  C   UNL     1      43.894 -18.215   3.155  1.00  0.00     0.084 C 
HETATM   26  C   UNL     1      44.375 -18.130   4.609  1.00  0.00     0.025 C 
HETATM   27  C   UNL     1      43.854 -19.247   5.502  1.00  0.00     0.002 C 
HETATM   28  C   UNL     1      44.186 -20.612   4.918  1.00  0.00     0.000 C 
HETATM   29  C   UNL     1      43.637 -20.787   3.507  1.00  0.00     0.002 C 
HETATM   30  C   UNL     1      43.985 -19.633   2.565  1.00  0.00     0.025 C 
ENDBRANCH  22  25
ENDBRANCH  20  21
ENDBRANCH   2  20
BRANCH   3  31
HETATM   31  C   UNL     1      41.229 -14.679   4.721  1.00  0.00    -0.008 A 
HETATM   32  C   UNL     1      40.616 -15.671   5.497  1.00  0.00     0.017 A 
HETATM   33  C   UNL     1      41.262 -16.183   6.625  1.00  0.00     0.043 A 
HETATM   34  C   UNL     1      42.511 -15.692   6.988  1.00  0.00     0.116 A 
HETATM   35  F   UNL     1      43.126 -16.183   8.070  1.00  0.00    -0.206 F 
HETATM   36  C   UNL     1      43.126 -14.691   6.247  1.00  0.00     0.043 A 
HETATM   37  C   UNL     1      42.484 -14.185   5.114  1.00  0.00     0.017 A 
ENDBRANCH   3  31
TORSDOF 8
ENDMDL
MODEL 7
REMARK VINA RESULT:      -9.3      2.919      4.576
REMARK  8 active torsions:
REMARK  status: ('A' for Active; 'I' for Inactive)
REMARK    1  A    between atoms: C_3  and  N_4 
REMARK       I    between atoms: N_4  and  C_5 
REMARK    2  A    between atoms: C_5  and  C_6 
REMARK    3  A    between atoms: C_6  and  S_7 
REMARK    4  A    between atoms: S_7  and  C_8 
REMARK    5  A    between atoms: N_9  and  C_10 
REMARK    6  A    between atoms: C_10  and  C_11 
REMARK       I    between atoms: C_11  and  N_12 
REMARK    7  A    between atoms: N_12  and  C_13 
REMARK    8  A    between atoms: C_20  and  C_21 
ROOT
HETATM    1  C   UNL     1      42.695 -11.128   6.359  1.00  0.00     0.169 A 
HETATM    2  N   UNL     1      42.250 -12.429   6.305  1.00  0.00    -0.315 N 
HETATM    3  C   UNL     1      43.309 -13.234   6.701  1.00  0.00     0.065 A 
HETATM    4  C   UNL     1      44.287 -12.334   7.090  1.00  0.00     0.150 A 
HETATM    5  N   UNL     1      43.887 -11.039   6.901  1.00  0.00    -0.234 NA
ENDROOT
BRANCH   1   6
HETATM    6  S   UNL     1      41.801  -9.788   5.724  1.00  0.00    -0.083 SA
BRANCH   6   7
HETATM    7  C   UNL     1      40.752  -9.342   7.131  1.00  0.00     0.185 C 
BRANCH   7   8
HETATM    8  C   UNL     1      41.542  -8.676   8.248  1.00  0.00     0.231 C 
HETATM    9  N   UNL     1      41.474  -9.364   9.447  1.00  0.00    -0.326 N 
HETATM   10  H   UNL     1      40.868 -10.184   9.440  1.00  0.00     0.169 HD
HETATM   11  O   UNL     1      42.075  -7.584   8.066  1.00  0.00    -0.272 OA
BRANCH   9  12
HETATM   12  C   UNL     1      41.925  -8.930  10.714  1.00  0.00     0.046 A 
HETATM   13  C   UNL     1      40.933  -8.512  11.637  1.00  0.00    -0.035 A 
HETATM   14  C   UNL     1      39.466  -8.499  11.291  1.00  0.00     0.050 C 
HETATM   15  C   UNL     1      41.314  -8.049  12.908  1.00  0.00     0.009 A 
HETATM   16  C   UNL     1      42.653  -7.996  13.269  1.00  0.00     0.001 A 
HETATM   17  C   UNL     1      43.626  -8.436  12.376  1.00  0.00     0.009 A 
HETATM   18  C   UNL     1      43.278  -8.936  11.106  1.00  0.00    -0.035 A 
HETATM   19  C   UNL     1      44.399  -9.505  10.277  1.00  0.00     0.050 C 
ENDBRANCH   9  12
ENDBRANCH   7   8
ENDBRANCH   6   7
ENDBRANCH   1   6
BRANCH   2  20
HETATM   20  C   UNL     1      40.888 -12.856   6.023  1.00  0.00     0.234 C 
BRANCH  20  21
HETATM   21  C   UNL     1      40.539 -13.256   4.606  1.00  0.00     0.236 C 
HETATM   22  N   UNL     1      41.488 -13.880   3.839  1.00  0.00    -0.355 N 
HETATM   23  H   UNL     1      42.380 -14.091   4.268  1.00  0.00     0.162 HD
HETATM   24  O   UNL     1      39.405 -13.007   4.200  1.00  0.00    -0.272 OA
BRANCH  22  25
HETATM   25  C   UNL     1      41.266 -14.527   2.541  1.00  0.00     0.084 C 
HETATM   26  C   UNL     1      42.428 -14.296   1.567  1.00  0.00     0.025 C 
HETATM   27  C   UNL     1      43.532 -15.341   1.658  1.00  0.00     0.002 C 
HETATM   28  C   UNL     1      42.970 -16.744   1.484  1.00  0.00     0.000 C 
HETATM   29  C   UNL     1      41.880 -17.062   2.500  1.00  0.00     0.002 C 
HETATM   30  C   UNL     1      40.792 -15.989   2.589  1.00  0.00     0.025 C 
ENDBRANCH  22  25
ENDBRANCH  20  21
ENDBRANCH   2  20
BRANCH   3  31
HETATM   31  C   UNL     1      43.391 -14.689   6.621  1.00  0.00    -0.008 A 
HETATM   32  C   UNL     1      43.016 -15.513   7.689  1.00  0.00     0.017 A 
HETATM   33  C   UNL     1      43.107 -16.902   7.573  1.00  0.00     0.043 A 
HETATM   34  C   UNL     1      43.591 -17.466   6.398  1.00  0.00     0.116 A 
HETATM   35  F   UNL     1      43.679 -18.798   6.291  1.00  0.00    -0.206 F 
HETATM   36  C   UNL     1      43.991 -16.667   5.336  1.00  0.00     0.043 A 
HETATM   37  C   UNL     1      43.891 -15.278   5.448  1.00  0.00     0.017 A 
ENDBRANCH   3  31
TORSDOF 8
ENDMDL
MODEL 8
REMARK VINA RESULT:      -9.2      2.422      5.622
REMARK  8 active torsions:
REMARK  status: ('A' for Active; 'I' for Inactive)
REMARK    1  A    between atoms: C_3  and  N_4 
REMARK       I    between atoms: N_4  and  C_5 
REMARK    2  A    between atoms: C_5  and  C_6 
REMARK    3  A    between atoms: C_6  and  S_7 
REMARK    4  A    between atoms: S_7  and  C_8 
REMARK    5  A    between atoms: N_9  and  C_10 
REMARK    6  A    between atoms: C_10  and  C_11 
REMARK       I    between atoms: C_11  and  N_12 
REMARK    7  A    between atoms: N_12  and  C_13 
REMARK    8  A    between atoms: C_20  and  C_21 
ROOT
HETATM    1  C   UNL     1      39.361 -11.121   3.949  1.00  0.00     0.169 A 
HETATM    2  N   UNL     1      40.119 -11.696   2.955  1.00  0.00    -0.315 N 
HETATM    3  C   UNL     1      39.703 -11.135   1.756  1.00  0.00     0.065 A 
HETATM    4  C   UNL     1      38.798 -10.159   2.138  1.00  0.00     0.150 A 
HETATM    5  N   UNL     1      38.616 -10.141   3.494  1.00  0.00    -0.234 NA
ENDROOT
BRANCH   1   6
HETATM    6  S   UNL     1      39.355 -11.681   5.587  1.00  0.00    -0.083 SA
BRANCH   6   7
HETATM    7  C   UNL     1      40.041 -10.256   6.469  1.00  0.00     0.185 C 
BRANCH   7   8
HETATM    8  C   UNL     1      41.545 -10.130   6.275  1.00  0.00     0.231 C 
HETATM    9  N   UNL     1      42.263 -10.346   7.438  1.00  0.00    -0.326 N 
HETATM   10  H   UNL     1      41.697 -10.504   8.272  1.00  0.00     0.169 HD
HETATM   11  O   UNL     1      42.004  -9.765   5.195  1.00  0.00    -0.272 OA
BRANCH   9  12
HETATM   12  C   UNL     1      43.642 -10.121   7.652  1.00  0.00     0.046 A 
HETATM   13  C   UNL     1      44.001  -8.905   8.288  1.00  0.00    -0.035 A 
HETATM   14  C   UNL     1      42.976  -7.879   8.699  1.00  0.00     0.050 C 
HETATM   15  C   UNL     1      45.355  -8.609   8.513  1.00  0.00     0.009 A 
HETATM   16  C   UNL     1      46.348  -9.495   8.117  1.00  0.00     0.001 A 
HETATM   17  C   UNL     1      45.996 -10.703   7.521  1.00  0.00     0.009 A 
HETATM   18  C   UNL     1      44.647 -11.047   7.309  1.00  0.00    -0.035 A 
HETATM   19  C   UNL     1      44.381 -12.430   6.780  1.00  0.00     0.050 C 
ENDBRANCH   9  12
ENDBRANCH   7   8
ENDBRANCH   6   7
ENDBRANCH   1   6
BRANCH   2  20
HETATM   20  C   UNL     1      41.235 -12.608   3.150  1.00  0.00     0.234 C 
BRANCH  20  21
HETATM   21  C   UNL     1      40.954 -14.094   3.177  1.00  0.00     0.236 C 
HETATM   22  N   UNL     1      41.966 -14.955   3.515  1.00  0.00    -0.355 N 
HETATM   23  H   UNL     1      42.858 -14.558   3.778  1.00  0.00     0.162 HD
HETATM   24  O   UNL     1      39.817 -14.470   2.898  1.00  0.00    -0.272 OA
BRANCH  22  25
HETATM   25  C   UNL     1      41.825 -16.387   3.803  1.00  0.00     0.084 C 
HETATM   26  C   UNL     1      42.010 -17.255   2.552  1.00  0.00     0.025 C 
HETATM   27  C   UNL     1      43.452 -17.667   2.289  1.00  0.00     0.002 C 
HETATM   28  C   UNL     1      44.051 -18.360   3.505  1.00  0.00     0.000 C 
HETATM   29  C   UNL     1      43.986 -17.494   4.756  1.00  0.00     0.002 C 
HETATM   30  C   UNL     1      42.599 -16.907   5.026  1.00  0.00     0.025 C 
ENDBRANCH  22  25
ENDBRANCH  20  21
ENDBRANCH   2  20
BRANCH   3  31
HETATM   31  C   UNL     1      40.068 -11.560   0.408  1.00  0.00    -0.008 A 
HETATM   32  C   UNL     1      40.984 -10.845  -0.372  1.00  0.00     0.017 A 
HETATM   33  C   UNL     1      41.310 -11.285  -1.658  1.00  0.00     0.043 A 
HETATM   34  C   UNL     1      40.705 -12.428  -2.170  1.00  0.00     0.116 A 
HETATM   35  F   UNL     1      41.018 -12.845  -3.403  1.00  0.00    -0.206 F 
HETATM   36  C   UNL     1      39.775 -13.137  -1.422  1.00  0.00     0.043 A 
HETATM   37  C   UNL     1      39.457 -12.703  -0.134  1.00  0.00     0.017 A 
ENDBRANCH   3  31
TORSDOF 8
ENDMDL
MODEL 9
REMARK VINA RESULT:      -9.1      2.662      3.743
REMARK  8 active torsions:
REMARK  status: ('A' for Active; 'I' for Inactive)
REMARK    1  A    between atoms: C_3  and  N_4 
REMARK       I    between atoms: N_4  and  C_5 
REMARK    2  A    between atoms: C_5  and  C_6 
REMARK    3  A    between atoms: C_6  and  S_7 
REMARK    4  A    between atoms: S_7  and  C_8 
REMARK    5  A    between atoms: N_9  and  C_10 
REMARK    6  A    between atoms: C_10  and  C_11 
REMARK       I    between atoms: C_11  and  N_12 
REMARK    7  A    between atoms: N_12  and  C_13 
REMARK    8  A    between atoms: C_20  and  C_21 
ROOT
HETATM    1  C   UNL     1      40.007 -11.139   5.513  1.00  0.00     0.169 A 
HETATM    2  N   UNL     1      41.031 -11.994   5.175  1.00  0.00    -0.315 N 
HETATM    3  C   UNL     1      40.805 -13.182   5.854  1.00  0.00     0.065 A 
HETATM    4  C   UNL     1      39.575 -12.994   6.461  1.00  0.00     0.150 A 
HETATM    5  N   UNL     1      39.080 -11.741   6.221  1.00  0.00    -0.234 NA
ENDROOT
BRANCH   1   6
HETATM    6  S   UNL     1      39.993  -9.458   5.100  1.00  0.00    -0.083 SA
BRANCH   6   7
HETATM    7  C   UNL     1      40.015  -8.674   6.732  1.00  0.00     0.185 C 
BRANCH   7   8
HETATM    8  C   UNL     1      41.428  -8.513   7.273  1.00  0.00     0.231 C 
HETATM    9  N   UNL     1      41.804  -9.535   8.126  1.00  0.00    -0.326 N 
HETATM   10  H   UNL     1      41.077 -10.223   8.322  1.00  0.00     0.169 HD
HETATM   11  O   UNL     1      42.077  -7.500   7.023  1.00  0.00    -0.272 OA
BRANCH   9  12
HETATM   12  C   UNL     1      42.957  -9.595   8.941  1.00  0.00     0.046 A 
HETATM   13  C   UNL     1      44.111 -10.193   8.374  1.00  0.00    -0.035 A 
HETATM   14  C   UNL     1      44.116 -10.768   6.980  1.00  0.00     0.050 C 
HETATM   15  C   UNL     1      45.285 -10.304   9.136  1.00  0.00     0.009 A 
HETATM   16  C   UNL     1      45.328  -9.832  10.441  1.00  0.00     0.001 A 
HETATM   17  C   UNL     1      44.207  -9.216  10.988  1.00  0.00     0.009 A 
HETATM   18  C   UNL     1      43.023  -9.060  10.243  1.00  0.00    -0.035 A 
HETATM   19  C   UNL     1      41.921  -8.262  10.888  1.00  0.00     0.050 C 
ENDBRANCH   9  12
ENDBRANCH   7   8
ENDBRANCH   6   7
ENDBRANCH   1   6
BRANCH   2  20
HETATM   20  C   UNL     1      42.066 -11.738   4.185  1.00  0.00     0.234 C 
BRANCH  20  21
HETATM   21  C   UNL     1      42.008 -12.490   2.873  1.00  0.00     0.236 C 
HETATM   22  N   UNL     1      42.609 -13.719   2.786  1.00  0.00    -0.355 N 
HETATM   23  H   UNL     1      43.034 -14.100   3.622  1.00  0.00     0.162 HD
HETATM   24  O   UNL     1      41.415 -11.964   1.933  1.00  0.00    -0.272 OA
BRANCH  22  25
HETATM   25  C   UNL     1      42.471 -14.675   1.682  1.00  0.00     0.084 C 
HETATM   26  C   UNL     1      43.659 -15.641   1.593  1.00  0.00     0.025 C 
HETATM   27  C   UNL     1      43.496 -16.905   2.426  1.00  0.00     0.002 C 
HETATM   28  C   UNL     1      42.203 -17.627   2.073  1.00  0.00     0.000 C 
HETATM   29  C   UNL     1      40.978 -16.739   2.246  1.00  0.00     0.002 C 
HETATM   30  C   UNL     1      41.106 -15.375   1.564  1.00  0.00     0.025 C 
ENDBRANCH  22  25
ENDBRANCH  20  21
ENDBRANCH   2  20
BRANCH   3  31
HETATM   31  C   UNL     1      41.713 -14.319   5.973  1.00  0.00    -0.008 A 
HETATM   32  C   UNL     1      43.050 -14.163   6.358  1.00  0.00     0.017 A 
HETATM   33  C   UNL     1      43.887 -15.277   6.463  1.00  0.00     0.043 A 
HETATM   34  C   UNL     1      43.394 -16.542   6.165  1.00  0.00     0.116 A 
HETATM   35  F   UNL     1      44.200 -17.606   6.264  1.00  0.00    -0.206 F 
HETATM   36  C   UNL     1      42.078 -16.716   5.757  1.00  0.00     0.043 A 
HETATM   37  C   UNL     1      41.239 -15.604   5.661  1.00  0.00     0.017 A 
ENDBRANCH   3  31
TORSDOF 8
ENDMDL
MODEL 10
REMARK VINA RESULT:      -9.0      2.046      3.043
REMARK  8 active torsions:
REMARK  status: ('A' for Active; 'I' for Inactive)
REMARK    1  A    between atoms: C_3  and  N_4 
REMARK       I    between atoms: N_4  and  C_5 
REMARK    2  A    between atoms: C_5  and  C_6 
REMARK    3  A    between atoms: C_6  and  S_7 
REMARK    4  A    between atoms: S_7  and  C_8 
REMARK    5  A    between atoms: N_9  and  C_10 
REMARK    6  A    between atoms: C_10  and  C_11 
REMARK       I    between atoms: C_11  and  N_12 
REMARK    7  A    between atoms: N_12  and  C_13 
REMARK    8  A    between atoms: C_20  and  C_21 
ROOT
HETATM    1  C   UNL     1      42.132 -10.932   4.172  1.00  0.00     0.169 A 
HETATM    2  N   UNL     1      41.730 -12.221   3.905  1.00  0.00    -0.315 N 
HETATM    3  C   UNL     1      42.881 -12.984   3.777  1.00  0.00     0.065 A 
HETATM    4  C   UNL     1      43.903 -12.108   4.105  1.00  0.00     0.150 A 
HETATM    5  N   UNL     1      43.426 -10.854   4.374  1.00  0.00    -0.234 NA
ENDROOT
BRANCH   1   6
HETATM    6  S   UNL     1      41.052  -9.578   4.173  1.00  0.00    -0.083 SA
BRANCH   6   7
HETATM    7  C   UNL     1      40.546  -9.509   5.910  1.00  0.00     0.185 C 
BRANCH   7   8
HETATM    8  C   UNL     1      41.671  -9.035   6.819  1.00  0.00     0.231 C 
HETATM    9  N   UNL     1      42.011  -9.959   7.791  1.00  0.00    -0.326 N 
HETATM   10  H   UNL     1      41.435 -10.801   7.807  1.00  0.00     0.169 HD
HETATM   11  O   UNL     1      42.116  -7.895   6.713  1.00  0.00    -0.272 OA
BRANCH   9  12
HETATM   12  C   UNL     1      42.867  -9.766   8.899  1.00  0.00     0.046 A 
HETATM   13  C   UNL     1      42.256  -9.385  10.121  1.00  0.00    -0.035 A 
HETATM   14  C   UNL     1      40.770  -9.165  10.242  1.00  0.00     0.050 C 
HETATM   15  C   UNL     1      43.051  -9.157  11.256  1.00  0.00     0.009 A 
HETATM   16  C   UNL     1      44.430  -9.301  11.194  1.00  0.00     0.001 A 
HETATM   17  C   UNL     1      45.028  -9.706  10.005  1.00  0.00     0.009 A 
HETATM   18  C   UNL     1      44.260  -9.974   8.856  1.00  0.00    -0.035 A 
HETATM   19  C   UNL     1      44.998 -10.532   7.668  1.00  0.00     0.050 C 
ENDBRANCH   9  12
ENDBRANCH   7   8
ENDBRANCH   6   7
ENDBRANCH   1   6
BRANCH   2  20
HETATM   20  C   UNL     1      40.358 -12.705   3.903  1.00  0.00     0.234 C 
BRANCH  20  21
HETATM   21  C   UNL     1      39.777 -13.215   2.603  1.00  0.00     0.236 C 
HETATM   22  N   UNL     1      39.607 -12.338   1.563  1.00  0.00    -0.355 N 
HETATM   23  H   UNL     1      39.919 -11.384   1.691  1.00  0.00     0.162 HD
HETATM   24  O   UNL     1      39.484 -14.407   2.530  1.00  0.00    -0.272 OA
BRANCH  22  25
HETATM   25  C   UNL     1      39.269 -12.689   0.180  1.00  0.00     0.084 C 
HETATM   26  C   UNL     1      38.317 -11.674  -0.466  1.00  0.00     0.025 C 
HETATM   27  C   UNL     1      39.021 -10.515  -1.157  1.00  0.00     0.002 C 
HETATM   28  C   UNL     1      40.024 -11.020  -2.183  1.00  0.00     0.000 C 
HETATM   29  C   UNL     1      41.060 -11.955  -1.569  1.00  0.00     0.002 C 
HETATM   30  C   UNL     1      40.450 -13.076  -0.726  1.00  0.00     0.025 C 
ENDBRANCH  22  25
ENDBRANCH  20  21
ENDBRANCH   2  20
BRANCH   3  31
HETATM   31  C   UNL     1      42.981 -14.361   3.304  1.00  0.00    -0.008 A 
HETATM   32  C   UNL     1      42.924 -15.452   4.179  1.00  0.00     0.017 A 
HETATM   33  C   UNL     1      43.021 -16.757   3.687  1.00  0.00     0.043 A 
HETATM   34  C   UNL     1      43.193 -16.969   2.324  1.00  0.00     0.116 A 
HETATM   35  F   UNL     1      43.288 -18.219   1.856  1.00  0.00    -0.206 F 
HETATM   36  C   UNL     1      43.275 -15.900   1.441  1.00  0.00     0.043 A 
HETATM   37  C   UNL     1      43.170 -14.597   1.932  1.00  0.00     0.017 A 
ENDBRANCH   3  31
TORSDOF 8
ENDMDL
