MODEL 1
REMARK VINA RESULT:      -8.7      0.000      0.000
REMARK  6 active torsions:
REMARK  status: ('A' for Active; 'I' for Inactive)
REMARK    1  A    between atoms: C_2  and  C_3 
REMARK    2  A    between atoms: C_7  and  C_8 
REMARK       I    between atoms: C_8  and  N_9 
REMARK    3  A    between atoms: N_9  and  C_10 
REMARK    4  A    between atoms: C_13  and  C_14 
REMARK       I    between atoms: C_14  and  N_15 
REMARK    5  A    between atoms: N_15  and  C_16 
REMARK    6  A    between atoms: C_16  and  C_17 
ROOT
HETATM    1  C   UNL     1      43.115 -12.165   6.734  1.00  0.00     0.035 A 
HETATM    2  C   UNL     1      43.000 -11.536   5.486  1.00  0.00     0.030 A 
HETATM    3  C   UNL     1      43.031 -12.283   4.301  1.00  0.00     0.019 A 
HETATM    4  C   UNL     1      43.197 -13.669   4.359  1.00  0.00     0.032 A 
HETATM    5  C   UNL     1      43.364 -14.295   5.596  1.00  0.00     0.019 A 
HETATM    6  C   UNL     1      43.314 -13.548   6.777  1.00  0.00     0.030 A 
ENDROOT
BRANCH   1   7
HETATM    7  N   UNL     1      43.034 -11.354   7.885  1.00  0.00    -0.322 N 
HETATM    8  C   UNL     1      44.088 -10.869   8.636  1.00  0.00     0.274 C 
HETATM    9  O   UNL     1      45.272 -11.132   8.449  1.00  0.00    -0.266 OA
HETATM   10  H   UNL     1      42.108 -11.194   8.256  1.00  0.00     0.169 HD
BRANCH   8  11
HETATM   11  C   UNL     1      43.700 -10.036   9.749  1.00  0.00     0.120 A 
HETATM   12  N   UNL     1      42.379  -9.828  10.044  1.00  0.00    -0.273 N 
HETATM   13  N   UNL     1      42.171  -9.021  11.095  1.00  0.00    -0.179 NA
HETATM   14  H   UNL     1      41.578 -10.208   9.547  1.00  0.00     0.189 HD
HETATM   15  C   UNL     1      43.403  -8.737  11.532  1.00  0.00     0.056 A 
HETATM   16  C   UNL     1      44.394  -9.336  10.717  1.00  0.00     0.065 A 
BRANCH  15  17
HETATM   17  C   UNL     1      43.594  -7.885  12.741  1.00  0.00     0.056 C 
HETATM   18  C   UNL     1      42.543  -8.148  13.810  1.00  0.00     0.011 C 
ENDBRANCH  15  17
ENDBRANCH   8  11
ENDBRANCH   1   7
BRANCH   4  19
HETATM   19  C   UNL     1      43.192 -14.521   3.143  1.00  0.00     0.251 C 
HETATM   20  N   UNL     1      43.081 -15.874   3.360  1.00  0.00    -0.353 N 
HETATM   21  H   UNL     1      43.008 -16.241   4.299  1.00  0.00     0.163 HD
HETATM   22  O   UNL     1      43.343 -14.015   2.038  1.00  0.00    -0.268 OA
BRANCH  20  23
HETATM   23  C   UNL     1      43.222 -16.820   2.275  1.00  0.00     0.161 C 
BRANCH  23  24
HETATM   24  C   UNL     1      43.503 -18.214   2.782  1.00  0.00    -0.041 A 
HETATM   25  C   UNL     1      43.995 -18.409   4.081  1.00  0.00     0.009 A 
HETATM   26  C   UNL     1      44.221 -19.698   4.569  1.00  0.00     0.001 A 
HETATM   27  C   UNL     1      43.956 -20.806   3.766  1.00  0.00     0.000 A 
HETATM   28  C   UNL     1      43.453 -20.628   2.479  1.00  0.00     0.001 A 
HETATM   29  C   UNL     1      43.219 -19.341   1.993  1.00  0.00     0.009 A 
ENDBRANCH  23  24
ENDBRANCH  20  23
ENDBRANCH   4  19
TORSDOF 6
ENDMDL
MODEL 2
REMARK VINA RESULT:      -8.0      2.078     10.656
REMARK  6 active torsions:
REMARK  status: ('A' for Active; 'I' for Inactive)
REMARK    1  A    between atoms: C_2  and  C_3 
REMARK    2  A    between atoms: C_7  and  C_8 
REMARK       I    between atoms: C_8  and  N_9 
REMARK    3  A    between atoms: N_9  and  C_10 
REMARK    4  A    between atoms: C_13  and  C_14 
REMARK       I    between atoms: C_14  and  N_15 
REMARK    5  A    between atoms: N_15  and  C_16 
REMARK    6  A    between atoms: C_16  and  C_17 
ROOT
HETATM    1  C   UNL     1      43.817 -12.199   6.399  1.00  0.00     0.035 A 
HETATM    2  C   UNL     1      45.009 -11.801   7.023  1.00  0.00     0.030 A 
HETATM    3  C   UNL     1      45.091 -10.576   7.698  1.00  0.00     0.019 A 
HETATM    4  C   UNL     1      43.980  -9.730   7.735  1.00  0.00     0.032 A 
HETATM    5  C   UNL     1      42.807 -10.097   7.072  1.00  0.00     0.019 A 
HETATM    6  C   UNL     1      42.724 -11.329   6.416  1.00  0.00     0.030 A 
ENDROOT
BRANCH   1   7
HETATM    7  N   UNL     1      43.797 -13.464   5.775  1.00  0.00    -0.322 N 
HETATM    8  C   UNL     1      43.431 -14.667   6.348  1.00  0.00     0.274 C 
HETATM    9  O   UNL     1      43.127 -14.828   7.525  1.00  0.00    -0.266 OA
HETATM   10  H   UNL     1      44.186 -13.510   4.844  1.00  0.00     0.169 HD
BRANCH   8  11
HETATM   11  C   UNL     1      43.483 -15.798   5.453  1.00  0.00     0.120 A 
HETATM   12  N   UNL     1      43.933 -17.017   5.885  1.00  0.00    -0.273 N 
HETATM   13  N   UNL     1      43.937 -17.968   4.939  1.00  0.00    -0.179 NA
HETATM   14  H   UNL     1      44.259 -17.249   6.820  1.00  0.00     0.189 HD
HETATM   15  C   UNL     1      43.422 -17.359   3.866  1.00  0.00     0.056 A 
HETATM   16  C   UNL     1      43.134 -15.997   4.131  1.00  0.00     0.065 A 
BRANCH  15  17
HETATM   17  C   UNL     1      43.217 -18.115   2.598  1.00  0.00     0.056 C 
HETATM   18  C   UNL     1      43.711 -19.552   2.691  1.00  0.00     0.011 C 
ENDBRANCH  15  17
ENDBRANCH   8  11
ENDBRANCH   1   7
BRANCH   4  19
HETATM   19  C   UNL     1      43.988  -8.440   8.472  1.00  0.00     0.251 C 
HETATM   20  N   UNL     1      42.828  -8.123   9.137  1.00  0.00    -0.353 N 
HETATM   21  H   UNL     1      42.032  -8.745   9.111  1.00  0.00     0.163 HD
HETATM   22  O   UNL     1      44.967  -7.707   8.413  1.00  0.00    -0.268 OA
BRANCH  20  23
HETATM   23  C   UNL     1      42.651  -6.829   9.759  1.00  0.00     0.161 C 
BRANCH  23  24
HETATM   24  C   UNL     1      42.669  -6.925  11.265  1.00  0.00    -0.041 A 
HETATM   25  C   UNL     1      43.166  -8.075  11.895  1.00  0.00     0.009 A 
HETATM   26  C   UNL     1      43.221  -8.154  13.288  1.00  0.00     0.001 A 
HETATM   27  C   UNL     1      42.781  -7.086  14.067  1.00  0.00     0.000 A 
HETATM   28  C   UNL     1      42.298  -5.932  13.455  1.00  0.00     0.001 A 
HETATM   29  C   UNL     1      42.251  -5.847  12.063  1.00  0.00     0.009 A 
ENDBRANCH  23  24
ENDBRANCH  20  23
ENDBRANCH   4  19
TORSDOF 6
ENDMDL
MODEL 3
REMARK VINA RESULT:      -8.0      1.786      2.833
REMARK  6 active torsions:
REMARK  status: ('A' for Active; 'I' for Inactive)
REMARK    1  A    between atoms: C_2  and  C_3 
REMARK    2  A    between atoms: C_7  and  C_8 
REMARK       I    between atoms: C_8  and  N_9 
REMARK    3  A    between atoms: N_9  and  C_10 
REMARK    4  A    between atoms: C_13  and  C_14 
REMARK       I    between atoms: C_14  and  N_15 
REMARK    5  A    between atoms: N_15  and  C_16 
REMARK    6  A    between atoms: C_16  and  C_17 
ROOT
HETATM    1  C   UNL     1      43.262 -10.284   8.115  1.00  0.00     0.035 A 
HETATM    2  C   UNL     1      42.283 -10.017   7.147  1.00  0.00     0.030 A 
HETATM    3  C   UNL     1      42.400 -10.529   5.849  1.00  0.00     0.019 A 
HETATM    4  C   UNL     1      43.513 -11.300   5.505  1.00  0.00     0.032 A 
HETATM    5  C   UNL     1      44.517 -11.526   6.449  1.00  0.00     0.019 A 
HETATM    6  C   UNL     1      44.387 -11.028   7.749  1.00  0.00     0.030 A 
ENDROOT
BRANCH   1   7
HETATM    7  N   UNL     1      43.057  -9.769   9.412  1.00  0.00    -0.322 N 
HETATM    8  C   UNL     1      43.423 -10.359  10.607  1.00  0.00     0.274 C 
HETATM    9  O   UNL     1      43.933 -11.469  10.723  1.00  0.00    -0.266 OA
HETATM   10  H   UNL     1      42.495  -8.933   9.478  1.00  0.00     0.169 HD
BRANCH   8  11
HETATM   11  C   UNL     1      43.107  -9.582  11.782  1.00  0.00     0.120 A 
HETATM   12  N   UNL     1      42.520 -10.164  12.873  1.00  0.00    -0.273 N 
HETATM   13  N   UNL     1      42.273  -9.316  13.882  1.00  0.00    -0.179 NA
HETATM   14  H   UNL     1      42.257 -11.141  12.974  1.00  0.00     0.189 HD
HETATM   15  C   UNL     1      42.765  -8.149  13.451  1.00  0.00     0.056 A 
HETATM   16  C   UNL     1      43.286  -8.259  12.138  1.00  0.00     0.065 A 
BRANCH  15  17
HETATM   17  C   UNL     1      42.721  -6.944  14.328  1.00  0.00     0.056 C 
HETATM   18  C   UNL     1      42.378  -5.677  13.558  1.00  0.00     0.011 C 
ENDBRANCH  15  17
ENDBRANCH   8  11
ENDBRANCH   1   7
BRANCH   4  19
HETATM   19  C   UNL     1      43.672 -11.909   4.160  1.00  0.00     0.251 C 
HETATM   20  N   UNL     1      42.863 -12.988   3.891  1.00  0.00    -0.353 N 
HETATM   21  H   UNL     1      42.208 -13.326   4.583  1.00  0.00     0.163 HD
HETATM   22  O   UNL     1      44.527 -11.486   3.391  1.00  0.00    -0.268 OA
BRANCH  20  23
HETATM   23  C   UNL     1      43.029 -13.766   2.684  1.00  0.00     0.161 C 
BRANCH  23  24
HETATM   24  C   UNL     1      43.124 -15.243   2.979  1.00  0.00    -0.041 A 
HETATM   25  C   UNL     1      43.152 -16.174   1.931  1.00  0.00     0.009 A 
HETATM   26  C   UNL     1      43.277 -17.540   2.197  1.00  0.00     0.001 A 
HETATM   27  C   UNL     1      43.378 -17.990   3.512  1.00  0.00     0.000 A 
HETATM   28  C   UNL     1      43.367 -17.075   4.562  1.00  0.00     0.001 A 
HETATM   29  C   UNL     1      43.250 -15.710   4.298  1.00  0.00     0.009 A 
ENDBRANCH  23  24
ENDBRANCH  20  23
ENDBRANCH   4  19
TORSDOF 6
ENDMDL
MODEL 4
REMARK VINA RESULT:      -7.9      5.960      9.019
REMARK  6 active torsions:
REMARK  status: ('A' for Active; 'I' for Inactive)
REMARK    1  A    between atoms: C_2  and  C_3 
REMARK    2  A    between atoms: C_7  and  C_8 
REMARK       I    between atoms: C_8  and  N_9 
REMARK    3  A    between atoms: N_9  and  C_10 
REMARK    4  A    between atoms: C_13  and  C_14 
REMARK       I    between atoms: C_14  and  N_15 
REMARK    5  A    between atoms: N_15  and  C_16 
REMARK    6  A    between atoms: C_16  and  C_17 
ROOT
HETATM    1  C   UNL     1      39.800 -13.913   1.408  1.00  0.00     0.035 A 
HETATM    2  C   UNL     1      40.177 -13.263   2.592  1.00  0.00     0.030 A 
HETATM    3  C   UNL     1      40.871 -13.948   3.597  1.00  0.00     0.019 A 
HETATM    4  C   UNL     1      41.176 -15.301   3.429  1.00  0.00     0.032 A 
HETATM    5  C   UNL     1      40.758 -15.968   2.275  1.00  0.00     0.019 A 
HETATM    6  C   UNL     1      40.082 -15.274   1.267  1.00  0.00     0.030 A 
ENDROOT
BRANCH   1   7
HETATM    7  N   UNL     1      39.140 -13.148   0.423  1.00  0.00    -0.322 N 
HETATM    8  C   UNL     1      39.726 -12.448  -0.615  1.00  0.00     0.274 C 
HETATM    9  O   UNL     1      40.932 -12.333  -0.800  1.00  0.00    -0.266 OA
HETATM   10  H   UNL     1      38.147 -13.015   0.550  1.00  0.00     0.169 HD
BRANCH   8  11
HETATM   11  C   UNL     1      38.792 -11.777  -1.487  1.00  0.00     0.120 A 
HETATM   12  N   UNL     1      39.233 -10.991  -2.518  1.00  0.00    -0.273 N 
HETATM   13  N   UNL     1      38.252 -10.421  -3.233  1.00  0.00    -0.179 NA
HETATM   14  H   UNL     1      40.200 -10.803  -2.769  1.00  0.00     0.189 HD
HETATM   15  C   UNL     1      37.131 -10.895  -2.680  1.00  0.00     0.056 A 
HETATM   16  C   UNL     1      37.413 -11.737  -1.575  1.00  0.00     0.065 A 
BRANCH  15  17
HETATM   17  C   UNL     1      35.800 -10.521  -3.237  1.00  0.00     0.056 C 
HETATM   18  C   UNL     1      35.054  -9.536  -2.349  1.00  0.00     0.011 C 
ENDBRANCH  15  17
ENDBRANCH   8  11
ENDBRANCH   1   7
BRANCH   4  19
HETATM   19  C   UNL     1      41.949 -16.072   4.437  1.00  0.00     0.251 C 
HETATM   20  N   UNL     1      43.287 -16.237   4.166  1.00  0.00    -0.353 N 
HETATM   21  H   UNL     1      43.695 -15.849   3.327  1.00  0.00     0.163 HD
HETATM   22  O   UNL     1      41.379 -16.565   5.401  1.00  0.00    -0.268 OA
BRANCH  20  23
HETATM   23  C   UNL     1      44.115 -17.098   4.982  1.00  0.00     0.161 C 
BRANCH  23  24
HETATM   24  C   UNL     1      44.043 -18.536   4.530  1.00  0.00    -0.041 A 
HETATM   25  C   UNL     1      43.988 -19.572   5.472  1.00  0.00     0.009 A 
HETATM   26  C   UNL     1      43.883 -20.903   5.060  1.00  0.00     0.001 A 
HETATM   27  C   UNL     1      43.830 -21.212   3.702  1.00  0.00     0.000 A 
HETATM   28  C   UNL     1      43.869 -20.191   2.755  1.00  0.00     0.001 A 
HETATM   29  C   UNL     1      43.965 -18.861   3.166  1.00  0.00     0.009 A 
ENDBRANCH  23  24
ENDBRANCH  20  23
ENDBRANCH   4  19
TORSDOF 6
ENDMDL
MODEL 5
REMARK VINA RESULT:      -7.7      4.949     12.950
REMARK  6 active torsions:
REMARK  status: ('A' for Active; 'I' for Inactive)
REMARK    1  A    between atoms: C_2  and  C_3 
REMARK    2  A    between atoms: C_7  and  C_8 
REMARK       I    between atoms: C_8  and  N_9 
REMARK    3  A    between atoms: N_9  and  C_10 
REMARK    4  A    between atoms: C_13  and  C_14 
REMARK       I    between atoms: C_14  and  N_15 
REMARK    5  A    between atoms: N_15  and  C_16 
REMARK    6  A    between atoms: C_16  and  C_17 
ROOT
HETATM    1  C   UNL     1      42.716  -8.758  12.292  1.00  0.00     0.035 A 
HETATM    2  C   UNL     1      41.650  -9.363  12.974  1.00  0.00     0.030 A 
HETATM    3  C   UNL     1      41.279  -8.930  14.253  1.00  0.00     0.019 A 
HETATM    4  C   UNL     1      41.989  -7.896  14.868  1.00  0.00     0.032 A 
HETATM    5  C   UNL     1      43.084  -7.325  14.216  1.00  0.00     0.019 A 
HETATM    6  C   UNL     1      43.439  -7.748  12.931  1.00  0.00     0.030 A 
ENDROOT
BRANCH   1   7
HETATM    7  N   UNL     1      43.005  -9.219  10.990  1.00  0.00    -0.322 N 
HETATM    8  C   UNL     1      43.741 -10.339  10.651  1.00  0.00     0.274 C 
HETATM    9  O   UNL     1      44.317 -11.076  11.443  1.00  0.00    -0.266 OA
HETATM   10  H   UNL     1      42.733  -8.613  10.230  1.00  0.00     0.169 HD
BRANCH   8  11
HETATM   11  C   UNL     1      43.847 -10.578   9.231  1.00  0.00     0.120 A 
HETATM   12  N   UNL     1      42.777 -10.378   8.401  1.00  0.00    -0.273 N 
HETATM   13  N   UNL     1      43.022 -10.654   7.112  1.00  0.00    -0.179 NA
HETATM   14  H   UNL     1      41.850 -10.060   8.671  1.00  0.00     0.189 HD
HETATM   15  C   UNL     1      44.314 -10.998   7.095  1.00  0.00     0.056 A 
HETATM   16  C   UNL     1      44.873 -10.980   8.396  1.00  0.00     0.065 A 
BRANCH  15  17
HETATM   17  C   UNL     1      44.985 -11.338   5.808  1.00  0.00     0.056 C 
HETATM   18  C   UNL     1      43.993 -11.541   4.671  1.00  0.00     0.011 C 
ENDBRANCH  15  17
ENDBRANCH   8  11
ENDBRANCH   1   7
BRANCH   4  19
HETATM   19  C   UNL     1      41.617  -7.361  16.203  1.00  0.00     0.251 C 
HETATM   20  N   UNL     1      40.882  -8.204  17.002  1.00  0.00    -0.353 N 
HETATM   21  H   UNL     1      40.624  -9.127  16.679  1.00  0.00     0.163 HD
HETATM   22  O   UNL     1      41.913  -6.213  16.508  1.00  0.00    -0.268 OA
BRANCH  20  23
HETATM   23  C   UNL     1      40.324  -7.749  18.256  1.00  0.00     0.161 C 
BRANCH  23  24
HETATM   24  C   UNL     1      40.844  -8.551  19.424  1.00  0.00    -0.041 A 
HETATM   25  C   UNL     1      42.204  -8.504  19.765  1.00  0.00     0.009 A 
HETATM   26  C   UNL     1      42.685  -9.213  20.868  1.00  0.00     0.001 A 
HETATM   27  C   UNL     1      41.813  -9.976  21.643  1.00  0.00     0.000 A 
HETATM   28  C   UNL     1      40.458 -10.020  21.325  1.00  0.00     0.001 A 
HETATM   29  C   UNL     1      39.974  -9.305  20.229  1.00  0.00     0.009 A 
ENDBRANCH  23  24
ENDBRANCH  20  23
ENDBRANCH   4  19
TORSDOF 6
ENDMDL
MODEL 6
REMARK VINA RESULT:      -7.6     17.061     19.856
REMARK  6 active torsions:
REMARK  status: ('A' for Active; 'I' for Inactive)
REMARK    1  A    between atoms: C_2  and  C_3 
REMARK    2  A    between atoms: C_7  and  C_8 
REMARK       I    between atoms: C_8  and  N_9 
REMARK    3  A    between atoms: N_9  and  C_10 
REMARK    4  A    between atoms: C_13  and  C_14 
REMARK       I    between atoms: C_14  and  N_15 
REMARK    5  A    between atoms: N_15  and  C_16 
REMARK    6  A    between atoms: C_16  and  C_17 
ROOT
HETATM    1  C   UNL     1      48.793 -30.211   2.762  1.00  0.00     0.035 A 
HETATM    2  C   UNL     1      50.159 -29.954   2.575  1.00  0.00     0.030 A 
HETATM    3  C   UNL     1      51.101 -30.353   3.531  1.00  0.00     0.019 A 
HETATM    4  C   UNL     1      50.677 -30.998   4.696  1.00  0.00     0.032 A 
HETATM    5  C   UNL     1      49.314 -31.210   4.912  1.00  0.00     0.019 A 
HETATM    6  C   UNL     1      48.378 -30.827   3.946  1.00  0.00     0.030 A 
ENDROOT
BRANCH   1   7
HETATM    7  N   UNL     1      47.907 -29.817   1.737  1.00  0.00    -0.322 N 
HETATM    8  C   UNL     1      47.440 -28.540   1.489  1.00  0.00     0.274 C 
HETATM    9  O   UNL     1      47.677 -27.552   2.175  1.00  0.00    -0.266 OA
HETATM   10  H   UNL     1      47.495 -30.561   1.192  1.00  0.00     0.169 HD
BRANCH   8  11
HETATM   11  C   UNL     1      46.562 -28.435   0.348  1.00  0.00     0.120 A 
HETATM   12  N   UNL     1      45.212 -28.624   0.478  1.00  0.00    -0.273 N 
HETATM   13  N   UNL     1      44.528 -28.508  -0.670  1.00  0.00    -0.179 NA
HETATM   14  H   UNL     1      44.709 -28.846   1.333  1.00  0.00     0.189 HD
HETATM   15  C   UNL     1      45.460 -28.180  -1.570  1.00  0.00     0.056 A 
HETATM   16  C   UNL     1      46.751 -28.134  -0.988  1.00  0.00     0.065 A 
BRANCH  15  17
HETATM   17  C   UNL     1      45.077 -27.914  -2.987  1.00  0.00     0.056 C 
HETATM   18  C   UNL     1      44.212 -29.020  -3.572  1.00  0.00     0.011 C 
ENDBRANCH  15  17
ENDBRANCH   8  11
ENDBRANCH   1   7
BRANCH   4  19
HETATM   19  C   UNL     1      51.629 -31.486   5.726  1.00  0.00     0.251 C 
HETATM   20  N   UNL     1      51.464 -32.792   6.123  1.00  0.00    -0.353 N 
HETATM   21  H   UNL     1      50.732 -33.363   5.724  1.00  0.00     0.163 HD
HETATM   22  O   UNL     1      52.455 -30.722   6.209  1.00  0.00    -0.268 OA
BRANCH  20  23
HETATM   23  C   UNL     1      52.220 -33.339   7.228  1.00  0.00     0.161 C 
BRANCH  23  24
HETATM   24  C   UNL     1      51.519 -33.124   8.547  1.00  0.00    -0.041 A 
HETATM   25  C   UNL     1      52.207 -32.558   9.630  1.00  0.00     0.009 A 
HETATM   26  C   UNL     1      51.552 -32.321  10.841  1.00  0.00     0.001 A 
HETATM   27  C   UNL     1      50.205 -32.646  10.983  1.00  0.00     0.000 A 
HETATM   28  C   UNL     1      49.505 -33.195   9.911  1.00  0.00     0.001 A 
HETATM   29  C   UNL     1      50.155 -33.424   8.697  1.00  0.00     0.009 A 
ENDBRANCH  23  24
ENDBRANCH  20  23
ENDBRANCH   4  19
TORSDOF 6
ENDMDL
MODEL 7
REMARK VINA RESULT:      -7.6      6.681     10.290
REMARK  6 active torsions:
REMARK  status: ('A' for Active; 'I' for Inactive)
REMARK    1  A    between atoms: C_2  and  C_3 
REMARK    2  A    between atoms: C_7  and  C_8 
REMARK       I    between atoms: C_8  and  N_9 
REMARK    3  A    between atoms: N_9  and  C_10 
REMARK    4  A    between atoms: C_13  and  C_14 
REMARK       I    between atoms: C_14  and  N_15 
REMARK    5  A    between atoms: N_15  and  C_16 
REMARK    6  A    between atoms: C_16  and  C_17 
ROOT
HETATM    1  C   UNL     1      39.276 -13.052  -0.237  1.00  0.00     0.035 A 
HETATM    2  C   UNL     1      39.752 -14.345  -0.502  1.00  0.00     0.030 A 
HETATM    3  C   UNL     1      40.824 -14.877   0.226  1.00  0.00     0.019 A 
HETATM    4  C   UNL     1      41.441 -14.107   1.215  1.00  0.00     0.032 A 
HETATM    5  C   UNL     1      41.005 -12.801   1.449  1.00  0.00     0.019 A 
HETATM    6  C   UNL     1      39.923 -12.281   0.733  1.00  0.00     0.030 A 
ENDROOT
BRANCH   1   7
HETATM    7  N   UNL     1      38.167 -12.599  -0.981  1.00  0.00    -0.322 N 
HETATM    8  C   UNL     1      38.189 -12.021  -2.236  1.00  0.00     0.274 C 
HETATM    9  O   UNL     1      39.201 -11.752  -2.875  1.00  0.00    -0.266 OA
HETATM   10  H   UNL     1      37.276 -12.605  -0.505  1.00  0.00     0.169 HD
BRANCH   8  11
HETATM   11  C   UNL     1      36.889 -11.681  -2.763  1.00  0.00     0.120 A 
HETATM   12  N   UNL     1      36.145 -12.603  -3.449  1.00  0.00    -0.273 N 
HETATM   13  N   UNL     1      34.966 -12.140  -3.890  1.00  0.00    -0.179 NA
HETATM   14  H   UNL     1      36.405 -13.565  -3.652  1.00  0.00     0.189 HD
HETATM   15  C   UNL     1      34.919 -10.886  -3.429  1.00  0.00     0.056 A 
HETATM   16  C   UNL     1      36.103 -10.545  -2.730  1.00  0.00     0.065 A 
BRANCH  15  17
HETATM   17  C   UNL     1      33.718 -10.038  -3.677  1.00  0.00     0.056 C 
HETATM   18  C   UNL     1      33.535  -9.706  -5.151  1.00  0.00     0.011 C 
ENDBRANCH  15  17
ENDBRANCH   8  11
ENDBRANCH   1   7
BRANCH   4  19
HETATM   19  C   UNL     1      42.551 -14.631   2.052  1.00  0.00     0.251 C 
HETATM   20  N   UNL     1      42.290 -15.797   2.732  1.00  0.00    -0.353 N 
HETATM   21  H   UNL     1      41.390 -16.250   2.651  1.00  0.00     0.163 HD
HETATM   22  O   UNL     1      43.595 -13.999   2.150  1.00  0.00    -0.268 OA
BRANCH  20  23
HETATM   23  C   UNL     1      43.226 -16.324   3.700  1.00  0.00     0.161 C 
BRANCH  23  24
HETATM   24  C   UNL     1      43.448 -17.805   3.514  1.00  0.00    -0.041 A 
HETATM   25  C   UNL     1      43.959 -18.582   4.564  1.00  0.00     0.009 A 
HETATM   26  C   UNL     1      44.131 -19.959   4.410  1.00  0.00     0.001 A 
HETATM   27  C   UNL     1      43.791 -20.577   3.207  1.00  0.00     0.000 A 
HETATM   28  C   UNL     1      43.267 -19.820   2.162  1.00  0.00     0.001 A 
HETATM   29  C   UNL     1      43.088 -18.445   2.317  1.00  0.00     0.009 A 
ENDBRANCH  23  24
ENDBRANCH  20  23
ENDBRANCH   4  19
TORSDOF 6
ENDMDL
MODEL 8
REMARK VINA RESULT:      -7.6     17.403     19.802
REMARK  6 active torsions:
REMARK  status: ('A' for Active; 'I' for Inactive)
REMARK    1  A    between atoms: C_2  and  C_3 
REMARK    2  A    between atoms: C_7  and  C_8 
REMARK       I    between atoms: C_8  and  N_9 
REMARK    3  A    between atoms: N_9  and  C_10 
REMARK    4  A    between atoms: C_13  and  C_14 
REMARK       I    between atoms: C_14  and  N_15 
REMARK    5  A    between atoms: N_15  and  C_16 
REMARK    6  A    between atoms: C_16  and  C_17 
ROOT
HETATM    1  C   UNL     1      40.784 -31.499   3.254  1.00  0.00     0.035 A 
HETATM    2  C   UNL     1      41.932 -31.232   4.015  1.00  0.00     0.030 A 
HETATM    3  C   UNL     1      43.070 -30.669   3.423  1.00  0.00     0.019 A 
HETATM    4  C   UNL     1      43.071 -30.386   2.054  1.00  0.00     0.032 A 
HETATM    5  C   UNL     1      41.950 -30.697   1.282  1.00  0.00     0.019 A 
HETATM    6  C   UNL     1      40.810 -31.242   1.881  1.00  0.00     0.030 A 
ENDROOT
BRANCH   1   7
HETATM    7  N   UNL     1      39.663 -32.028   3.927  1.00  0.00    -0.322 N 
HETATM    8  C   UNL     1      39.260 -33.350   3.958  1.00  0.00     0.274 C 
HETATM    9  O   UNL     1      39.790 -34.267   3.340  1.00  0.00    -0.266 OA
HETATM   10  H   UNL     1      39.034 -31.357   4.345  1.00  0.00     0.169 HD
BRANCH   8  11
HETATM   11  C   UNL     1      38.084 -33.600   4.756  1.00  0.00     0.120 A 
HETATM   12  N   UNL     1      36.921 -32.914   4.529  1.00  0.00    -0.273 N 
HETATM   13  N   UNL     1      35.918 -33.242   5.357  1.00  0.00    -0.179 NA
HETATM   14  H   UNL     1      36.764 -32.199   3.823  1.00  0.00     0.189 HD
HETATM   15  C   UNL     1      36.432 -34.216   6.117  1.00  0.00     0.056 A 
HETATM   16  C   UNL     1      37.788 -34.468   5.790  1.00  0.00     0.065 A 
BRANCH  15  17
HETATM   17  C   UNL     1      35.592 -34.887   7.150  1.00  0.00     0.056 C 
HETATM   18  C   UNL     1      36.154 -34.718   8.554  1.00  0.00     0.011 C 
ENDBRANCH  15  17
ENDBRANCH   8  11
ENDBRANCH   1   7
BRANCH   4  19
HETATM   19  C   UNL     1      44.228 -29.747   1.377  1.00  0.00     0.251 C 
HETATM   20  N   UNL     1      43.923 -28.930   0.314  1.00  0.00    -0.353 N 
HETATM   21  H   UNL     1      42.963 -28.789   0.031  1.00  0.00     0.163 HD
HETATM   22  O   UNL     1      45.369 -30.008   1.734  1.00  0.00    -0.268 OA
BRANCH  20  23
HETATM   23  C   UNL     1      44.961 -28.375  -0.526  1.00  0.00     0.161 C 
BRANCH  23  24
HETATM   24  C   UNL     1      44.792 -28.786  -1.969  1.00  0.00    -0.041 A 
HETATM   25  C   UNL     1      45.235 -27.945  -3.000  1.00  0.00     0.009 A 
HETATM   26  C   UNL     1      45.115 -28.337  -4.336  1.00  0.00     0.001 A 
HETATM   27  C   UNL     1      44.555 -29.572  -4.655  1.00  0.00     0.000 A 
HETATM   28  C   UNL     1      44.126 -30.423  -3.640  1.00  0.00     0.001 A 
HETATM   29  C   UNL     1      44.252 -30.038  -2.305  1.00  0.00     0.009 A 
ENDBRANCH  23  24
ENDBRANCH  20  23
ENDBRANCH   4  19
TORSDOF 6
ENDMDL
MODEL 9
REMARK VINA RESULT:      -7.2      4.602     13.306
REMARK  6 active torsions:
REMARK  status: ('A' for Active; 'I' for Inactive)
REMARK    1  A    between atoms: C_2  and  C_3 
REMARK    2  A    between atoms: C_7  and  C_8 
REMARK       I    between atoms: C_8  and  N_9 
REMARK    3  A    between atoms: N_9  and  C_10 
REMARK    4  A    between atoms: C_13  and  C_14 
REMARK       I    between atoms: C_14  and  N_15 
REMARK    5  A    between atoms: N_15  and  C_16 
REMARK    6  A    between atoms: C_16  and  C_17 
ROOT
HETATM    1  C   UNL     1      42.877  -8.908  12.698  1.00  0.00     0.035 A 
HETATM    2  C   UNL     1      43.495  -7.733  13.151  1.00  0.00     0.030 A 
HETATM    3  C   UNL     1      43.051  -7.092  14.314  1.00  0.00     0.019 A 
HETATM    4  C   UNL     1      41.968  -7.616  15.024  1.00  0.00     0.032 A 
HETATM    5  C   UNL     1      41.315  -8.756  14.551  1.00  0.00     0.019 A 
HETATM    6  C   UNL     1      41.773  -9.403  13.399  1.00  0.00     0.030 A 
ENDROOT
BRANCH   1   7
HETATM    7  N   UNL     1      43.404  -9.521  11.542  1.00  0.00    -0.322 N 
HETATM    8  C   UNL     1      43.082  -9.234  10.229  1.00  0.00     0.274 C 
HETATM    9  O   UNL     1      42.225  -8.434   9.868  1.00  0.00    -0.266 OA
HETATM   10  H   UNL     1      44.003 -10.320  11.693  1.00  0.00     0.169 HD
BRANCH   8  11
HETATM   11  C   UNL     1      43.807 -10.007   9.250  1.00  0.00     0.120 A 
HETATM   12  N   UNL     1      45.150 -10.237   9.389  1.00  0.00    -0.273 N 
HETATM   13  N   UNL     1      45.690 -10.959   8.396  1.00  0.00    -0.179 NA
HETATM   14  H   UNL     1      45.747  -9.911  10.144  1.00  0.00     0.189 HD
HETATM   15  C   UNL     1      44.650 -11.254   7.609  1.00  0.00     0.056 A 
HETATM   16  C   UNL     1      43.452 -10.672   8.091  1.00  0.00     0.065 A 
BRANCH  15  17
HETATM   17  C   UNL     1      44.840 -12.102   6.398  1.00  0.00     0.056 C 
HETATM   18  C   UNL     1      43.931 -13.323   6.394  1.00  0.00     0.011 C 
ENDBRANCH  15  17
ENDBRANCH   8  11
ENDBRANCH   1   7
BRANCH   4  19
HETATM   19  C   UNL     1      41.480  -7.009  16.289  1.00  0.00     0.251 C 
HETATM   20  N   UNL     1      42.439  -6.426  17.083  1.00  0.00    -0.353 N 
HETATM   21  H   UNL     1      43.410  -6.423  16.801  1.00  0.00     0.163 HD
HETATM   22  O   UNL     1      40.298  -7.100  16.597  1.00  0.00    -0.268 OA
BRANCH  20  23
HETATM   23  C   UNL     1      42.121  -5.941  18.408  1.00  0.00     0.161 C 
BRANCH  23  24
HETATM   24  C   UNL     1      42.584  -6.899  19.479  1.00  0.00    -0.041 A 
HETATM   25  C   UNL     1      43.603  -6.527  20.368  1.00  0.00     0.009 A 
HETATM   26  C   UNL     1      44.009  -7.394  21.385  1.00  0.00     0.001 A 
HETATM   27  C   UNL     1      43.400  -8.640  21.527  1.00  0.00     0.000 A 
HETATM   28  C   UNL     1      42.376  -9.015  20.660  1.00  0.00     0.001 A 
HETATM   29  C   UNL     1      41.964  -8.147  19.649  1.00  0.00     0.009 A 
ENDBRANCH  23  24
ENDBRANCH  20  23
ENDBRANCH   4  19
TORSDOF 6
ENDMDL
MODEL 10
REMARK VINA RESULT:      -6.9      4.040     12.824
REMARK  6 active torsions:
REMARK  status: ('A' for Active; 'I' for Inactive)
REMARK    1  A    between atoms: C_2  and  C_3 
REMARK    2  A    between atoms: C_7  and  C_8 
REMARK       I    between atoms: C_8  and  N_9 
REMARK    3  A    between atoms: N_9  and  C_10 
REMARK    4  A    between atoms: C_13  and  C_14 
REMARK       I    between atoms: C_14  and  N_15 
REMARK    5  A    between atoms: N_15  and  C_16 
REMARK    6  A    between atoms: C_16  and  C_17 
ROOT
HETATM    1  C   UNL     1      42.550  -9.555  11.564  1.00  0.00     0.035 A 
HETATM    2  C   UNL     1      43.482  -8.599  11.996  1.00  0.00     0.030 A 
HETATM    3  C   UNL     1      43.353  -7.986  13.248  1.00  0.00     0.019 A 
HETATM    4  C   UNL     1      42.274  -8.313  14.073  1.00  0.00     0.032 A 
HETATM    5  C   UNL     1      41.314  -9.225  13.628  1.00  0.00     0.019 A 
HETATM    6  C   UNL     1      41.457  -9.849  12.385  1.00  0.00     0.030 A 
ENDROOT
BRANCH   1   7
HETATM    7  N   UNL     1      42.767 -10.160  10.309  1.00  0.00    -0.322 N 
HETATM    8  C   UNL     1      43.111  -9.527   9.130  1.00  0.00     0.274 C 
HETATM    9  O   UNL     1      43.216  -8.314   8.981  1.00  0.00    -0.266 OA
HETATM   10  H   UNL     1      42.551 -11.145  10.244  1.00  0.00     0.169 HD
BRANCH   8  11
HETATM   11  C   UNL     1      43.296 -10.413   8.005  1.00  0.00     0.120 A 
HETATM   12  N   UNL     1      44.020 -11.568   8.131  1.00  0.00    -0.273 N 
HETATM   13  N   UNL     1      44.118 -12.281   7.000  1.00  0.00    -0.179 NA
HETATM   14  H   UNL     1      44.479 -11.909   8.971  1.00  0.00     0.189 HD
HETATM   15  C   UNL     1      43.387 -11.591   6.118  1.00  0.00     0.056 A 
HETATM   16  C   UNL     1      42.862 -10.407   6.693  1.00  0.00     0.065 A 
BRANCH  15  17
HETATM   17  C   UNL     1      43.209 -12.097   4.727  1.00  0.00     0.056 C 
HETATM   18  C   UNL     1      42.361 -13.360   4.672  1.00  0.00     0.011 C 
ENDBRANCH  15  17
ENDBRANCH   8  11
ENDBRANCH   1   7
BRANCH   4  19
HETATM   19  C   UNL     1      42.107  -7.733  15.430  1.00  0.00     0.251 C 
HETATM   20  N   UNL     1      41.054  -8.223  16.165  1.00  0.00    -0.353 N 
HETATM   21  H   UNL     1      40.446  -8.935  15.784  1.00  0.00     0.163 HD
HETATM   22  O   UNL     1      42.844  -6.831  15.806  1.00  0.00    -0.268 OA
BRANCH  20  23
HETATM   23  C   UNL     1      40.687  -7.633  17.433  1.00  0.00     0.161 C 
BRANCH  23  24
HETATM   24  C   UNL     1      39.923  -6.344  17.250  1.00  0.00    -0.041 A 
HETATM   25  C   UNL     1      40.213  -5.229  18.049  1.00  0.00     0.009 A 
HETATM   26  C   UNL     1      39.536  -4.023  17.859  1.00  0.00     0.001 A 
HETATM   27  C   UNL     1      38.563  -3.916  16.866  1.00  0.00     0.000 A 
HETATM   28  C   UNL     1      38.276  -5.011  16.055  1.00  0.00     0.001 A 
HETATM   29  C   UNL     1      38.957  -6.214  16.238  1.00  0.00     0.009 A 
ENDBRANCH  23  24
ENDBRANCH  20  23
ENDBRANCH   4  19
TORSDOF 6
ENDMDL
