MODEL 1
REMARK VINA RESULT:      -9.6      0.000      0.000
REMARK  3 active torsions:
REMARK  status: ('A' for Active; 'I' for Inactive)
REMARK    1  A    between atoms: C_2  and  C_3 
REMARK    2  A    between atoms: C_6  and  N_7 
REMARK    3  A    between atoms: C_14  and  C_15 
REMARK       I    between atoms: C_15  and  N_16 
ROOT
HETATM    1  N   UNL     1      41.908 -12.694   5.822  1.00  0.00    -0.252 N 
HETATM    2  C   UNL     1      40.925 -12.300   4.951  1.00  0.00     0.238 C 
HETATM    3  O   UNL     1      40.684 -11.203   4.468  1.00  0.00    -0.272 OA
HETATM    4  C   UNL     1      40.199 -13.511   4.456  1.00  0.00     0.135 C 
HETATM    5  C   UNL     1      40.671 -14.645   5.348  1.00  0.00     0.130 C 
HETATM    6  C   UNL     1      41.846 -14.050   6.083  1.00  0.00     0.238 C 
HETATM    7  O   UNL     1      42.467 -14.678   6.924  1.00  0.00    -0.272 OA
HETATM    8  C   UNL     1      40.616 -13.874   3.042  1.00  0.00     0.298 C 
HETATM    9  N   UNL     1      40.453 -15.403   3.051  1.00  0.00    -0.028 N 
HETATM   10  H   UNL     1      39.448 -15.606   2.954  1.00  0.00     0.287 HD
HETATM   11  C   UNL     1      40.840 -15.896   4.463  1.00  0.00     0.242 C 
HETATM   12  C   UNL     1      41.114 -16.019   1.938  1.00  0.00     0.203 C 
HETATM   13  C   UNL     1      42.167 -16.824   2.103  1.00  0.00     0.037 C 
HETATM   14  C   UNL     1      42.714 -17.184   3.404  1.00  0.00    -0.026 A 
HETATM   15  C   UNL     1      42.058 -16.767   4.568  1.00  0.00    -0.016 A 
HETATM   16  C   UNL     1      43.853 -17.994   3.482  1.00  0.00     0.012 A 
HETATM   17  C   UNL     1      44.326 -18.426   4.719  1.00  0.00     0.001 A 
HETATM   18  C   UNL     1      43.640 -18.080   5.876  1.00  0.00     0.001 A 
HETATM   19  C   UNL     1      42.502 -17.277   5.799  1.00  0.00     0.010 A 
ENDROOT
BRANCH   1  20
HETATM   20  C   UNL     1      42.845 -11.814   6.443  1.00  0.00     0.045 A 
HETATM   21  C   UNL     1      42.427 -10.700   7.189  1.00  0.00     0.031 A 
HETATM   22  C   UNL     1      43.349  -9.885   7.865  1.00  0.00     0.017 A 
HETATM   23  C   UNL     1      44.715 -10.161   7.790  1.00  0.00     0.009 A 
HETATM   24  C   UNL     1      45.152 -11.226   7.001  1.00  0.00     0.017 A 
HETATM   25  C   UNL     1      44.227 -12.045   6.344  1.00  0.00     0.031 A 
BRANCH  23  26
HETATM   26  C   UNL     1      45.738  -9.364   8.517  1.00  0.00     0.155 C 
HETATM   27  C   UNL     1      45.681  -9.277  10.020  1.00  0.00     0.096 C 
HETATM   28  O   UNL     1      46.646  -8.837   7.880  1.00  0.00    -0.293 OA
ENDBRANCH  23  26
ENDBRANCH   1  20
BRANCH   8  29
HETATM   29  C   UNL     1      42.031 -13.368   2.681  1.00  0.00     0.248 C 
HETATM   30  N   UNL     1      42.106 -12.278   1.868  1.00  0.00    -0.368 N 
HETATM   31  H   UNL     1      41.381 -11.565   1.856  1.00  0.00     0.159 HD
HETATM   32  H   UNL     1      43.043 -11.905   1.725  1.00  0.00     0.159 HD
HETATM   33  O   UNL     1      43.042 -13.891   3.135  1.00  0.00    -0.271 OA
ENDBRANCH   8  29
TORSDOF 3
ENDMDL
MODEL 2
REMARK VINA RESULT:      -8.9      3.700      6.554
REMARK  3 active torsions:
REMARK  status: ('A' for Active; 'I' for Inactive)
REMARK    1  A    between atoms: C_2  and  C_3 
REMARK    2  A    between atoms: C_6  and  N_7 
REMARK    3  A    between atoms: C_14  and  C_15 
REMARK       I    between atoms: C_15  and  N_16 
ROOT
HETATM    1  N   UNL     1      40.522 -13.904   3.356  1.00  0.00    -0.252 N 
HETATM    2  C   UNL     1      40.206 -12.769   4.059  1.00  0.00     0.238 C 
HETATM    3  O   UNL     1      40.603 -12.370   5.145  1.00  0.00    -0.272 OA
HETATM    4  C   UNL     1      39.365 -11.881   3.198  1.00  0.00     0.135 C 
HETATM    5  C   UNL     1      38.979 -12.739   2.006  1.00  0.00     0.130 C 
HETATM    6  C   UNL     1      39.870 -13.948   2.139  1.00  0.00     0.238 C 
HETATM    7  O   UNL     1      39.812 -14.882   1.356  1.00  0.00    -0.272 OA
HETATM    8  C   UNL     1      40.168 -10.716   2.645  1.00  0.00     0.298 C 
HETATM    9  N   UNL     1      39.474 -10.470   1.296  1.00  0.00    -0.028 N 
HETATM   10  H   UNL     1      38.602  -9.957   1.487  1.00  0.00     0.287 HD
HETATM   11  C   UNL     1      39.033 -11.846   0.750  1.00  0.00     0.242 C 
HETATM   12  C   UNL     1      40.264  -9.646   0.429  1.00  0.00     0.203 C 
HETATM   13  C   UNL     1      40.782 -10.114  -0.708  1.00  0.00     0.037 C 
HETATM   14  C   UNL     1      40.569 -11.470  -1.196  1.00  0.00    -0.026 A 
HETATM   15  C   UNL     1      39.690 -12.319  -0.514  1.00  0.00    -0.016 A 
HETATM   16  C   UNL     1      41.194 -11.894  -2.376  1.00  0.00     0.012 A 
HETATM   17  C   UNL     1      40.919 -13.153  -2.904  1.00  0.00     0.001 A 
HETATM   18  C   UNL     1      39.992 -13.975  -2.276  1.00  0.00     0.001 A 
HETATM   19  C   UNL     1      39.365 -13.551  -1.103  1.00  0.00     0.010 A 
ENDROOT
BRANCH   1  20
HETATM   20  C   UNL     1      41.366 -14.950   3.838  1.00  0.00     0.045 A 
HETATM   21  C   UNL     1      40.973 -15.786   4.896  1.00  0.00     0.031 A 
HETATM   22  C   UNL     1      41.771 -16.863   5.311  1.00  0.00     0.017 A 
HETATM   23  C   UNL     1      42.992 -17.114   4.684  1.00  0.00     0.009 A 
HETATM   24  C   UNL     1      43.427 -16.254   3.674  1.00  0.00     0.017 A 
HETATM   25  C   UNL     1      42.620 -15.192   3.253  1.00  0.00     0.031 A 
BRANCH  23  26
HETATM   26  C   UNL     1      43.862 -18.264   5.046  1.00  0.00     0.155 C 
HETATM   27  C   UNL     1      43.533 -19.090   6.262  1.00  0.00     0.096 C 
HETATM   28  O   UNL     1      44.804 -18.553   4.312  1.00  0.00    -0.293 OA
ENDBRANCH  23  26
ENDBRANCH   1  20
BRANCH   8  29
HETATM   29  C   UNL     1      41.682 -11.013   2.558  1.00  0.00     0.248 C 
HETATM   30  N   UNL     1      42.486 -10.387   3.462  1.00  0.00    -0.368 N 
HETATM   31  H   UNL     1      42.153 -10.126   4.388  1.00  0.00     0.159 HD
HETATM   32  H   UNL     1      43.463 -10.673   3.449  1.00  0.00     0.159 HD
HETATM   33  O   UNL     1      42.142 -11.808   1.746  1.00  0.00    -0.271 OA
ENDBRANCH   8  29
TORSDOF 3
ENDMDL
MODEL 3
REMARK VINA RESULT:      -8.4      2.408      6.958
REMARK  3 active torsions:
REMARK  status: ('A' for Active; 'I' for Inactive)
REMARK    1  A    between atoms: C_2  and  C_3 
REMARK    2  A    between atoms: C_6  and  N_7 
REMARK    3  A    between atoms: C_14  and  C_15 
REMARK       I    between atoms: C_15  and  N_16 
ROOT
HETATM    1  N   UNL     1      42.364 -13.552   2.479  1.00  0.00    -0.252 N 
HETATM    2  C   UNL     1      41.500 -13.170   1.485  1.00  0.00     0.238 C 
HETATM    3  O   UNL     1      40.856 -13.840   0.690  1.00  0.00    -0.272 OA
HETATM    4  C   UNL     1      41.258 -11.697   1.588  1.00  0.00     0.135 C 
HETATM    5  C   UNL     1      42.295 -11.196   2.577  1.00  0.00     0.130 C 
HETATM    6  C   UNL     1      42.850 -12.463   3.179  1.00  0.00     0.238 C 
HETATM    7  O   UNL     1      43.745 -12.447   4.008  1.00  0.00    -0.272 OA
HETATM    8  C   UNL     1      39.901 -11.395   2.200  1.00  0.00     0.298 C 
HETATM    9  N   UNL     1      40.174 -10.067   2.925  1.00  0.00    -0.028 N 
HETATM   10  H   UNL     1      40.172  -9.322   2.214  1.00  0.00     0.287 HD
HETATM   11  C   UNL     1      41.622 -10.126   3.459  1.00  0.00     0.242 C 
HETATM   12  C   UNL     1      39.141  -9.749   3.868  1.00  0.00     0.203 C 
HETATM   13  C   UNL     1      39.374  -9.716   5.182  1.00  0.00     0.037 C 
HETATM   14  C   UNL     1      40.682  -9.954   5.778  1.00  0.00    -0.026 A 
HETATM   15  C   UNL     1      41.797 -10.122   4.950  1.00  0.00    -0.016 A 
HETATM   16  C   UNL     1      40.825  -9.950   7.171  1.00  0.00     0.012 A 
HETATM   17  C   UNL     1      42.086 -10.078   7.749  1.00  0.00     0.001 A 
HETATM   18  C   UNL     1      43.208 -10.171   6.937  1.00  0.00     0.001 A 
HETATM   19  C   UNL     1      43.067 -10.169   5.548  1.00  0.00     0.010 A 
ENDROOT
BRANCH   1  20
HETATM   20  C   UNL     1      42.772 -14.897   2.730  1.00  0.00     0.045 A 
HETATM   21  C   UNL     1      42.712 -15.458   4.016  1.00  0.00     0.031 A 
HETATM   22  C   UNL     1      43.038 -16.805   4.241  1.00  0.00     0.017 A 
HETATM   23  C   UNL     1      43.448 -17.613   3.181  1.00  0.00     0.009 A 
HETATM   24  C   UNL     1      43.575 -17.055   1.908  1.00  0.00     0.017 A 
HETATM   25  C   UNL     1      43.232 -15.716   1.686  1.00  0.00     0.031 A 
BRANCH  23  26
HETATM   26  C   UNL     1      43.764 -19.057   3.345  1.00  0.00     0.155 C 
HETATM   27  C   UNL     1      43.491 -20.010   2.211  1.00  0.00     0.096 C 
HETATM   28  O   UNL     1      44.295 -19.436   4.386  1.00  0.00    -0.293 OA
ENDBRANCH  23  26
ENDBRANCH   1  20
BRANCH   8  29
HETATM   29  C   UNL     1      39.377 -12.537   3.100  1.00  0.00     0.248 C 
HETATM   30  N   UNL     1      38.426 -13.353   2.567  1.00  0.00    -0.368 N 
HETATM   31  H   UNL     1      38.373 -13.537   1.568  1.00  0.00     0.159 HD
HETATM   32  H   UNL     1      38.168 -14.155   3.140  1.00  0.00     0.159 HD
HETATM   33  O   UNL     1      39.821 -12.733   4.225  1.00  0.00    -0.271 OA
ENDBRANCH   8  29
TORSDOF 3
ENDMDL
MODEL 4
REMARK VINA RESULT:      -8.4      2.126      7.053
REMARK  3 active torsions:
REMARK  status: ('A' for Active; 'I' for Inactive)
REMARK    1  A    between atoms: C_2  and  C_3 
REMARK    2  A    between atoms: C_6  and  N_7 
REMARK    3  A    between atoms: C_14  and  C_15 
REMARK       I    between atoms: C_15  and  N_16 
ROOT
HETATM    1  N   UNL     1      42.003 -15.229   3.304  1.00  0.00    -0.252 N 
HETATM    2  C   UNL     1      40.661 -14.943   3.297  1.00  0.00     0.238 C 
HETATM    3  O   UNL     1      39.690 -15.682   3.376  1.00  0.00    -0.272 OA
HETATM    4  C   UNL     1      40.479 -13.460   3.365  1.00  0.00     0.135 C 
HETATM    5  C   UNL     1      41.862 -12.881   3.125  1.00  0.00     0.130 C 
HETATM    6  C   UNL     1      42.770 -14.081   3.234  1.00  0.00     0.238 C 
HETATM    7  O   UNL     1      43.975 -13.997   3.064  1.00  0.00    -0.272 OA
HETATM    8  C   UNL     1      40.061 -13.010   4.755  1.00  0.00     0.298 C 
HETATM    9  N   UNL     1      40.694 -11.612   4.834  1.00  0.00    -0.028 N 
HETATM   10  H   UNL     1      40.094 -10.971   4.297  1.00  0.00     0.287 HD
HETATM   11  C   UNL     1      42.032 -11.670   4.063  1.00  0.00     0.242 C 
HETATM   12  C   UNL     1      40.736 -11.118   6.180  1.00  0.00     0.203 C 
HETATM   13  C   UNL     1      41.890 -10.920   6.821  1.00  0.00     0.037 C 
HETATM   14  C   UNL     1      43.198 -11.140   6.219  1.00  0.00    -0.026 A 
HETATM   15  C   UNL     1      43.287 -11.473   4.863  1.00  0.00    -0.016 A 
HETATM   16  C   UNL     1      44.358 -10.955   6.983  1.00  0.00     0.012 A 
HETATM   17  C   UNL     1      45.614 -11.065   6.391  1.00  0.00     0.001 A 
HETATM   18  C   UNL     1      45.713 -11.323   5.030  1.00  0.00     0.001 A 
HETATM   19  C   UNL     1      44.558 -11.502   4.268  1.00  0.00     0.010 A 
ENDROOT
BRANCH   1  20
HETATM   20  C   UNL     1      42.553 -16.546   3.314  1.00  0.00     0.045 A 
HETATM   21  C   UNL     1      43.131 -17.095   4.471  1.00  0.00     0.031 A 
HETATM   22  C   UNL     1      43.596 -18.419   4.497  1.00  0.00     0.017 A 
HETATM   23  C   UNL     1      43.508 -19.216   3.356  1.00  0.00     0.009 A 
HETATM   24  C   UNL     1      42.995 -18.666   2.180  1.00  0.00     0.017 A 
HETATM   25  C   UNL     1      42.517 -17.352   2.164  1.00  0.00     0.031 A 
BRANCH  23  26
HETATM   26  C   UNL     1      43.941 -20.638   3.332  1.00  0.00     0.155 C 
HETATM   27  C   UNL     1      44.194 -21.360   4.630  1.00  0.00     0.096 C 
HETATM   28  O   UNL     1      44.031 -21.215   2.251  1.00  0.00    -0.293 OA
ENDBRANCH  23  26
ENDBRANCH   1  20
BRANCH   8  29
HETATM   29  C   UNL     1      40.500 -13.993   5.864  1.00  0.00     0.248 C 
HETATM   30  N   UNL     1      39.549 -14.838   6.350  1.00  0.00    -0.368 N 
HETATM   31  H   UNL     1      38.771 -15.158   5.778  1.00  0.00     0.159 HD
HETATM   32  H   UNL     1      39.884 -15.540   7.007  1.00  0.00     0.159 HD
HETATM   33  O   UNL     1      41.658 -14.046   6.263  1.00  0.00    -0.271 OA
ENDBRANCH   8  29
TORSDOF 3
ENDMDL
MODEL 5
REMARK VINA RESULT:      -8.4      2.045      4.609
REMARK  3 active torsions:
REMARK  status: ('A' for Active; 'I' for Inactive)
REMARK    1  A    between atoms: C_2  and  C_3 
REMARK    2  A    between atoms: C_6  and  N_7 
REMARK    3  A    between atoms: C_14  and  C_15 
REMARK       I    between atoms: C_15  and  N_16 
ROOT
HETATM    1  N   UNL     1      43.510 -12.680   4.959  1.00  0.00    -0.252 N 
HETATM    2  C   UNL     1      43.321 -14.033   5.088  1.00  0.00     0.238 C 
HETATM    3  O   UNL     1      43.385 -14.754   6.073  1.00  0.00    -0.272 OA
HETATM    4  C   UNL     1      42.802 -14.577   3.795  1.00  0.00     0.135 C 
HETATM    5  C   UNL     1      42.973 -13.447   2.795  1.00  0.00     0.130 C 
HETATM    6  C   UNL     1      43.300 -12.256   3.661  1.00  0.00     0.238 C 
HETATM    7  O   UNL     1      43.537 -11.158   3.186  1.00  0.00    -0.272 OA
HETATM    8  C   UNL     1      41.312 -14.864   3.867  1.00  0.00     0.298 C 
HETATM    9  N   UNL     1      40.874 -14.607   2.416  1.00  0.00    -0.028 N 
HETATM   10  H   UNL     1      41.145 -15.432   1.862  1.00  0.00     0.287 HD
HETATM   11  C   UNL     1      41.735 -13.444   1.876  1.00  0.00     0.242 C 
HETATM   12  C   UNL     1      39.450 -14.475   2.301  1.00  0.00     0.203 C 
HETATM   13  C   UNL     1      38.877 -13.323   1.948  1.00  0.00     0.037 C 
HETATM   14  C   UNL     1      39.623 -12.118   1.610  1.00  0.00    -0.026 A 
HETATM   15  C   UNL     1      41.019 -12.169   1.536  1.00  0.00    -0.016 A 
HETATM   16  C   UNL     1      38.938 -10.937   1.299  1.00  0.00     0.012 A 
HETATM   17  C   UNL     1      39.637  -9.808   0.878  1.00  0.00     0.001 A 
HETATM   18  C   UNL     1      41.017  -9.869   0.730  1.00  0.00     0.001 A 
HETATM   19  C   UNL     1      41.699 -11.048   1.034  1.00  0.00     0.010 A 
ENDROOT
BRANCH   1  20
HETATM   20  C   UNL     1      43.937 -11.815   6.013  1.00  0.00     0.045 A 
HETATM   21  C   UNL     1      45.285 -11.731   6.396  1.00  0.00     0.031 A 
HETATM   22  C   UNL     1      45.710 -10.820   7.376  1.00  0.00     0.017 A 
HETATM   23  C   UNL     1      44.786  -9.986   8.005  1.00  0.00     0.009 A 
HETATM   24  C   UNL     1      43.434 -10.102   7.681  1.00  0.00     0.017 A 
HETATM   25  C   UNL     1      43.018 -10.999   6.692  1.00  0.00     0.031 A 
BRANCH  23  26
HETATM   26  C   UNL     1      45.178  -8.970   9.017  1.00  0.00     0.155 C 
HETATM   27  C   UNL     1      45.302  -9.372  10.464  1.00  0.00     0.096 C 
HETATM   28  O   UNL     1      45.449  -7.830   8.645  1.00  0.00    -0.293 OA
ENDBRANCH  23  26
ENDBRANCH   1  20
BRANCH   8  29
HETATM   29  C   UNL     1      40.584 -14.012   4.932  1.00  0.00     0.248 C 
HETATM   30  N   UNL     1      40.167 -14.657   6.056  1.00  0.00    -0.368 N 
HETATM   31  H   UNL     1      40.653 -15.473   6.420  1.00  0.00     0.159 HD
HETATM   32  H   UNL     1      39.779 -14.059   6.784  1.00  0.00     0.159 HD
HETATM   33  O   UNL     1      40.424 -12.804   4.798  1.00  0.00    -0.271 OA
ENDBRANCH   8  29
TORSDOF 3
ENDMDL
MODEL 6
REMARK VINA RESULT:      -8.3      3.019      7.957
REMARK  3 active torsions:
REMARK  status: ('A' for Active; 'I' for Inactive)
REMARK    1  A    between atoms: C_2  and  C_3 
REMARK    2  A    between atoms: C_6  and  N_7 
REMARK    3  A    between atoms: C_14  and  C_15 
REMARK       I    between atoms: C_15  and  N_16 
ROOT
HETATM    1  N   UNL     1      40.989 -13.483   3.020  1.00  0.00    -0.252 N 
HETATM    2  C   UNL     1      42.080 -13.968   3.695  1.00  0.00     0.238 C 
HETATM    3  O   UNL     1      43.076 -14.549   3.284  1.00  0.00    -0.272 OA
HETATM    4  C   UNL     1      42.012 -13.518   5.119  1.00  0.00     0.135 C 
HETATM    5  C   UNL     1      40.614 -12.950   5.286  1.00  0.00     0.130 C 
HETATM    6  C   UNL     1      40.102 -12.853   3.871  1.00  0.00     0.238 C 
HETATM    7  O   UNL     1      38.976 -12.458   3.617  1.00  0.00    -0.272 OA
HETATM    8  C   UNL     1      42.975 -12.374   5.391  1.00  0.00     0.298 C 
HETATM    9  N   UNL     1      42.232 -11.594   6.487  1.00  0.00    -0.028 N 
HETATM   10  H   UNL     1      42.369 -12.101   7.373  1.00  0.00     0.287 HD
HETATM   11  C   UNL     1      40.722 -11.698   6.179  1.00  0.00     0.242 C 
HETATM   12  C   UNL     1      42.774 -10.279   6.669  1.00  0.00     0.203 C 
HETATM   13  C   UNL     1      42.071  -9.182   6.378  1.00  0.00     0.037 C 
HETATM   14  C   UNL     1      40.697  -9.206   5.895  1.00  0.00    -0.026 A 
HETATM   15  C   UNL     1      40.011 -10.423   5.824  1.00  0.00    -0.016 A 
HETATM   16  C   UNL     1      40.052  -8.007   5.565  1.00  0.00     0.012 A 
HETATM   17  C   UNL     1      38.708  -8.010   5.198  1.00  0.00     0.001 A 
HETATM   18  C   UNL     1      37.998  -9.203   5.196  1.00  0.00     0.001 A 
HETATM   19  C   UNL     1      38.639 -10.397   5.530  1.00  0.00     0.010 A 
ENDROOT
BRANCH   1  20
HETATM   20  C   UNL     1      40.753 -13.659   1.623  1.00  0.00     0.045 A 
HETATM   21  C   UNL     1      40.158 -14.827   1.117  1.00  0.00     0.031 A 
HETATM   22  C   UNL     1      39.855 -14.960  -0.247  1.00  0.00     0.017 A 
HETATM   23  C   UNL     1      40.158 -13.929  -1.136  1.00  0.00     0.009 A 
HETATM   24  C   UNL     1      40.807 -12.789  -0.661  1.00  0.00     0.017 A 
HETATM   25  C   UNL     1      41.092 -12.654   0.702  1.00  0.00     0.031 A 
BRANCH  23  26
HETATM   26  C   UNL     1      39.822 -13.990  -2.584  1.00  0.00     0.155 C 
HETATM   27  C   UNL     1      38.646 -14.814  -3.039  1.00  0.00     0.096 C 
HETATM   28  O   UNL     1      40.478 -13.318  -3.376  1.00  0.00    -0.293 OA
ENDBRANCH  23  26
ENDBRANCH   1  20
BRANCH   8  29
HETATM   29  C   UNL     1      43.317 -11.559   4.123  1.00  0.00     0.248 C 
HETATM   30  N   UNL     1      44.548 -11.761   3.575  1.00  0.00    -0.368 N 
HETATM   31  H   UNL     1      45.033 -12.651   3.655  1.00  0.00     0.159 HD
HETATM   32  H   UNL     1      44.712 -11.289   2.687  1.00  0.00     0.159 HD
HETATM   33  O   UNL     1      42.509 -10.798   3.603  1.00  0.00    -0.271 OA
ENDBRANCH   8  29
TORSDOF 3
ENDMDL
MODEL 7
REMARK VINA RESULT:      -8.2     16.316     18.165
REMARK  3 active torsions:
REMARK  status: ('A' for Active; 'I' for Inactive)
REMARK    1  A    between atoms: C_2  and  C_3 
REMARK    2  A    between atoms: C_6  and  N_7 
REMARK    3  A    between atoms: C_14  and  C_15 
REMARK       I    between atoms: C_15  and  N_16 
ROOT
HETATM    1  N   UNL     1      46.852 -29.206   1.010  1.00  0.00    -0.252 N 
HETATM    2  C   UNL     1      46.970 -28.125   0.173  1.00  0.00     0.238 C 
HETATM    3  O   UNL     1      47.914 -27.373  -0.026  1.00  0.00    -0.272 OA
HETATM    4  C   UNL     1      45.757 -28.048  -0.697  1.00  0.00     0.135 C 
HETATM    5  C   UNL     1      44.774 -29.034  -0.092  1.00  0.00     0.130 C 
HETATM    6  C   UNL     1      45.613 -29.806   0.896  1.00  0.00     0.238 C 
HETATM    7  O   UNL     1      45.138 -30.680   1.602  1.00  0.00    -0.272 OA
HETATM    8  C   UNL     1      46.046 -28.540  -2.105  1.00  0.00     0.298 C 
HETATM    9  N   UNL     1      44.687 -29.126  -2.517  1.00  0.00    -0.028 N 
HETATM   10  H   UNL     1      44.075 -28.337  -2.771  1.00  0.00     0.287 HD
HETATM   11  C   UNL     1      44.054 -29.749  -1.253  1.00  0.00     0.242 C 
HETATM   12  C   UNL     1      44.793 -29.964  -3.676  1.00  0.00     0.203 C 
HETATM   13  C   UNL     1      44.562 -31.278  -3.618  1.00  0.00     0.037 C 
HETATM   14  C   UNL     1      44.148 -31.974  -2.407  1.00  0.00    -0.026 A 
HETATM   15  C   UNL     1      43.862 -31.238  -1.252  1.00  0.00    -0.016 A 
HETATM   16  C   UNL     1      43.977 -33.364  -2.425  1.00  0.00     0.012 A 
HETATM   17  C   UNL     1      43.486 -34.026  -1.302  1.00  0.00     0.001 A 
HETATM   18  C   UNL     1      43.130 -33.298  -0.175  1.00  0.00     0.001 A 
HETATM   19  C   UNL     1      43.294 -31.912  -0.159  1.00  0.00     0.010 A 
ENDROOT
BRANCH   1  20
HETATM   20  C   UNL     1      47.852 -29.629   1.937  1.00  0.00     0.045 A 
HETATM   21  C   UNL     1      48.093 -28.930   3.131  1.00  0.00     0.031 A 
HETATM   22  C   UNL     1      49.020 -29.397   4.076  1.00  0.00     0.017 A 
HETATM   23  C   UNL     1      49.738 -30.568   3.835  1.00  0.00     0.009 A 
HETATM   24  C   UNL     1      49.557 -31.240   2.626  1.00  0.00     0.017 A 
HETATM   25  C   UNL     1      48.619 -30.780   1.695  1.00  0.00     0.031 A 
BRANCH  23  26
HETATM   26  C   UNL     1      50.700 -31.139   4.814  1.00  0.00     0.155 C 
HETATM   27  C   UNL     1      50.240 -32.207   5.771  1.00  0.00     0.096 C 
HETATM   28  O   UNL     1      51.871 -30.766   4.786  1.00  0.00    -0.293 OA
ENDBRANCH  23  26
ENDBRANCH   1  20
BRANCH   8  29
HETATM   29  C   UNL     1      47.232 -29.529  -2.166  1.00  0.00     0.248 C 
HETATM   30  N   UNL     1      48.439 -29.021  -2.541  1.00  0.00    -0.368 N 
HETATM   31  H   UNL     1      48.697 -28.055  -2.355  1.00  0.00     0.159 HD
HETATM   32  H   UNL     1      49.223 -29.669  -2.479  1.00  0.00     0.159 HD
HETATM   33  O   UNL     1      47.111 -30.708  -1.852  1.00  0.00    -0.271 OA
ENDBRANCH   8  29
TORSDOF 3
ENDMDL
MODEL 8
REMARK VINA RESULT:      -8.1     16.560     19.562
REMARK  3 active torsions:
REMARK  status: ('A' for Active; 'I' for Inactive)
REMARK    1  A    between atoms: C_2  and  C_3 
REMARK    2  A    between atoms: C_6  and  N_7 
REMARK    3  A    between atoms: C_14  and  C_15 
REMARK       I    between atoms: C_15  and  N_16 
ROOT
HETATM    1  N   UNL     1      45.722 -29.470  -1.758  1.00  0.00    -0.252 N 
HETATM    2  C   UNL     1      44.948 -28.944  -0.755  1.00  0.00     0.238 C 
HETATM    3  O   UNL     1      43.735 -28.941  -0.605  1.00  0.00    -0.272 OA
HETATM    4  C   UNL     1      45.839 -28.470   0.350  1.00  0.00     0.135 C 
HETATM    5  C   UNL     1      47.241 -28.513  -0.228  1.00  0.00     0.130 C 
HETATM    6  C   UNL     1      47.069 -29.285  -1.513  1.00  0.00     0.238 C 
HETATM    7  O   UNL     1      48.002 -29.491  -2.272  1.00  0.00    -0.272 OA
HETATM    8  C   UNL     1      45.830 -29.433   1.526  1.00  0.00     0.298 C 
HETATM    9  N   UNL     1      47.252 -29.258   2.083  1.00  0.00    -0.028 N 
HETATM   10  H   UNL     1      47.266 -28.381   2.623  1.00  0.00     0.287 HD
HETATM   11  C   UNL     1      48.189 -29.016   0.879  1.00  0.00     0.242 C 
HETATM   12  C   UNL     1      47.607 -30.312   2.987  1.00  0.00     0.203 C 
HETATM   13  C   UNL     1      48.572 -31.189   2.701  1.00  0.00     0.037 C 
HETATM   14  C   UNL     1      49.375 -31.141   1.485  1.00  0.00    -0.026 A 
HETATM   15  C   UNL     1      49.224 -30.067   0.601  1.00  0.00    -0.016 A 
HETATM   16  C   UNL     1      50.333 -32.133   1.242  1.00  0.00     0.012 A 
HETATM   17  C   UNL     1      51.173 -32.042   0.135  1.00  0.00     0.001 A 
HETATM   18  C   UNL     1      51.083 -30.943  -0.709  1.00  0.00     0.001 A 
HETATM   19  C   UNL     1      50.132 -29.952  -0.464  1.00  0.00     0.010 A 
ENDROOT
BRANCH   1  20
HETATM   20  C   UNL     1      45.212 -30.077  -2.945  1.00  0.00     0.045 A 
HETATM   21  C   UNL     1      44.730 -29.309  -4.017  1.00  0.00     0.031 A 
HETATM   22  C   UNL     1      44.305 -29.909  -5.213  1.00  0.00     0.017 A 
HETATM   23  C   UNL     1      44.339 -31.296  -5.352  1.00  0.00     0.009 A 
HETATM   24  C   UNL     1      44.755 -32.078  -4.273  1.00  0.00     0.017 A 
HETATM   25  C   UNL     1      45.193 -31.474  -3.090  1.00  0.00     0.031 A 
BRANCH  23  26
HETATM   26  C   UNL     1      43.946 -31.989  -6.607  1.00  0.00     0.155 C 
HETATM   27  C   UNL     1      44.063 -31.266  -7.923  1.00  0.00     0.096 C 
HETATM   28  O   UNL     1      43.584 -33.163  -6.551  1.00  0.00    -0.293 OA
ENDBRANCH  23  26
ENDBRANCH   1  20
BRANCH   8  29
HETATM   29  C   UNL     1      45.458 -30.877   1.121  1.00  0.00     0.248 C 
HETATM   30  N   UNL     1      44.217 -31.315   1.475  1.00  0.00    -0.368 N 
HETATM   31  H   UNL     1      43.428 -30.679   1.567  1.00  0.00     0.159 HD
HETATM   32  H   UNL     1      43.959 -32.231   1.113  1.00  0.00     0.159 HD
HETATM   33  O   UNL     1      46.219 -31.587   0.475  1.00  0.00    -0.271 OA
ENDBRANCH   8  29
TORSDOF 3
ENDMDL
MODEL 9
REMARK VINA RESULT:      -7.8     16.483     18.497
REMARK  3 active torsions:
REMARK  status: ('A' for Active; 'I' for Inactive)
REMARK    1  A    between atoms: C_2  and  C_3 
REMARK    2  A    between atoms: C_6  and  N_7 
REMARK    3  A    between atoms: C_14  and  C_15 
REMARK       I    between atoms: C_15  and  N_16 
ROOT
HETATM    1  N   UNL     1      44.283 -29.717   1.631  1.00  0.00    -0.252 N 
HETATM    2  C   UNL     1      45.495 -29.553   2.253  1.00  0.00     0.238 C 
HETATM    3  O   UNL     1      45.892 -29.952   3.338  1.00  0.00    -0.272 OA
HETATM    4  C   UNL     1      46.450 -28.913   1.296  1.00  0.00     0.135 C 
HETATM    5  C   UNL     1      45.593 -28.454   0.131  1.00  0.00     0.130 C 
HETATM    6  C   UNL     1      44.268 -29.129   0.381  1.00  0.00     0.238 C 
HETATM    7  O   UNL     1      43.308 -28.961  -0.354  1.00  0.00    -0.272 OA
HETATM    8  C   UNL     1      47.437 -29.921   0.733  1.00  0.00     0.298 C 
HETATM    9  N   UNL     1      47.706 -29.346  -0.667  1.00  0.00    -0.028 N 
HETATM   10  H   UNL     1      48.362 -28.560  -0.557  1.00  0.00     0.287 HD
HETATM   11  C   UNL     1      46.386 -28.716  -1.165  1.00  0.00     0.242 C 
HETATM   12  C   UNL     1      48.339 -30.303  -1.527  1.00  0.00     0.203 C 
HETATM   13  C   UNL     1      47.725 -30.796  -2.604  1.00  0.00     0.037 C 
HETATM   14  C   UNL     1      46.392 -30.391  -3.032  1.00  0.00    -0.026 A 
HETATM   15  C   UNL     1      45.738 -29.353  -2.361  1.00  0.00    -0.016 A 
HETATM   16  C   UNL     1      45.803 -30.999  -4.148  1.00  0.00     0.012 A 
HETATM   17  C   UNL     1      44.573 -30.551  -4.624  1.00  0.00     0.001 A 
HETATM   18  C   UNL     1      43.949 -29.472  -4.011  1.00  0.00     0.001 A 
HETATM   19  C   UNL     1      44.539 -28.863  -2.903  1.00  0.00     0.010 A 
ENDROOT
BRANCH   1  20
HETATM   20  C   UNL     1      43.148 -30.354   2.218  1.00  0.00     0.045 A 
HETATM   21  C   UNL     1      42.780 -31.665   1.874  1.00  0.00     0.031 A 
HETATM   22  C   UNL     1      41.712 -32.315   2.513  1.00  0.00     0.017 A 
HETATM   23  C   UNL     1      40.979 -31.655   3.500  1.00  0.00     0.009 A 
HETATM   24  C   UNL     1      41.292 -30.330   3.809  1.00  0.00     0.017 A 
HETATM   25  C   UNL     1      42.368 -29.693   3.181  1.00  0.00     0.031 A 
BRANCH  23  26
HETATM   26  C   UNL     1      39.867 -32.302   4.245  1.00  0.00     0.155 C 
HETATM   27  C   UNL     1      39.325 -33.624   3.769  1.00  0.00     0.096 C 
HETATM   28  O   UNL     1      39.449 -31.771   5.271  1.00  0.00    -0.293 OA
ENDBRANCH  23  26
ENDBRANCH   1  20
BRANCH   8  29
HETATM   29  C   UNL     1      46.898 -31.369   0.754  1.00  0.00     0.248 C 
HETATM   30  N   UNL     1      47.433 -32.212   1.681  1.00  0.00    -0.368 N 
HETATM   31  H   UNL     1      47.789 -31.875   2.572  1.00  0.00     0.159 HD
HETATM   32  H   UNL     1      46.994 -33.129   1.741  1.00  0.00     0.159 HD
HETATM   33  O   UNL     1      46.001 -31.739   0.005  1.00  0.00    -0.271 OA
ENDBRANCH   8  29
TORSDOF 3
ENDMDL
MODEL 10
REMARK VINA RESULT:      -7.8      3.620      7.232
REMARK  3 active torsions:
REMARK  status: ('A' for Active; 'I' for Inactive)
REMARK    1  A    between atoms: C_2  and  C_3 
REMARK    2  A    between atoms: C_6  and  N_7 
REMARK    3  A    between atoms: C_14  and  C_15 
REMARK       I    between atoms: C_15  and  N_16 
ROOT
HETATM    1  N   UNL     1      39.893 -13.293   1.369  1.00  0.00    -0.252 N 
HETATM    2  C   UNL     1      40.005 -14.658   1.305  1.00  0.00     0.238 C 
HETATM    3  O   UNL     1      40.150 -15.400   0.344  1.00  0.00    -0.272 OA
HETATM    4  C   UNL     1      40.117 -15.204   2.693  1.00  0.00     0.135 C 
HETATM    5  C   UNL     1      39.773 -14.038   3.603  1.00  0.00     0.130 C 
HETATM    6  C   UNL     1      39.782 -12.851   2.674  1.00  0.00     0.238 C 
HETATM    7  O   UNL     1      39.513 -11.725   3.061  1.00  0.00    -0.272 OA
HETATM    8  C   UNL     1      41.546 -15.600   3.025  1.00  0.00     0.298 C 
HETATM    9  N   UNL     1      41.600 -15.337   4.538  1.00  0.00    -0.028 N 
HETATM   10  H   UNL     1      41.127 -16.125   5.005  1.00  0.00     0.287 HD
HETATM   11  C   UNL     1      40.718 -14.101   4.820  1.00  0.00     0.242 C 
HETATM   12  C   UNL     1      42.946 -15.306   5.029  1.00  0.00     0.203 C 
HETATM   13  C   UNL     1      43.493 -14.190   5.515  1.00  0.00     0.037 C 
HETATM   14  C   UNL     1      42.779 -12.925   5.634  1.00  0.00    -0.026 A 
HETATM   15  C   UNL     1      41.414 -12.872   5.331  1.00  0.00    -0.016 A 
HETATM   16  C   UNL     1      43.446 -11.789   6.109  1.00  0.00     0.012 A 
HETATM   17  C   UNL     1      42.749 -10.601   6.320  1.00  0.00     0.001 A 
HETATM   18  C   UNL     1      41.380 -10.558   6.093  1.00  0.00     0.001 A 
HETATM   19  C   UNL     1      40.714 -11.691   5.625  1.00  0.00     0.010 A 
ENDROOT
BRANCH   1  20
HETATM   20  C   UNL     1      39.831 -12.428   0.235  1.00  0.00     0.045 A 
HETATM   21  C   UNL     1      40.960 -11.730  -0.222  1.00  0.00     0.031 A 
HETATM   22  C   UNL     1      40.912 -10.945  -1.386  1.00  0.00     0.017 A 
HETATM   23  C   UNL     1      39.723 -10.831  -2.106  1.00  0.00     0.009 A 
HETATM   24  C   UNL     1      38.576 -11.467  -1.630  1.00  0.00     0.017 A 
HETATM   25  C   UNL     1      38.633 -12.262  -0.480  1.00  0.00     0.031 A 
BRANCH  23  26
HETATM   26  C   UNL     1      39.618 -10.053  -3.368  1.00  0.00     0.155 C 
HETATM   27  C   UNL     1      40.862  -9.467  -3.985  1.00  0.00     0.096 C 
HETATM   28  O   UNL     1      38.523  -9.950  -3.916  1.00  0.00    -0.293 OA
ENDBRANCH  23  26
ENDBRANCH   1  20
BRANCH   8  29
HETATM   29  C   UNL     1      42.594 -14.833   2.188  1.00  0.00     0.248 C 
HETATM   30  N   UNL     1      43.229 -15.531   1.206  1.00  0.00    -0.368 N 
HETATM   31  H   UNL     1      42.784 -16.309   0.725  1.00  0.00     0.159 HD
HETATM   32  H   UNL     1      43.841 -14.981   0.606  1.00  0.00     0.159 HD
HETATM   33  O   UNL     1      42.819 -13.641   2.364  1.00  0.00    -0.271 OA
ENDBRANCH   8  29
TORSDOF 3
ENDMDL
