MODEL 1
REMARK VINA RESULT:      -8.6      0.000      0.000
REMARK  3 active torsions:
REMARK  status: ('A' for Active; 'I' for Inactive)
REMARK    1  A    between atoms: C_2  and  C_3 
REMARK    2  A    between atoms: N_4  and  N_5 
REMARK    3  A    between atoms: C_23  and  O_24 
ROOT
HETATM    1  N   UNL     1      41.309 -15.107   1.602  1.00  0.00    -0.189 N 
HETATM    2  C   UNL     1      40.203 -15.357   0.770  1.00  0.00     0.298 A 
HETATM    3  O   UNL     1      39.588 -16.416   0.682  1.00  0.00    -0.264 OA
HETATM    4  C   UNL     1      39.846 -14.204   0.006  1.00  0.00     0.133 A 
HETATM    5  C   UNL     1      40.518 -13.020   0.061  1.00  0.00     0.103 A 
HETATM    6  N   UNL     1      41.644 -12.823   0.860  1.00  0.00    -0.239 NA
HETATM    7  C   UNL     1      41.967 -13.877   1.556  1.00  0.00     0.239 A 
HETATM    8  N   UNL     1      38.825 -14.063  -0.892  1.00  0.00    -0.349 N 
HETATM    9  H   UNL     1      38.168 -14.792  -1.136  1.00  0.00     0.166 HD
HETATM   10  C   UNL     1      38.840 -12.783  -1.414  1.00  0.00     0.045 A 
HETATM   11  C   UNL     1      39.909 -12.098  -0.818  1.00  0.00     0.024 A 
HETATM   12  C   UNL     1      38.001 -12.188  -2.363  1.00  0.00     0.032 A 
HETATM   13  C   UNL     1      38.260 -10.857  -2.708  1.00  0.00     0.026 A 
HETATM   14  C   UNL     1      39.315 -10.157  -2.124  1.00  0.00     0.035 A 
HETATM   15 CL   UNL     1      39.598  -8.518  -2.575  1.00  0.00    -0.084 Cl
HETATM   16  C   UNL     1      40.151 -10.760  -1.179  1.00  0.00     0.040 A 
ENDROOT
BRANCH   1  17
HETATM   17  N   UNL     1      41.750 -16.185   2.352  1.00  0.00    -0.175 NA
HETATM   18  C   UNL     1      42.838 -16.814   2.054  1.00  0.00     0.150 C 
BRANCH  18  19
HETATM   19  C   UNL     1      43.280 -17.981   2.849  1.00  0.00    -0.017 A 
HETATM   20  C   UNL     1      43.678 -17.830   4.181  1.00  0.00     0.016 A 
HETATM   21  C   UNL     1      44.093 -18.945   4.910  1.00  0.00     0.037 A 
HETATM   22  C   UNL     1      44.103 -20.198   4.309  1.00  0.00     0.065 A 
HETATM   23  C   UNL     1      43.708 -20.360   2.983  1.00  0.00     0.037 A 
HETATM   24  C   UNL     1      43.296 -19.245   2.247  1.00  0.00     0.016 A 
BRANCH  22  25
HETATM   25  O   UNL     1      44.513 -21.258   5.061  1.00  0.00    -0.361 OA
HETATM   26  H   UNL     1      45.352 -21.034   5.494  1.00  0.00     0.217 HD
ENDBRANCH  22  25
ENDBRANCH  18  19
ENDBRANCH   1  17
TORSDOF 3
ENDMDL
MODEL 2
REMARK VINA RESULT:      -8.6      6.314      9.725
REMARK  3 active torsions:
REMARK  status: ('A' for Active; 'I' for Inactive)
REMARK    1  A    between atoms: C_2  and  C_3 
REMARK    2  A    between atoms: N_4  and  N_5 
REMARK    3  A    between atoms: C_23  and  O_24 
ROOT
HETATM    1  N   UNL     1      43.162 -13.881   5.833  1.00  0.00    -0.189 N 
HETATM    2  C   UNL     1      43.406 -14.959   6.704  1.00  0.00     0.298 A 
HETATM    3  O   UNL     1      43.528 -14.891   7.924  1.00  0.00    -0.264 OA
HETATM    4  C   UNL     1      43.497 -16.197   5.998  1.00  0.00     0.133 A 
HETATM    5  C   UNL     1      43.389 -16.308   4.644  1.00  0.00     0.103 A 
HETATM    6  N   UNL     1      43.199 -15.210   3.806  1.00  0.00    -0.239 NA
HETATM    7  C   UNL     1      43.115 -14.081   4.453  1.00  0.00     0.239 A 
HETATM    8  N   UNL     1      43.710 -17.449   6.503  1.00  0.00    -0.349 N 
HETATM    9  H   UNL     1      43.836 -17.660   7.485  1.00  0.00     0.166 HD
HETATM   10  C   UNL     1      43.738 -18.368   5.471  1.00  0.00     0.045 A 
HETATM   11  C   UNL     1      43.530 -17.663   4.276  1.00  0.00     0.024 A 
HETATM   12  C   UNL     1      43.933 -19.753   5.503  1.00  0.00     0.032 A 
HETATM   13  C   UNL     1      43.911 -20.435   4.281  1.00  0.00     0.026 A 
HETATM   14  C   UNL     1      43.704 -19.754   3.083  1.00  0.00     0.035 A 
HETATM   15 CL   UNL     1      43.683 -20.634   1.602  1.00  0.00    -0.084 Cl
HETATM   16  C   UNL     1      43.512 -18.370   3.059  1.00  0.00     0.040 A 
ENDROOT
BRANCH   1  17
HETATM   17  N   UNL     1      43.098 -12.632   6.431  1.00  0.00    -0.175 NA
HETATM   18  C   UNL     1      44.148 -11.891   6.557  1.00  0.00     0.150 C 
BRANCH  18  19
HETATM   19  C   UNL     1      44.068 -10.572   7.223  1.00  0.00    -0.017 A 
HETATM   20  C   UNL     1      42.867  -9.856   7.247  1.00  0.00     0.016 A 
HETATM   21  C   UNL     1      42.815  -8.612   7.878  1.00  0.00     0.037 A 
HETATM   22  C   UNL     1      43.956  -8.097   8.483  1.00  0.00     0.065 A 
HETATM   23  C   UNL     1      45.157  -8.803   8.465  1.00  0.00     0.037 A 
HETATM   24  C   UNL     1      45.215 -10.047   7.829  1.00  0.00     0.016 A 
BRANCH  22  25
HETATM   25  O   UNL     1      43.856  -6.881   9.090  1.00  0.00    -0.361 OA
HETATM   26  H   UNL     1      43.239  -6.948   9.835  1.00  0.00     0.217 HD
ENDBRANCH  22  25
ENDBRANCH  18  19
ENDBRANCH   1  17
TORSDOF 3
ENDMDL
MODEL 3
REMARK VINA RESULT:      -8.3      6.532      9.437
REMARK  3 active torsions:
REMARK  status: ('A' for Active; 'I' for Inactive)
REMARK    1  A    between atoms: C_2  and  C_3 
REMARK    2  A    between atoms: N_4  and  N_5 
REMARK    3  A    between atoms: C_23  and  O_24 
ROOT
HETATM    1  N   UNL     1      43.492 -13.762   5.979  1.00  0.00    -0.189 N 
HETATM    2  C   UNL     1      43.012 -13.930   4.668  1.00  0.00     0.298 A 
HETATM    3  O   UNL     1      42.547 -13.049   3.949  1.00  0.00    -0.264 OA
HETATM    4  C   UNL     1      43.128 -15.285   4.233  1.00  0.00     0.133 A 
HETATM    5  C   UNL     1      43.618 -16.292   5.009  1.00  0.00     0.103 A 
HETATM    6  N   UNL     1      44.038 -16.099   6.325  1.00  0.00    -0.239 NA
HETATM    7  C   UNL     1      43.931 -14.861   6.719  1.00  0.00     0.239 A 
HETATM    8  N   UNL     1      42.782 -15.821   3.024  1.00  0.00    -0.349 N 
HETATM    9  H   UNL     1      42.382 -15.299   2.255  1.00  0.00     0.166 HD
HETATM   10  C   UNL     1      43.052 -17.177   3.023  1.00  0.00     0.045 A 
HETATM   11  C   UNL     1      43.591 -17.498   4.278  1.00  0.00     0.024 A 
HETATM   12  C   UNL     1      42.858 -18.134   2.020  1.00  0.00     0.032 A 
HETATM   13  C   UNL     1      43.229 -19.452   2.307  1.00  0.00     0.026 A 
HETATM   14  C   UNL     1      43.769 -19.792   3.547  1.00  0.00     0.035 A 
HETATM   15 CL   UNL     1      44.213 -21.428   3.857  1.00  0.00    -0.084 Cl
HETATM   16  C   UNL     1      43.956 -18.831   4.544  1.00  0.00     0.040 A 
ENDROOT
BRANCH   1  17
HETATM   17  N   UNL     1      43.381 -12.482   6.498  1.00  0.00    -0.175 NA
HETATM   18  C   UNL     1      44.417 -11.829   6.908  1.00  0.00     0.150 C 
BRANCH  18  19
HETATM   19  C   UNL     1      44.278 -10.474   7.486  1.00  0.00    -0.017 A 
HETATM   20  C   UNL     1      43.044  -9.816   7.475  1.00  0.00     0.016 A 
HETATM   21  C   UNL     1      42.937  -8.537   8.023  1.00  0.00     0.037 A 
HETATM   22  C   UNL     1      44.056  -7.929   8.580  1.00  0.00     0.065 A 
HETATM   23  C   UNL     1      45.289  -8.576   8.597  1.00  0.00     0.037 A 
HETATM   24  C   UNL     1      45.403  -9.855   8.044  1.00  0.00     0.016 A 
BRANCH  22  25
HETATM   25  O   UNL     1      43.902  -6.681   9.106  1.00  0.00    -0.361 OA
HETATM   26  H   UNL     1      43.214  -6.707   9.790  1.00  0.00     0.217 HD
ENDBRANCH  22  25
ENDBRANCH  18  19
ENDBRANCH   1  17
TORSDOF 3
ENDMDL
MODEL 4
REMARK VINA RESULT:      -8.2      4.659      5.839
REMARK  3 active torsions:
REMARK  status: ('A' for Active; 'I' for Inactive)
REMARK    1  A    between atoms: C_2  and  C_3 
REMARK    2  A    between atoms: N_4  and  N_5 
REMARK    3  A    between atoms: C_23  and  O_24 
ROOT
HETATM    1  N   UNL     1      42.853 -14.198   4.765  1.00  0.00    -0.189 N 
HETATM    2  C   UNL     1      43.065 -13.593   6.017  1.00  0.00     0.298 A 
HETATM    3  O   UNL     1      43.498 -14.146   7.025  1.00  0.00    -0.264 OA
HETATM    4  C   UNL     1      42.716 -12.208   6.000  1.00  0.00     0.133 A 
HETATM    5  C   UNL     1      42.213 -11.566   4.908  1.00  0.00     0.103 A 
HETATM    6  N   UNL     1      41.966 -12.211   3.697  1.00  0.00    -0.239 NA
HETATM    7  C   UNL     1      42.286 -13.474   3.716  1.00  0.00     0.239 A 
HETATM    8  N   UNL     1      42.800 -11.298   7.017  1.00  0.00    -0.349 N 
HETATM    9  H   UNL     1      43.134 -11.505   7.949  1.00  0.00     0.166 HD
HETATM   10  C   UNL     1      42.350 -10.067   6.576  1.00  0.00     0.045 A 
HETATM   11  C   UNL     1      41.975 -10.214   5.233  1.00  0.00     0.024 A 
HETATM   12  C   UNL     1      42.244  -8.850   7.259  1.00  0.00     0.032 A 
HETATM   13  C   UNL     1      41.744  -7.754   6.548  1.00  0.00     0.026 A 
HETATM   14  C   UNL     1      41.368  -7.877   5.211  1.00  0.00     0.035 A 
HETATM   15 CL   UNL     1      40.759  -6.501   4.372  1.00  0.00    -0.084 Cl
HETATM   16  C   UNL     1      41.475  -9.097   4.537  1.00  0.00     0.040 A 
ENDROOT
BRANCH   1  17
HETATM   17  N   UNL     1      43.129 -15.555   4.702  1.00  0.00    -0.175 NA
HETATM   18  C   UNL     1      43.138 -16.189   3.577  1.00  0.00     0.150 C 
BRANCH  18  19
HETATM   19  C   UNL     1      43.406 -17.643   3.529  1.00  0.00    -0.017 A 
HETATM   20  C   UNL     1      43.917 -18.312   4.646  1.00  0.00     0.016 A 
HETATM   21  C   UNL     1      44.165 -19.683   4.578  1.00  0.00     0.037 A 
HETATM   22  C   UNL     1      43.898 -20.375   3.402  1.00  0.00     0.065 A 
HETATM   23  C   UNL     1      43.388 -19.718   2.285  1.00  0.00     0.037 A 
HETATM   24  C   UNL     1      43.142 -18.343   2.347  1.00  0.00     0.016 A 
BRANCH  22  25
HETATM   25  O   UNL     1      44.153 -21.714   3.384  1.00  0.00    -0.361 OA
HETATM   26  H   UNL     1      43.318 -22.194   3.267  1.00  0.00     0.217 HD
ENDBRANCH  22  25
ENDBRANCH  18  19
ENDBRANCH   1  17
TORSDOF 3
ENDMDL
MODEL 5
REMARK VINA RESULT:      -8.1      5.627      6.681
REMARK  3 active torsions:
REMARK  status: ('A' for Active; 'I' for Inactive)
REMARK    1  A    between atoms: C_2  and  C_3 
REMARK    2  A    between atoms: N_4  and  N_5 
REMARK    3  A    between atoms: C_23  and  O_24 
ROOT
HETATM    1  N   UNL     1      42.939 -14.380   5.717  1.00  0.00    -0.189 N 
HETATM    2  C   UNL     1      42.072 -13.476   5.079  1.00  0.00     0.298 A 
HETATM    3  O   UNL     1      41.314 -13.734   4.148  1.00  0.00    -0.264 OA
HETATM    4  C   UNL     1      42.160 -12.169   5.648  1.00  0.00     0.133 A 
HETATM    5  C   UNL     1      43.003 -11.840   6.666  1.00  0.00     0.103 A 
HETATM    6  N   UNL     1      43.889 -12.751   7.241  1.00  0.00    -0.239 NA
HETATM    7  C   UNL     1      43.806 -13.943   6.720  1.00  0.00     0.239 A 
HETATM    8  N   UNL     1      41.464 -11.044   5.303  1.00  0.00    -0.349 N 
HETATM    9  H   UNL     1      40.772 -10.998   4.567  1.00  0.00     0.166 HD
HETATM   10  C   UNL     1      41.862  -9.989   6.103  1.00  0.00     0.045 A 
HETATM   11  C   UNL     1      42.840 -10.475   6.983  1.00  0.00     0.024 A 
HETATM   12  C   UNL     1      41.439  -8.655   6.111  1.00  0.00     0.032 A 
HETATM   13  C   UNL     1      42.029  -7.797   7.046  1.00  0.00     0.026 A 
HETATM   14  C   UNL     1      43.000  -8.261   7.932  1.00  0.00     0.035 A 
HETATM   15 CL   UNL     1      43.699  -7.171   9.068  1.00  0.00    -0.084 Cl
HETATM   16  C   UNL     1      43.419  -9.594   7.915  1.00  0.00     0.040 A 
ENDROOT
BRANCH   1  17
HETATM   17  N   UNL     1      42.949 -15.667   5.201  1.00  0.00    -0.175 NA
HETATM   18  C   UNL     1      43.935 -16.472   5.417  1.00  0.00     0.150 C 
BRANCH  18  19
HETATM   19  C   UNL     1      43.942 -17.833   4.836  1.00  0.00    -0.017 A 
HETATM   20  C   UNL     1      43.960 -18.017   3.450  1.00  0.00     0.016 A 
HETATM   21  C   UNL     1      43.964 -19.310   2.923  1.00  0.00     0.037 A 
HETATM   22  C   UNL     1      43.956 -20.404   3.781  1.00  0.00     0.065 A 
HETATM   23  C   UNL     1      43.939 -20.231   5.163  1.00  0.00     0.037 A 
HETATM   24  C   UNL     1      43.930 -18.938   5.695  1.00  0.00     0.016 A 
BRANCH  22  25
HETATM   25  O   UNL     1      43.963 -21.646   3.221  1.00  0.00    -0.361 OA
HETATM   26  H   UNL     1      44.881 -21.913   3.054  1.00  0.00     0.217 HD
ENDBRANCH  22  25
ENDBRANCH  18  19
ENDBRANCH   1  17
TORSDOF 3
ENDMDL
MODEL 6
REMARK VINA RESULT:      -8.0      3.063      3.274
REMARK  3 active torsions:
REMARK  status: ('A' for Active; 'I' for Inactive)
REMARK    1  A    between atoms: C_2  and  C_3 
REMARK    2  A    between atoms: N_4  and  N_5 
REMARK    3  A    between atoms: C_23  and  O_24 
ROOT
HETATM    1  N   UNL     1      40.913 -14.874   3.693  1.00  0.00    -0.189 N 
HETATM    2  C   UNL     1      39.963 -14.614   2.689  1.00  0.00     0.298 A 
HETATM    3  O   UNL     1      39.508 -15.433   1.894  1.00  0.00    -0.264 OA
HETATM    4  C   UNL     1      39.557 -13.245   2.687  1.00  0.00     0.133 A 
HETATM    5  C   UNL     1      40.056 -12.305   3.538  1.00  0.00     0.103 A 
HETATM    6  N   UNL     1      41.037 -12.587   4.489  1.00  0.00    -0.239 NA
HETATM    7  C   UNL     1      41.404 -13.837   4.488  1.00  0.00     0.239 A 
HETATM    8  N   UNL     1      38.648 -12.630   1.873  1.00  0.00    -0.349 N 
HETATM    9  H   UNL     1      38.128 -13.091   1.138  1.00  0.00     0.166 HD
HETATM   10  C   UNL     1      38.561 -11.290   2.203  1.00  0.00     0.045 A 
HETATM   11  C   UNL     1      39.447 -11.062   3.266  1.00  0.00     0.024 A 
HETATM   12  C   UNL     1      37.777 -10.274   1.645  1.00  0.00     0.032 A 
HETATM   13  C   UNL     1      37.901  -8.992   2.190  1.00  0.00     0.026 A 
HETATM   14  C   UNL     1      38.773  -8.744   3.249  1.00  0.00     0.035 A 
HETATM   15 CL   UNL     1      38.892  -7.149   3.892  1.00  0.00    -0.084 Cl
HETATM   16  C   UNL     1      39.554  -9.764   3.799  1.00  0.00     0.040 A 
ENDROOT
BRANCH   1  17
HETATM   17  N   UNL     1      41.393 -16.173   3.742  1.00  0.00    -0.175 NA
HETATM   18  C   UNL     1      42.582 -16.468   3.331  1.00  0.00     0.150 C 
BRANCH  18  19
HETATM   19  C   UNL     1      43.069 -17.864   3.363  1.00  0.00    -0.017 A 
HETATM   20  C   UNL     1      43.699 -18.375   4.503  1.00  0.00     0.016 A 
HETATM   21  C   UNL     1      44.153 -19.694   4.510  1.00  0.00     0.037 A 
HETATM   22  C   UNL     1      43.971 -20.493   3.387  1.00  0.00     0.065 A 
HETATM   23  C   UNL     1      43.344 -19.994   2.248  1.00  0.00     0.037 A 
HETATM   24  C   UNL     1      42.892 -18.671   2.233  1.00  0.00     0.016 A 
BRANCH  22  25
HETATM   25  O   UNL     1      44.428 -21.776   3.442  1.00  0.00    -0.361 OA
HETATM   26  H   UNL     1      44.742 -21.963   4.341  1.00  0.00     0.217 HD
ENDBRANCH  22  25
ENDBRANCH  18  19
ENDBRANCH   1  17
TORSDOF 3
ENDMDL
MODEL 7
REMARK VINA RESULT:      -7.8      5.078      5.691
REMARK  3 active torsions:
REMARK  status: ('A' for Active; 'I' for Inactive)
REMARK    1  A    between atoms: C_2  and  C_3 
REMARK    2  A    between atoms: N_4  and  N_5 
REMARK    3  A    between atoms: C_23  and  O_24 
ROOT
HETATM    1  N   UNL     1      42.396 -14.479   5.561  1.00  0.00    -0.189 N 
HETATM    2  C   UNL     1      41.282 -13.894   4.932  1.00  0.00     0.298 A 
HETATM    3  O   UNL     1      40.472 -14.471   4.210  1.00  0.00    -0.264 OA
HETATM    4  C   UNL     1      41.176 -12.502   5.232  1.00  0.00     0.133 A 
HETATM    5  C   UNL     1      42.066 -11.824   6.010  1.00  0.00     0.103 A 
HETATM    6  N   UNL     1      43.190 -12.425   6.576  1.00  0.00    -0.239 NA
HETATM    7  C   UNL     1      43.283 -13.696   6.300  1.00  0.00     0.239 A 
HETATM    8  N   UNL     1      40.223 -11.614   4.818  1.00  0.00    -0.349 N 
HETATM    9  H   UNL     1      39.442 -11.845   4.219  1.00  0.00     0.166 HD
HETATM   10  C   UNL     1      40.502 -10.361   5.332  1.00  0.00     0.045 A 
HETATM   11  C   UNL     1      41.670 -10.473   6.100  1.00  0.00     0.024 A 
HETATM   12  C   UNL     1      39.818  -9.150   5.174  1.00  0.00     0.032 A 
HETATM   13  C   UNL     1      40.342  -8.025   5.821  1.00  0.00     0.026 A 
HETATM   14  C   UNL     1      41.500  -8.116   6.591  1.00  0.00     0.035 A 
HETATM   15 CL   UNL     1      42.110  -6.706   7.373  1.00  0.00    -0.084 Cl
HETATM   16  C   UNL     1      42.179  -9.328   6.742  1.00  0.00     0.040 A 
ENDROOT
BRANCH   1  17
HETATM   17  N   UNL     1      42.598 -15.823   5.291  1.00  0.00    -0.175 NA
HETATM   18  C   UNL     1      43.416 -16.210   4.370  1.00  0.00     0.150 C 
BRANCH  18  19
HETATM   19  C   UNL     1      43.600 -17.648   4.076  1.00  0.00    -0.017 A 
HETATM   20  C   UNL     1      44.007 -18.536   5.077  1.00  0.00     0.016 A 
HETATM   21  C   UNL     1      44.176 -19.888   4.776  1.00  0.00     0.037 A 
HETATM   22  C   UNL     1      43.934 -20.343   3.485  1.00  0.00     0.065 A 
HETATM   23  C   UNL     1      43.528 -19.467   2.481  1.00  0.00     0.037 A 
HETATM   24  C   UNL     1      43.362 -18.111   2.776  1.00  0.00     0.016 A 
BRANCH  22  25
HETATM   25  O   UNL     1      44.110 -21.672   3.239  1.00  0.00    -0.361 OA
HETATM   26  H   UNL     1      44.571 -22.076   3.991  1.00  0.00     0.217 HD
ENDBRANCH  22  25
ENDBRANCH  18  19
ENDBRANCH   1  17
TORSDOF 3
ENDMDL
MODEL 8
REMARK VINA RESULT:      -7.5      4.600      5.413
REMARK  3 active torsions:
REMARK  status: ('A' for Active; 'I' for Inactive)
REMARK    1  A    between atoms: C_2  and  C_3 
REMARK    2  A    between atoms: N_4  and  N_5 
REMARK    3  A    between atoms: C_23  and  O_24 
ROOT
HETATM    1  N   UNL     1      41.975 -14.125   4.723  1.00  0.00    -0.189 N 
HETATM    2  C   UNL     1      40.894 -13.456   4.120  1.00  0.00     0.298 A 
HETATM    3  O   UNL     1      40.084 -13.946   3.338  1.00  0.00    -0.264 OA
HETATM    4  C   UNL     1      40.825 -12.089   4.529  1.00  0.00     0.133 A 
HETATM    5  C   UNL     1      41.718 -11.505   5.376  1.00  0.00     0.103 A 
HETATM    6  N   UNL     1      42.809 -12.185   5.915  1.00  0.00    -0.239 NA
HETATM    7  C   UNL     1      42.869 -13.433   5.540  1.00  0.00     0.239 A 
HETATM    8  N   UNL     1      39.911 -11.140   4.167  1.00  0.00    -0.349 N 
HETATM    9  H   UNL     1      39.136 -11.297   3.536  1.00  0.00     0.166 HD
HETATM   10  C   UNL     1      40.216  -9.942   4.786  1.00  0.00     0.045 A 
HETATM   11  C   UNL     1      41.363 -10.152   5.566  1.00  0.00     0.024 A 
HETATM   12  C   UNL     1      39.574  -8.700   4.711  1.00  0.00     0.032 A 
HETATM   13  C   UNL     1      40.118  -7.648   5.457  1.00  0.00     0.026 A 
HETATM   14  C   UNL     1      41.255  -7.837   6.241  1.00  0.00     0.035 A 
HETATM   15 CL   UNL     1      41.890  -6.515   7.145  1.00  0.00    -0.084 Cl
HETATM   16  C   UNL     1      41.891  -9.080   6.308  1.00  0.00     0.040 A 
ENDROOT
BRANCH   1  17
HETATM   17  N   UNL     1      42.142 -15.449   4.351  1.00  0.00    -0.175 NA
HETATM   18  C   UNL     1      43.315 -15.980   4.259  1.00  0.00     0.150 C 
BRANCH  18  19
HETATM   19  C   UNL     1      43.477 -17.388   3.833  1.00  0.00    -0.017 A 
HETATM   20  C   UNL     1      43.038 -17.809   2.574  1.00  0.00     0.016 A 
HETATM   21  C   UNL     1      43.199 -19.142   2.194  1.00  0.00     0.037 A 
HETATM   22  C   UNL     1      43.799 -20.041   3.069  1.00  0.00     0.065 A 
HETATM   23  C   UNL     1      44.242 -19.631   4.324  1.00  0.00     0.037 A 
HETATM   24  C   UNL     1      44.078 -18.298   4.711  1.00  0.00     0.016 A 
BRANCH  22  25
HETATM   25  O   UNL     1      43.938 -21.332   2.653  1.00  0.00    -0.361 OA
HETATM   26  H   UNL     1      43.058 -21.722   2.531  1.00  0.00     0.217 HD
ENDBRANCH  22  25
ENDBRANCH  18  19
ENDBRANCH   1  17
TORSDOF 3
ENDMDL
MODEL 9
REMARK VINA RESULT:      -7.5      5.134      6.219
REMARK  3 active torsions:
REMARK  status: ('A' for Active; 'I' for Inactive)
REMARK    1  A    between atoms: C_2  and  C_3 
REMARK    2  A    between atoms: N_4  and  N_5 
REMARK    3  A    between atoms: C_23  and  O_24 
ROOT
HETATM    1  N   UNL     1      41.288 -14.164   4.797  1.00  0.00    -0.189 N 
HETATM    2  C   UNL     1      42.060 -13.052   4.412  1.00  0.00     0.298 A 
HETATM    3  O   UNL     1      42.981 -13.057   3.600  1.00  0.00    -0.264 OA
HETATM    4  C   UNL     1      41.645 -11.864   5.086  1.00  0.00     0.133 A 
HETATM    5  C   UNL     1      40.643 -11.824   6.008  1.00  0.00     0.103 A 
HETATM    6  N   UNL     1      39.932 -12.957   6.404  1.00  0.00    -0.239 NA
HETATM    7  C   UNL     1      40.313 -14.041   5.787  1.00  0.00     0.239 A 
HETATM    8  N   UNL     1      42.145 -10.597   4.960  1.00  0.00    -0.349 N 
HETATM    9  H   UNL     1      42.906 -10.337   4.347  1.00  0.00     0.166 HD
HETATM   10  C   UNL     1      41.461  -9.742   5.804  1.00  0.00     0.045 A 
HETATM   11  C   UNL     1      40.494 -10.502   6.479  1.00  0.00     0.024 A 
HETATM   12  C   UNL     1      41.625  -8.369   6.021  1.00  0.00     0.032 A 
HETATM   13  C   UNL     1      40.776  -7.758   6.951  1.00  0.00     0.026 A 
HETATM   14  C   UNL     1      39.808  -8.495   7.630  1.00  0.00     0.035 A 
HETATM   15 CL   UNL     1      38.782  -7.702   8.765  1.00  0.00    -0.084 Cl
HETATM   16  C   UNL     1      39.652  -9.866   7.409  1.00  0.00     0.040 A 
ENDROOT
BRANCH   1  17
HETATM   17  N   UNL     1      41.648 -15.371   4.220  1.00  0.00    -0.175 NA
HETATM   18  C   UNL     1      42.633 -16.070   4.679  1.00  0.00     0.150 C 
BRANCH  18  19
HETATM   19  C   UNL     1      43.023 -17.343   4.034  1.00  0.00    -0.017 A 
HETATM   20  C   UNL     1      42.631 -17.629   2.722  1.00  0.00     0.016 A 
HETATM   21  C   UNL     1      43.008 -18.837   2.135  1.00  0.00     0.037 A 
HETATM   22  C   UNL     1      43.775 -19.746   2.856  1.00  0.00     0.065 A 
HETATM   23  C   UNL     1      44.171 -19.470   4.163  1.00  0.00     0.037 A 
HETATM   24  C   UNL     1      43.791 -18.263   4.757  1.00  0.00     0.016 A 
BRANCH  22  25
HETATM   25  O   UNL     1      44.122 -20.911   2.240  1.00  0.00    -0.361 OA
HETATM   26  H   UNL     1      43.641 -20.981   1.400  1.00  0.00     0.217 HD
ENDBRANCH  22  25
ENDBRANCH  18  19
ENDBRANCH   1  17
TORSDOF 3
ENDMDL
MODEL 10
REMARK VINA RESULT:      -7.3     13.955     15.385
REMARK  3 active torsions:
REMARK  status: ('A' for Active; 'I' for Inactive)
REMARK    1  A    between atoms: C_2  and  C_3 
REMARK    2  A    between atoms: N_4  and  N_5 
REMARK    3  A    between atoms: C_23  and  O_24 
ROOT
HETATM    1  N   UNL     1      42.646  -8.357  12.370  1.00  0.00    -0.189 N 
HETATM    2  C   UNL     1      42.495  -6.973  12.570  1.00  0.00     0.298 A 
HETATM    3  O   UNL     1      42.709  -6.094  11.740  1.00  0.00    -0.264 OA
HETATM    4  C   UNL     1      42.044  -6.677  13.892  1.00  0.00     0.133 A 
HETATM    5  C   UNL     1      41.818  -7.623  14.846  1.00  0.00     0.103 A 
HETATM    6  N   UNL     1      42.028  -8.984  14.629  1.00  0.00    -0.239 NA
HETATM    7  C   UNL     1      42.439  -9.251  13.421  1.00  0.00     0.239 A 
HETATM    8  N   UNL     1      41.774  -5.455  14.444  1.00  0.00    -0.349 N 
HETATM    9  H   UNL     1      41.865  -4.572  13.960  1.00  0.00     0.166 HD
HETATM   10  C   UNL     1      41.371  -5.618  15.756  1.00  0.00     0.045 A 
HETATM   11  C   UNL     1      41.387  -6.993  16.033  1.00  0.00     0.024 A 
HETATM   12  C   UNL     1      41.001  -4.662  16.710  1.00  0.00     0.032 A 
HETATM   13  C   UNL     1      40.637  -5.126  17.979  1.00  0.00     0.026 A 
HETATM   14  C   UNL     1      40.643  -6.489  18.274  1.00  0.00     0.035 A 
HETATM   15 CL   UNL     1      40.184  -7.016  19.848  1.00  0.00    -0.084 Cl
HETATM   16  C   UNL     1      41.016  -7.436  17.316  1.00  0.00     0.040 A 
ENDROOT
BRANCH   1  17
HETATM   17  N   UNL     1      43.119  -8.733  11.123  1.00  0.00    -0.175 NA
HETATM   18  C   UNL     1      44.167  -9.478  10.997  1.00  0.00     0.150 C 
BRANCH  18  19
HETATM   19  C   UNL     1      44.676  -9.848   9.657  1.00  0.00    -0.017 A 
HETATM   20  C   UNL     1      45.795  -9.206   9.116  1.00  0.00     0.016 A 
HETATM   21  C   UNL     1      46.255  -9.570   7.850  1.00  0.00     0.037 A 
HETATM   22  C   UNL     1      45.602 -10.569   7.138  1.00  0.00     0.065 A 
HETATM   23  C   UNL     1      44.488 -11.215   7.669  1.00  0.00     0.037 A 
HETATM   24  C   UNL     1      44.019 -10.851   8.935  1.00  0.00     0.016 A 
BRANCH  22  25
HETATM   25  O   UNL     1      46.090 -10.893   5.908  1.00  0.00    -0.361 OA
HETATM   26  H   UNL     1      47.049 -10.747   5.899  1.00  0.00     0.217 HD
ENDBRANCH  22  25
ENDBRANCH  18  19
ENDBRANCH   1  17
TORSDOF 3
ENDMDL
