MODEL 1
REMARK VINA RESULT:      -9.2      0.000      0.000
REMARK  7 active torsions:
REMARK  status: ('A' for Active; 'I' for Inactive)
REMARK    1  A    between atoms: C_2  and  C_3 
REMARK    2  A    between atoms: N_21  and  N_23 
REMARK       I    between atoms: N_23  and  C_24 
REMARK    3  A    between atoms: C_24  and  C_25 
REMARK    4  A    between atoms: C_25  and  N_26 
REMARK    5  A    between atoms: C_25  and  C_34 
REMARK       I    between atoms: N_26  and  C_27 
REMARK    6  A    between atoms: C_27  and  O_28 
REMARK    7  A    between atoms: O_28  and  C_29 
ROOT
HETATM    1  C   UNL     1      40.953  -8.701   5.442  1.00  0.00    -0.041 C 
HETATM    2  C   UNL     1      41.668  -9.986   5.370  1.00  0.00     0.005 C 
HETATM    3  C   UNL     1      41.375 -10.956   6.333  1.00  0.00     0.091 C 
HETATM    4  C   UNL     1      41.592 -12.306   6.076  1.00  0.00     0.075 C 
HETATM    5  C   UNL     1      42.183 -12.663   4.865  1.00  0.00     0.079 C 
HETATM    6  C   UNL     1      42.778 -11.694   4.053  1.00  0.00    -0.024 C 
HETATM    7  C   UNL     1      43.602 -12.090   2.856  1.00  0.00     0.044 C 
HETATM    8  C   UNL     1      43.567 -13.598   2.622  1.00  0.00     0.043 C 
HETATM    9  C   UNL     1      42.200 -14.171   3.035  1.00  0.00     0.068 C 
HETATM   10  C   UNL     1      41.036 -13.529   2.223  1.00  0.00     0.038 C 
HETATM   11  C   UNL     1      39.678 -14.140   2.550  1.00  0.00     0.003 C 
HETATM   12  C   UNL     1      39.687 -15.639   2.294  1.00  0.00     0.000 C 
HETATM   13  C   UNL     1      40.808 -16.324   3.070  1.00  0.00     0.003 C 
HETATM   14  C   UNL     1      42.177 -15.696   2.788  1.00  0.00     0.038 C 
HETATM   15  O   UNL     1      42.059 -13.970   4.468  1.00  0.00    -0.340 OA
HETATM   16  C   UNL     1      42.486 -10.347   4.294  1.00  0.00     0.024 C 
HETATM   17  O   UNL     1      40.815 -10.596   7.577  1.00  0.00    -0.292 OA
HETATM   18  C   UNL     1      40.312  -9.325   7.700  1.00  0.00     0.163 C 
HETATM   19  N   UNL     1      39.885  -9.006   8.865  1.00  0.00    -0.277 N 
HETATM   20  H   UNL     1      39.344  -8.130   8.964  1.00  0.00     0.189 HD
HETATM   21  C   UNL     1      40.250  -8.428   6.551  1.00  0.00     0.065 C 
ENDROOT
BRANCH  19  22
HETATM   22  N   UNL     1      40.246  -9.644  10.067  1.00  0.00    -0.266 N 
HETATM   23  C   UNL     1      40.751  -8.771  11.020  1.00  0.00     0.263 C 
HETATM   24  O   UNL     1      40.398  -7.586  11.001  1.00  0.00    -0.269 OA
HETATM   25  H   UNL     1      40.502 -10.626  10.009  1.00  0.00     0.190 HD
BRANCH  23  26
HETATM   26  C   UNL     1      41.927  -9.312  11.870  1.00  0.00     0.214 C 
BRANCH  26  27
HETATM   27  N   UNL     1      43.137  -9.106  11.093  1.00  0.00    -0.319 N 
HETATM   28  C   UNL     1      44.011 -10.115  10.834  1.00  0.00     0.362 C 
HETATM   29  O   UNL     1      43.844 -11.261  11.231  1.00  0.00    -0.238 OA
HETATM   30  H   UNL     1      43.335  -8.207  10.670  1.00  0.00     0.166 HD
BRANCH  28  31
HETATM   31  O   UNL     1      44.986  -9.660  10.026  1.00  0.00    -0.294 OA
BRANCH  31  32
HETATM   32  C   UNL     1      44.836  -9.638   8.582  1.00  0.00     0.061 C 
HETATM   33  C   UNL     1      43.828  -8.571   8.137  1.00  0.00     0.046 C 
HETATM   34  C   UNL     1      46.223  -9.251   8.046  1.00  0.00     0.046 C 
HETATM   35  C   UNL     1      44.467 -11.027   8.056  1.00  0.00     0.046 C 
ENDBRANCH  31  32
ENDBRANCH  28  31
ENDBRANCH  26  27
BRANCH  26  36
HETATM   36  C   UNL     1      42.060  -8.643  13.219  1.00  0.00    -0.026 A 
HETATM   37  C   UNL     1      43.056  -7.673  13.420  1.00  0.00     0.010 A 
HETATM   38  C   UNL     1      43.153  -6.993  14.635  1.00  0.00     0.001 A 
HETATM   39  C   UNL     1      42.253  -7.265  15.663  1.00  0.00     0.000 A 
HETATM   40  C   UNL     1      41.251  -8.213  15.474  1.00  0.00     0.001 A 
HETATM   41  C   UNL     1      41.150  -8.893  14.260  1.00  0.00     0.010 A 
ENDBRANCH  26  36
ENDBRANCH  23  26
ENDBRANCH  19  22
BRANCH   1  42
HETATM   42  C   UNL     1      40.830  -7.828   4.213  1.00  0.00     0.035 C 
HETATM   43  C   UNL     1      41.554  -6.500   4.357  1.00  0.00     0.010 C 
ENDBRANCH   1  42
TORSDOF 7
ENDMDL
MODEL 2
REMARK VINA RESULT:      -9.1      3.797      9.766
REMARK  7 active torsions:
REMARK  status: ('A' for Active; 'I' for Inactive)
REMARK    1  A    between atoms: C_2  and  C_3 
REMARK    2  A    between atoms: N_21  and  N_23 
REMARK       I    between atoms: N_23  and  C_24 
REMARK    3  A    between atoms: C_24  and  C_25 
REMARK    4  A    between atoms: C_25  and  N_26 
REMARK    5  A    between atoms: C_25  and  C_34 
REMARK       I    between atoms: N_26  and  C_27 
REMARK    6  A    between atoms: C_27  and  O_28 
REMARK    7  A    between atoms: O_28  and  C_29 
ROOT
HETATM    1  C   UNL     1      42.972 -14.593   6.438  1.00  0.00    -0.041 C 
HETATM    2  C   UNL     1      43.348 -13.172   6.350  1.00  0.00     0.005 C 
HETATM    3  C   UNL     1      42.353 -12.248   6.020  1.00  0.00     0.091 C 
HETATM    4  C   UNL     1      42.468 -10.912   6.391  1.00  0.00     0.075 C 
HETATM    5  C   UNL     1      43.636 -10.499   7.029  1.00  0.00     0.079 C 
HETATM    6  C   UNL     1      44.759 -11.331   7.060  1.00  0.00    -0.024 C 
HETATM    7  C   UNL     1      46.086 -10.819   7.554  1.00  0.00     0.044 C 
HETATM    8  C   UNL     1      45.974  -9.396   8.098  1.00  0.00     0.043 C 
HETATM    9  C   UNL     1      44.597  -9.182   8.752  1.00  0.00     0.068 C 
HETATM   10  C   UNL     1      44.358 -10.170   9.931  1.00  0.00     0.038 C 
HETATM   11  C   UNL     1      43.038  -9.923  10.653  1.00  0.00     0.003 C 
HETATM   12  C   UNL     1      42.973  -8.500  11.184  1.00  0.00     0.000 C 
HETATM   13  C   UNL     1      43.197  -7.484  10.068  1.00  0.00     0.003 C 
HETATM   14  C   UNL     1      44.499  -7.742   9.302  1.00  0.00     0.038 C 
HETATM   15  O   UNL     1      43.595  -9.306   7.706  1.00  0.00    -0.340 OA
HETATM   16  C   UNL     1      44.598 -12.685   6.748  1.00  0.00     0.024 C 
HETATM   17  O   UNL     1      41.185 -12.652   5.338  1.00  0.00    -0.292 OA
HETATM   18  C   UNL     1      40.932 -13.998   5.261  1.00  0.00     0.163 C 
HETATM   19  N   UNL     1      39.910 -14.333   4.565  1.00  0.00    -0.277 N 
HETATM   20  H   UNL     1      39.581 -15.312   4.621  1.00  0.00     0.189 HD
HETATM   21  C   UNL     1      41.773 -14.961   5.964  1.00  0.00     0.065 C 
ENDROOT
BRANCH  19  22
HETATM   22  N   UNL     1      39.298 -13.535   3.580  1.00  0.00    -0.266 N 
HETATM   23  C   UNL     1      39.844 -13.711   2.317  1.00  0.00     0.263 C 
HETATM   24  O   UNL     1      40.373 -14.792   2.033  1.00  0.00    -0.269 OA
HETATM   25  H   UNL     1      38.864 -12.670   3.892  1.00  0.00     0.190 HD
BRANCH  23  26
HETATM   26  C   UNL     1      39.974 -12.429   1.457  1.00  0.00     0.214 C 
BRANCH  26  27
HETATM   27  N   UNL     1      38.910 -12.477   0.468  1.00  0.00    -0.319 N 
HETATM   28  C   UNL     1      39.105 -12.976  -0.781  1.00  0.00     0.362 C 
HETATM   29  O   UNL     1      40.181 -13.421  -1.162  1.00  0.00    -0.238 OA
HETATM   30  H   UNL     1      37.969 -12.187   0.706  1.00  0.00     0.166 HD
BRANCH  28  31
HETATM   31  O   UNL     1      37.935 -12.976  -1.446  1.00  0.00    -0.294 OA
BRANCH  31  32
HETATM   32  C   UNL     1      37.481 -11.819  -2.195  1.00  0.00     0.061 C 
HETATM   33  C   UNL     1      38.616 -11.205  -3.025  1.00  0.00     0.046 C 
HETATM   34  C   UNL     1      36.414 -12.365  -3.158  1.00  0.00     0.046 C 
HETATM   35  C   UNL     1      36.834 -10.791  -1.264  1.00  0.00     0.046 C 
ENDBRANCH  31  32
ENDBRANCH  28  31
ENDBRANCH  26  27
BRANCH  26  36
HETATM   36  C   UNL     1      39.880 -11.150   2.256  1.00  0.00    -0.026 A 
HETATM   37  C   UNL     1      41.051 -10.546   2.743  1.00  0.00     0.010 A 
HETATM   38  C   UNL     1      40.994  -9.328   3.423  1.00  0.00     0.001 A 
HETATM   39  C   UNL     1      39.770  -8.693   3.620  1.00  0.00     0.000 A 
HETATM   40  C   UNL     1      38.602  -9.272   3.131  1.00  0.00     0.001 A 
HETATM   41  C   UNL     1      38.655 -10.487   2.448  1.00  0.00     0.010 A 
ENDBRANCH  26  36
ENDBRANCH  23  26
ENDBRANCH  19  22
BRANCH   1  42
HETATM   42  C   UNL     1      43.815 -15.555   7.244  1.00  0.00     0.035 C 
HETATM   43  C   UNL     1      44.689 -16.445   6.378  1.00  0.00     0.010 C 
ENDBRANCH   1  42
TORSDOF 7
ENDMDL
MODEL 3
REMARK VINA RESULT:      -9.0      5.428      9.714
REMARK  7 active torsions:
REMARK  status: ('A' for Active; 'I' for Inactive)
REMARK    1  A    between atoms: C_2  and  C_3 
REMARK    2  A    between atoms: N_21  and  N_23 
REMARK       I    between atoms: N_23  and  C_24 
REMARK    3  A    between atoms: C_24  and  C_25 
REMARK    4  A    between atoms: C_25  and  N_26 
REMARK    5  A    between atoms: C_25  and  C_34 
REMARK       I    between atoms: N_26  and  C_27 
REMARK    6  A    between atoms: C_27  and  O_28 
REMARK    7  A    between atoms: O_28  and  C_29 
ROOT
HETATM    1  C   UNL     1      38.546 -10.976   0.757  1.00  0.00    -0.041 C 
HETATM    2  C   UNL     1      39.793 -10.241   0.489  1.00  0.00     0.005 C 
HETATM    3  C   UNL     1      40.846 -10.932  -0.116  1.00  0.00     0.091 C 
HETATM    4  C   UNL     1      41.821 -10.255  -0.842  1.00  0.00     0.075 C 
HETATM    5  C   UNL     1      41.769  -8.862  -0.884  1.00  0.00     0.079 C 
HETATM    6  C   UNL     1      40.929  -8.158  -0.017  1.00  0.00    -0.024 C 
HETATM    7  C   UNL     1      41.019  -6.659   0.097  1.00  0.00     0.044 C 
HETATM    8  C   UNL     1      42.006  -6.076  -0.912  1.00  0.00     0.043 C 
HETATM    9  C   UNL     1      42.000  -6.907  -2.206  1.00  0.00     0.068 C 
HETATM   10  C   UNL     1      40.592  -6.934  -2.870  1.00  0.00     0.038 C 
HETATM   11  C   UNL     1      40.577  -7.678  -4.200  1.00  0.00     0.003 C 
HETATM   12  C   UNL     1      41.567  -7.059  -5.174  1.00  0.00     0.000 C 
HETATM   13  C   UNL     1      42.970  -7.011  -4.578  1.00  0.00     0.003 C 
HETATM   14  C   UNL     1      42.999  -6.304  -3.219  1.00  0.00     0.038 C 
HETATM   15  O   UNL     1      42.486  -8.237  -1.872  1.00  0.00    -0.340 OA
HETATM   16  C   UNL     1      39.914  -8.856   0.646  1.00  0.00     0.024 C 
HETATM   17  O   UNL     1      40.928 -12.339  -0.043  1.00  0.00    -0.292 OA
HETATM   18  C   UNL     1      39.814 -13.015   0.388  1.00  0.00     0.163 C 
HETATM   19  N   UNL     1      39.949 -14.282   0.521  1.00  0.00    -0.277 N 
HETATM   20  H   UNL     1      39.098 -14.850   0.673  1.00  0.00     0.189 HD
HETATM   21  C   UNL     1      38.560 -12.312   0.641  1.00  0.00     0.065 C 
ENDROOT
BRANCH  19  22
HETATM   22  N   UNL     1      41.174 -14.959   0.666  1.00  0.00    -0.266 N 
HETATM   23  C   UNL     1      41.271 -15.666   1.856  1.00  0.00     0.263 C 
HETATM   24  O   UNL     1      40.239 -16.078   2.399  1.00  0.00    -0.269 OA
HETATM   25  H   UNL     1      41.974 -14.575   0.171  1.00  0.00     0.190 HD
BRANCH  23  26
HETATM   26  C   UNL     1      42.662 -15.648   2.536  1.00  0.00     0.214 C 
BRANCH  26  27
HETATM   27  N   UNL     1      42.595 -14.664   3.603  1.00  0.00    -0.319 N 
HETATM   28  C   UNL     1      42.829 -13.343   3.384  1.00  0.00     0.362 C 
HETATM   29  O   UNL     1      43.109 -12.887   2.283  1.00  0.00    -0.238 OA
HETATM   30  H   UNL     1      42.314 -14.932   4.539  1.00  0.00     0.166 HD
BRANCH  28  31
HETATM   31  O   UNL     1      42.613 -12.660   4.524  1.00  0.00    -0.294 OA
BRANCH  31  32
HETATM   32  C   UNL     1      41.573 -11.653   4.628  1.00  0.00     0.061 C 
HETATM   33  C   UNL     1      40.268 -12.122   3.970  1.00  0.00     0.046 C 
HETATM   34  C   UNL     1      41.327 -11.491   6.136  1.00  0.00     0.046 C 
HETATM   35  C   UNL     1      42.054 -10.319   4.053  1.00  0.00     0.046 C 
ENDBRANCH  31  32
ENDBRANCH  28  31
ENDBRANCH  26  27
BRANCH  26  36
HETATM   36  C   UNL     1      43.082 -16.988   3.095  1.00  0.00    -0.026 A 
HETATM   37  C   UNL     1      43.126 -18.111   2.253  1.00  0.00     0.010 A 
HETATM   38  C   UNL     1      43.577 -19.343   2.730  1.00  0.00     0.001 A 
HETATM   39  C   UNL     1      43.998 -19.469   4.052  1.00  0.00     0.000 A 
HETATM   40  C   UNL     1      43.974 -18.362   4.896  1.00  0.00     0.001 A 
HETATM   41  C   UNL     1      43.526 -17.129   4.421  1.00  0.00     0.010 A 
ENDBRANCH  26  36
ENDBRANCH  23  26
ENDBRANCH  19  22
BRANCH   1  42
HETATM   42  C   UNL     1      37.243 -10.228   0.931  1.00  0.00     0.035 C 
HETATM   43  C   UNL     1      36.468 -10.082  -0.368  1.00  0.00     0.010 C 
ENDBRANCH   1  42
TORSDOF 7
ENDMDL
MODEL 4
REMARK VINA RESULT:      -8.9      2.949      9.816
REMARK  7 active torsions:
REMARK  status: ('A' for Active; 'I' for Inactive)
REMARK    1  A    between atoms: C_2  and  C_3 
REMARK    2  A    between atoms: N_21  and  N_23 
REMARK       I    between atoms: N_23  and  C_24 
REMARK    3  A    between atoms: C_24  and  C_25 
REMARK    4  A    between atoms: C_25  and  N_26 
REMARK    5  A    between atoms: C_25  and  C_34 
REMARK       I    between atoms: N_26  and  C_27 
REMARK    6  A    between atoms: C_27  and  O_28 
REMARK    7  A    between atoms: O_28  and  C_29 
ROOT
HETATM    1  C   UNL     1      44.779 -10.264   8.004  1.00  0.00    -0.041 C 
HETATM    2  C   UNL     1      43.650  -9.323   7.910  1.00  0.00     0.005 C 
HETATM    3  C   UNL     1      42.412  -9.822   7.497  1.00  0.00     0.091 C 
HETATM    4  C   UNL     1      41.229  -9.177   7.846  1.00  0.00     0.075 C 
HETATM    5  C   UNL     1      41.312  -7.977   8.550  1.00  0.00     0.079 C 
HETATM    6  C   UNL     1      42.533  -7.309   8.671  1.00  0.00    -0.024 C 
HETATM    7  C   UNL     1      42.598  -5.916   9.239  1.00  0.00     0.044 C 
HETATM    8  C   UNL     1      41.234  -5.449   9.744  1.00  0.00     0.043 C 
HETATM    9  C   UNL     1      40.436  -6.640  10.302  1.00  0.00     0.068 C 
HETATM   10  C   UNL     1      41.178  -7.330  11.484  1.00  0.00     0.038 C 
HETATM   11  C   UNL     1      40.370  -8.460  12.113  1.00  0.00     0.003 C 
HETATM   12  C   UNL     1      39.026  -7.949  12.608  1.00  0.00     0.000 C 
HETATM   13  C   UNL     1      38.249  -7.265  11.487  1.00  0.00     0.003 C 
HETATM   14  C   UNL     1      39.061  -6.154  10.813  1.00  0.00     0.038 C 
HETATM   15  O   UNL     1      40.180  -7.549   9.196  1.00  0.00    -0.340 OA
HETATM   16  C   UNL     1      43.710  -8.006   8.378  1.00  0.00     0.024 C 
HETATM   17  O   UNL     1      42.324 -11.016   6.749  1.00  0.00    -0.292 OA
HETATM   18  C   UNL     1      43.444 -11.806   6.685  1.00  0.00     0.163 C 
HETATM   19  N   UNL     1      43.355 -12.838   5.932  1.00  0.00    -0.277 N 
HETATM   20  H   UNL     1      44.104 -13.549   5.987  1.00  0.00     0.189 HD
HETATM   21  C   UNL     1      44.636 -11.482   7.462  1.00  0.00     0.065 C 
ENDROOT
BRANCH  19  22
HETATM   22  N   UNL     1      42.422 -13.009   4.892  1.00  0.00    -0.266 N 
HETATM   23  C   UNL     1      41.504 -14.019   5.141  1.00  0.00     0.263 C 
HETATM   24  O   UNL     1      41.223 -14.305   6.310  1.00  0.00    -0.269 OA
HETATM   25  H   UNL     1      42.715 -12.729   3.960  1.00  0.00     0.190 HD
BRANCH  23  26
HETATM   26  C   UNL     1      41.106 -14.881   3.917  1.00  0.00     0.214 C 
BRANCH  26  27
HETATM   27  N   UNL     1      41.178 -14.016   2.752  1.00  0.00    -0.319 N 
HETATM   28  C   UNL     1      40.089 -13.359   2.271  1.00  0.00     0.362 C 
HETATM   29  O   UNL     1      38.979 -13.444   2.779  1.00  0.00    -0.238 OA
HETATM   30  H   UNL     1      42.064 -13.833   2.296  1.00  0.00     0.166 HD
BRANCH  28  31
HETATM   31  O   UNL     1      40.465 -12.569   1.248  1.00  0.00    -0.294 OA
BRANCH  31  32
HETATM   32  C   UNL     1      39.949 -12.759  -0.096  1.00  0.00     0.061 C 
HETATM   33  C   UNL     1      38.594 -12.064  -0.281  1.00  0.00     0.046 C 
HETATM   34  C   UNL     1      40.975 -12.076  -1.014  1.00  0.00     0.046 C 
HETATM   35  C   UNL     1      39.880 -14.247  -0.443  1.00  0.00     0.046 C 
ENDBRANCH  31  32
ENDBRANCH  28  31
ENDBRANCH  26  27
BRANCH  26  36
HETATM   36  C   UNL     1      41.987 -16.092   3.716  1.00  0.00    -0.026 A 
HETATM   37  C   UNL     1      41.934 -16.798   2.502  1.00  0.00     0.010 A 
HETATM   38  C   UNL     1      42.787 -17.877   2.268  1.00  0.00     0.001 A 
HETATM   39  C   UNL     1      43.710 -18.263   3.237  1.00  0.00     0.000 A 
HETATM   40  C   UNL     1      43.785 -17.565   4.440  1.00  0.00     0.001 A 
HETATM   41  C   UNL     1      42.935 -16.484   4.676  1.00  0.00     0.010 A 
ENDBRANCH  26  36
ENDBRANCH  23  26
ENDBRANCH  19  22
BRANCH   1  42
HETATM   42  C   UNL     1      45.966  -9.943   8.885  1.00  0.00     0.035 C 
HETATM   43  C   UNL     1      45.637 -10.006  10.366  1.00  0.00     0.010 C 
ENDBRANCH   1  42
TORSDOF 7
ENDMDL
MODEL 5
REMARK VINA RESULT:      -8.8      3.182      9.530
REMARK  7 active torsions:
REMARK  status: ('A' for Active; 'I' for Inactive)
REMARK    1  A    between atoms: C_2  and  C_3 
REMARK    2  A    between atoms: N_21  and  N_23 
REMARK       I    between atoms: N_23  and  C_24 
REMARK    3  A    between atoms: C_24  and  C_25 
REMARK    4  A    between atoms: C_25  and  N_26 
REMARK    5  A    between atoms: C_25  and  C_34 
REMARK       I    between atoms: N_26  and  C_27 
REMARK    6  A    between atoms: C_27  and  O_28 
REMARK    7  A    between atoms: O_28  and  C_29 
ROOT
HETATM    1  C   UNL     1      43.353 -14.463   6.045  1.00  0.00    -0.041 C 
HETATM    2  C   UNL     1      43.537 -13.004   6.120  1.00  0.00     0.005 C 
HETATM    3  C   UNL     1      42.401 -12.194   6.029  1.00  0.00     0.091 C 
HETATM    4  C   UNL     1      42.393 -10.912   6.571  1.00  0.00     0.075 C 
HETATM    5  C   UNL     1      43.570 -10.425   7.137  1.00  0.00     0.079 C 
HETATM    6  C   UNL     1      44.783 -11.089   6.934  1.00  0.00    -0.024 C 
HETATM    7  C   UNL     1      46.086 -10.463   7.356  1.00  0.00     0.044 C 
HETATM    8  C   UNL     1      45.864  -9.151   8.104  1.00  0.00     0.043 C 
HETATM    9  C   UNL     1      44.561  -9.215   8.919  1.00  0.00     0.068 C 
HETATM   10  C   UNL     1      44.591 -10.368   9.966  1.00  0.00     0.038 C 
HETATM   11  C   UNL     1      43.347 -10.400  10.847  1.00  0.00     0.003 C 
HETATM   12  C   UNL     1      43.171  -9.078  11.578  1.00  0.00     0.000 C 
HETATM   13  C   UNL     1      43.130  -7.909  10.599  1.00  0.00     0.003 C 
HETATM   14  C   UNL     1      44.352  -7.883   9.674  1.00  0.00     0.038 C 
HETATM   15  O   UNL     1      43.463  -9.345   7.975  1.00  0.00    -0.340 OA
HETATM   16  C   UNL     1      44.755 -12.402   6.452  1.00  0.00     0.024 C 
HETATM   17  O   UNL     1      41.219 -12.667   5.420  1.00  0.00    -0.292 OA
HETATM   18  C   UNL     1      41.128 -14.015   5.180  1.00  0.00     0.163 C 
HETATM   19  N   UNL     1      40.078 -14.399   4.554  1.00  0.00    -0.277 N 
HETATM   20  H   UNL     1      39.883 -15.413   4.504  1.00  0.00     0.189 HD
HETATM   21  C   UNL     1      42.161 -14.933   5.650  1.00  0.00     0.065 C 
ENDROOT
BRANCH  19  22
HETATM   22  N   UNL     1      39.258 -13.576   3.759  1.00  0.00    -0.266 N 
HETATM   23  C   UNL     1      39.659 -13.521   2.432  1.00  0.00     0.263 C 
HETATM   24  O   UNL     1      40.273 -14.479   1.947  1.00  0.00    -0.269 OA
HETATM   25  H   UNL     1      38.766 -12.823   4.232  1.00  0.00     0.190 HD
BRANCH  23  26
HETATM   26  C   UNL     1      39.526 -12.139   1.747  1.00  0.00     0.214 C 
BRANCH  26  27
HETATM   27  N   UNL     1      40.187 -11.176   2.612  1.00  0.00    -0.319 N 
HETATM   28  C   UNL     1      39.496 -10.235   3.307  1.00  0.00     0.362 C 
HETATM   29  O   UNL     1      38.277 -10.130   3.260  1.00  0.00    -0.238 OA
HETATM   30  H   UNL     1      41.188 -11.217   2.764  1.00  0.00     0.166 HD
BRANCH  28  31
HETATM   31  O   UNL     1      40.349  -9.544   4.086  1.00  0.00    -0.294 OA
BRANCH  31  32
HETATM   32  C   UNL     1      40.159  -8.132   4.366  1.00  0.00     0.061 C 
HETATM   33  C   UNL     1      39.006  -7.905   5.351  1.00  0.00     0.046 C 
HETATM   34  C   UNL     1      41.467  -7.681   5.035  1.00  0.00     0.046 C 
HETATM   35  C   UNL     1      39.964  -7.346   3.067  1.00  0.00     0.046 C 
ENDBRANCH  31  32
ENDBRANCH  28  31
ENDBRANCH  26  27
BRANCH  26  36
HETATM   36  C   UNL     1      40.128 -12.087   0.362  1.00  0.00    -0.026 A 
HETATM   37  C   UNL     1      39.743 -13.036  -0.600  1.00  0.00     0.010 A 
HETATM   38  C   UNL     1      40.233 -12.965  -1.905  1.00  0.00     0.001 A 
HETATM   39  C   UNL     1      41.107 -11.944  -2.271  1.00  0.00     0.000 A 
HETATM   40  C   UNL     1      41.487 -10.988  -1.333  1.00  0.00     0.001 A 
HETATM   41  C   UNL     1      40.997 -11.054  -0.028  1.00  0.00     0.010 A 
ENDBRANCH  26  36
ENDBRANCH  23  26
ENDBRANCH  19  22
BRANCH   1  42
HETATM   42  C   UNL     1      44.401 -15.392   6.616  1.00  0.00     0.035 C 
HETATM   43  C   UNL     1      44.148 -16.850   6.273  1.00  0.00     0.010 C 
ENDBRANCH   1  42
TORSDOF 7
ENDMDL
MODEL 6
REMARK VINA RESULT:      -8.5      3.970      6.359
REMARK  7 active torsions:
REMARK  status: ('A' for Active; 'I' for Inactive)
REMARK    1  A    between atoms: C_2  and  C_3 
REMARK    2  A    between atoms: N_21  and  N_23 
REMARK       I    between atoms: N_23  and  C_24 
REMARK    3  A    between atoms: C_24  and  C_25 
REMARK    4  A    between atoms: C_25  and  N_26 
REMARK    5  A    between atoms: C_25  and  C_34 
REMARK       I    between atoms: N_26  and  C_27 
REMARK    6  A    between atoms: C_27  and  O_28 
REMARK    7  A    between atoms: O_28  and  C_29 
ROOT
HETATM    1  C   UNL     1      39.201  -8.640   2.344  1.00  0.00    -0.041 C 
HETATM    2  C   UNL     1      39.971  -9.676   1.636  1.00  0.00     0.005 C 
HETATM    3  C   UNL     1      40.008 -10.960   2.189  1.00  0.00     0.091 C 
HETATM    4  C   UNL     1      40.256 -12.073   1.392  1.00  0.00     0.075 C 
HETATM    5  C   UNL     1      40.546 -11.872   0.044  1.00  0.00     0.079 C 
HETATM    6  C   UNL     1      40.838 -10.592  -0.436  1.00  0.00    -0.024 C 
HETATM    7  C   UNL     1      41.358 -10.392  -1.835  1.00  0.00     0.044 C 
HETATM    8  C   UNL     1      41.381 -11.701  -2.620  1.00  0.00     0.043 C 
HETATM    9  C   UNL     1      40.213 -12.603  -2.187  1.00  0.00     0.068 C 
HETATM   10  C   UNL     1      38.834 -11.919  -2.430  1.00  0.00     0.038 C 
HETATM   11  C   UNL     1      37.656 -12.825  -2.091  1.00  0.00     0.003 C 
HETATM   12  C   UNL     1      37.715 -14.110  -2.901  1.00  0.00     0.000 C 
HETATM   13  C   UNL     1      39.045 -14.829  -2.699  1.00  0.00     0.003 C 
HETATM   14  C   UNL     1      40.245 -13.922  -2.993  1.00  0.00     0.038 C 
HETATM   15  O   UNL     1      40.426 -12.953  -0.792  1.00  0.00    -0.340 OA
HETATM   16  C   UNL     1      40.514  -9.489   0.361  1.00  0.00     0.024 C 
HETATM   17  O   UNL     1      39.756 -11.166   3.562  1.00  0.00    -0.292 OA
HETATM   18  C   UNL     1      39.205 -10.125   4.267  1.00  0.00     0.163 C 
HETATM   19  N   UNL     1      39.065 -10.318   5.525  1.00  0.00    -0.277 N 
HETATM   20  H   UNL     1      38.501  -9.638   6.063  1.00  0.00     0.189 HD
HETATM   21  C   UNL     1      38.784  -8.901   3.592  1.00  0.00     0.065 C 
ENDROOT
BRANCH  19  22
HETATM   22  N   UNL     1      39.768 -11.272   6.286  1.00  0.00    -0.266 N 
HETATM   23  C   UNL     1      41.076 -10.898   6.559  1.00  0.00     0.263 C 
HETATM   24  O   UNL     1      41.362  -9.697   6.610  1.00  0.00    -0.269 OA
HETATM   25  H   UNL     1      39.460 -12.237   6.211  1.00  0.00     0.190 HD
BRANCH  23  26
HETATM   26  C   UNL     1      42.122 -12.039   6.517  1.00  0.00     0.214 C 
BRANCH  26  27
HETATM   27  N   UNL     1      42.014 -12.660   5.208  1.00  0.00    -0.319 N 
HETATM   28  C   UNL     1      41.361 -13.837   5.018  1.00  0.00     0.362 C 
HETATM   29  O   UNL     1      40.819 -14.455   5.925  1.00  0.00    -0.238 OA
HETATM   30  H   UNL     1      42.379 -12.198   4.383  1.00  0.00     0.166 HD
BRANCH  28  31
HETATM   31  O   UNL     1      41.344 -14.127   3.703  1.00  0.00    -0.294 OA
BRANCH  31  32
HETATM   32  C   UNL     1      42.223 -15.129   3.129  1.00  0.00     0.061 C 
HETATM   33  C   UNL     1      43.136 -15.752   4.192  1.00  0.00     0.046 C 
HETATM   34  C   UNL     1      41.283 -16.221   2.594  1.00  0.00     0.046 C 
HETATM   35  C   UNL     1      43.022 -14.542   1.963  1.00  0.00     0.046 C 
ENDBRANCH  31  32
ENDBRANCH  28  31
ENDBRANCH  26  27
BRANCH  26  36
HETATM   36  C   UNL     1      43.540 -11.571   6.751  1.00  0.00    -0.026 A 
HETATM   37  C   UNL     1      43.927 -11.133   8.028  1.00  0.00     0.010 A 
HETATM   38  C   UNL     1      45.248 -10.762   8.284  1.00  0.00     0.001 A 
HETATM   39  C   UNL     1      46.203 -10.830   7.273  1.00  0.00     0.000 A 
HETATM   40  C   UNL     1      45.839 -11.276   6.005  1.00  0.00     0.001 A 
HETATM   41  C   UNL     1      44.520 -11.650   5.746  1.00  0.00     0.010 A 
ENDBRANCH  26  36
ENDBRANCH  23  26
ENDBRANCH  19  22
BRANCH   1  42
HETATM   42  C   UNL     1      38.703  -7.421   1.601  1.00  0.00     0.035 C 
HETATM   43  C   UNL     1      37.187  -7.348   1.535  1.00  0.00     0.010 C 
ENDBRANCH   1  42
TORSDOF 7
ENDMDL
MODEL 7
REMARK VINA RESULT:      -8.4      2.410      4.800
REMARK  7 active torsions:
REMARK  status: ('A' for Active; 'I' for Inactive)
REMARK    1  A    between atoms: C_2  and  C_3 
REMARK    2  A    between atoms: N_21  and  N_23 
REMARK       I    between atoms: N_23  and  C_24 
REMARK    3  A    between atoms: C_24  and  C_25 
REMARK    4  A    between atoms: C_25  and  N_26 
REMARK    5  A    between atoms: C_25  and  C_34 
REMARK       I    between atoms: N_26  and  C_27 
REMARK    6  A    between atoms: C_27  and  O_28 
REMARK    7  A    between atoms: O_28  and  C_29 
ROOT
HETATM    1  C   UNL     1      43.188 -13.212   6.224  1.00  0.00    -0.041 C 
HETATM    2  C   UNL     1      42.171 -12.212   5.858  1.00  0.00     0.005 C 
HETATM    3  C   UNL     1      42.511 -10.861   5.963  1.00  0.00     0.091 C 
HETATM    4  C   UNL     1      41.855  -9.898   5.202  1.00  0.00     0.075 C 
HETATM    5  C   UNL     1      40.795 -10.303   4.392  1.00  0.00     0.079 C 
HETATM    6  C   UNL     1      40.240 -11.577   4.535  1.00  0.00    -0.024 C 
HETATM    7  C   UNL     1      38.967 -11.949   3.821  1.00  0.00     0.044 C 
HETATM    8  C   UNL     1      38.500 -10.835   2.886  1.00  0.00     0.043 C 
HETATM    9  C   UNL     1      39.710 -10.093   2.294  1.00  0.00     0.068 C 
HETATM   10  C   UNL     1      40.634 -11.049   1.483  1.00  0.00     0.038 C 
HETATM   11  C   UNL     1      41.795 -10.323   0.812  1.00  0.00     0.003 C 
HETATM   12  C   UNL     1      41.284  -9.232  -0.114  1.00  0.00     0.000 C 
HETATM   13  C   UNL     1      40.374  -8.259   0.629  1.00  0.00     0.003 C 
HETATM   14  C   UNL     1      39.224  -8.973   1.347  1.00  0.00     0.038 C 
HETATM   15  O   UNL     1      40.405  -9.445   3.395  1.00  0.00    -0.340 OA
HETATM   16  C   UNL     1      40.957 -12.544   5.248  1.00  0.00     0.024 C 
HETATM   17  O   UNL     1      43.556 -10.440   6.813  1.00  0.00    -0.292 OA
HETATM   18  C   UNL     1      44.398 -11.405   7.305  1.00  0.00     0.163 C 
HETATM   19  N   UNL     1      45.284 -10.999   8.137  1.00  0.00    -0.277 N 
HETATM   20  H   UNL     1      46.042 -11.651   8.399  1.00  0.00     0.189 HD
HETATM   21  C   UNL     1      44.287 -12.792   6.867  1.00  0.00     0.065 C 
ENDROOT
BRANCH  19  22
HETATM   22  N   UNL     1      45.217  -9.804   8.878  1.00  0.00    -0.266 N 
HETATM   23  C   UNL     1      44.461  -9.919  10.036  1.00  0.00     0.263 C 
HETATM   24  O   UNL     1      44.360 -11.023  10.584  1.00  0.00    -0.269 OA
HETATM   25  H   UNL     1      45.333  -8.936   8.363  1.00  0.00     0.190 HD
BRANCH  23  26
HETATM   26  C   UNL     1      43.589  -8.690  10.393  1.00  0.00     0.214 C 
BRANCH  26  27
HETATM   27  N   UNL     1      42.551  -8.603   9.380  1.00  0.00    -0.319 N 
HETATM   28  C   UNL     1      42.079  -7.410   8.930  1.00  0.00     0.362 C 
HETATM   29  O   UNL     1      42.490  -6.331   9.338  1.00  0.00    -0.238 OA
HETATM   30  H   UNL     1      42.187  -9.438   8.937  1.00  0.00     0.166 HD
BRANCH  28  31
HETATM   31  O   UNL     1      41.194  -7.630   7.940  1.00  0.00    -0.294 OA
BRANCH  31  32
HETATM   32  C   UNL     1      39.789  -7.874   8.209  1.00  0.00     0.061 C 
HETATM   33  C   UNL     1      39.430  -7.547   9.664  1.00  0.00     0.046 C 
HETATM   34  C   UNL     1      39.034  -6.899   7.291  1.00  0.00     0.046 C 
HETATM   35  C   UNL     1      39.409  -9.309   7.836  1.00  0.00     0.046 C 
ENDBRANCH  31  32
ENDBRANCH  28  31
ENDBRANCH  26  27
BRANCH  26  36
HETATM   36  C   UNL     1      42.965  -8.767  11.767  1.00  0.00    -0.026 A 
HETATM   37  C   UNL     1      43.435  -7.931  12.793  1.00  0.00     0.010 A 
HETATM   38  C   UNL     1      42.828  -7.935  14.050  1.00  0.00     0.001 A 
HETATM   39  C   UNL     1      41.740  -8.769  14.299  1.00  0.00     0.000 A 
HETATM   40  C   UNL     1      41.253  -9.594  13.288  1.00  0.00     0.001 A 
HETATM   41  C   UNL     1      41.856  -9.590  12.030  1.00  0.00     0.010 A 
ENDBRANCH  26  36
ENDBRANCH  23  26
ENDBRANCH  19  22
BRANCH   1  42
HETATM   42  C   UNL     1      43.097 -14.623   5.686  1.00  0.00     0.035 C 
HETATM   43  C   UNL     1      44.034 -15.587   6.393  1.00  0.00     0.010 C 
ENDBRANCH   1  42
TORSDOF 7
ENDMDL
MODEL 8
REMARK VINA RESULT:      -8.3      2.921     10.007
REMARK  7 active torsions:
REMARK  status: ('A' for Active; 'I' for Inactive)
REMARK    1  A    between atoms: C_2  and  C_3 
REMARK    2  A    between atoms: N_21  and  N_23 
REMARK       I    between atoms: N_23  and  C_24 
REMARK    3  A    between atoms: C_24  and  C_25 
REMARK    4  A    between atoms: C_25  and  N_26 
REMARK    5  A    between atoms: C_25  and  C_34 
REMARK       I    between atoms: N_26  and  C_27 
REMARK    6  A    between atoms: C_27  and  O_28 
REMARK    7  A    between atoms: O_28  and  C_29 
ROOT
HETATM    1  C   UNL     1      40.764  -7.512   5.842  1.00  0.00    -0.041 C 
HETATM    2  C   UNL     1      40.254  -8.103   7.090  1.00  0.00     0.005 C 
HETATM    3  C   UNL     1      40.687  -9.386   7.435  1.00  0.00     0.091 C 
HETATM    4  C   UNL     1      40.680  -9.811   8.760  1.00  0.00     0.075 C 
HETATM    5  C   UNL     1      40.156  -8.955   9.727  1.00  0.00     0.079 C 
HETATM    6  C   UNL     1      39.424  -7.825   9.352  1.00  0.00    -0.024 C 
HETATM    7  C   UNL     1      38.676  -7.015  10.378  1.00  0.00     0.044 C 
HETATM    8  C   UNL     1      38.942  -7.516  11.795  1.00  0.00     0.043 C 
HETATM    9  C   UNL     1      40.378  -8.055  11.910  1.00  0.00     0.068 C 
HETATM   10  C   UNL     1      41.434  -6.959  11.580  1.00  0.00     0.038 C 
HETATM   11  C   UNL     1      42.868  -7.442  11.770  1.00  0.00     0.003 C 
HETATM   12  C   UNL     1      43.089  -7.923  13.195  1.00  0.00     0.000 C 
HETATM   13  C   UNL     1      42.083  -9.005  13.574  1.00  0.00     0.003 C 
HETATM   14  C   UNL     1      40.635  -8.555  13.349  1.00  0.00     0.038 C 
HETATM   15  O   UNL     1      40.480  -9.212  11.035  1.00  0.00    -0.340 OA
HETATM   16  C   UNL     1      39.506  -7.383   8.028  1.00  0.00     0.024 C 
HETATM   17  O   UNL     1      41.181 -10.273   6.454  1.00  0.00    -0.292 OA
HETATM   18  C   UNL     1      41.483  -9.748   5.222  1.00  0.00     0.163 C 
HETATM   19  N   UNL     1      41.850 -10.593   4.333  1.00  0.00    -0.277 N 
HETATM   20  H   UNL     1      42.251 -10.231   3.451  1.00  0.00     0.189 HD
HETATM   21  C   UNL     1      41.412  -8.311   4.981  1.00  0.00     0.065 C 
ENDROOT
BRANCH  19  22
HETATM   22  N   UNL     1      41.585 -11.976   4.364  1.00  0.00    -0.266 N 
HETATM   23  C   UNL     1      42.356 -12.701   3.467  1.00  0.00     0.263 C 
HETATM   24  O   UNL     1      43.464 -12.265   3.133  1.00  0.00    -0.269 OA
HETATM   25  H   UNL     1      40.660 -12.261   4.672  1.00  0.00     0.190 HD
BRANCH  23  26
HETATM   26  C   UNL     1      41.636 -13.875   2.759  1.00  0.00     0.214 C 
BRANCH  26  27
HETATM   27  N   UNL     1      41.615 -13.562   1.340  1.00  0.00    -0.319 N 
HETATM   28  C   UNL     1      40.696 -12.720   0.799  1.00  0.00     0.362 C 
HETATM   29  O   UNL     1      39.826 -12.167   1.459  1.00  0.00    -0.238 OA
HETATM   30  H   UNL     1      42.330 -13.924   0.720  1.00  0.00     0.166 HD
BRANCH  28  31
HETATM   31  O   UNL     1      40.969 -12.548  -0.508  1.00  0.00    -0.294 OA
BRANCH  31  32
HETATM   32  C   UNL     1      40.029 -12.934  -1.544  1.00  0.00     0.061 C 
HETATM   33  C   UNL     1      38.899 -11.907  -1.690  1.00  0.00     0.046 C 
HETATM   34  C   UNL     1      40.851 -12.940  -2.843  1.00  0.00     0.046 C 
HETATM   35  C   UNL     1      39.490 -14.343  -1.286  1.00  0.00     0.046 C 
ENDBRANCH  31  32
ENDBRANCH  28  31
ENDBRANCH  26  27
BRANCH  26  36
HETATM   36  C   UNL     1      42.296 -15.216   2.983  1.00  0.00    -0.026 A 
HETATM   37  C   UNL     1      42.523 -16.071   1.891  1.00  0.00     0.010 A 
HETATM   38  C   UNL     1      43.193 -17.283   2.063  1.00  0.00     0.001 A 
HETATM   39  C   UNL     1      43.652 -17.656   3.324  1.00  0.00     0.000 A 
HETATM   40  C   UNL     1      43.447 -16.814   4.413  1.00  0.00     0.001 A 
HETATM   41  C   UNL     1      42.780 -15.600   4.245  1.00  0.00     0.010 A 
ENDBRANCH  26  36
ENDBRANCH  23  26
ENDBRANCH  19  22
BRANCH   1  42
HETATM   42  C   UNL     1      40.758  -6.012   5.651  1.00  0.00     0.035 C 
HETATM   43  C   UNL     1      41.933  -5.516   4.826  1.00  0.00     0.010 C 
ENDBRANCH   1  42
TORSDOF 7
ENDMDL
MODEL 9
REMARK VINA RESULT:      -8.2      2.683      4.493
REMARK  7 active torsions:
REMARK  status: ('A' for Active; 'I' for Inactive)
REMARK    1  A    between atoms: C_2  and  C_3 
REMARK    2  A    between atoms: N_21  and  N_23 
REMARK       I    between atoms: N_23  and  C_24 
REMARK    3  A    between atoms: C_24  and  C_25 
REMARK    4  A    between atoms: C_25  and  N_26 
REMARK    5  A    between atoms: C_25  and  C_34 
REMARK       I    between atoms: N_26  and  C_27 
REMARK    6  A    between atoms: C_27  and  O_28 
REMARK    7  A    between atoms: O_28  and  C_29 
ROOT
HETATM    1  C   UNL     1      44.288 -10.926   7.085  1.00  0.00    -0.041 C 
HETATM    2  C   UNL     1      43.300 -11.995   6.864  1.00  0.00     0.005 C 
HETATM    3  C   UNL     1      42.019 -11.629   6.442  1.00  0.00     0.091 C 
HETATM    4  C   UNL     1      41.212 -12.526   5.748  1.00  0.00     0.075 C 
HETATM    5  C   UNL     1      41.680 -13.825   5.554  1.00  0.00     0.079 C 
HETATM    6  C   UNL     1      42.797 -14.289   6.255  1.00  0.00    -0.024 C 
HETATM    7  C   UNL     1      43.182 -15.744   6.217  1.00  0.00     0.044 C 
HETATM    8  C   UNL     1      42.300 -16.535   5.255  1.00  0.00     0.043 C 
HETATM    9  C   UNL     1      41.889 -15.656   4.062  1.00  0.00     0.068 C 
HETATM   10  C   UNL     1      43.127 -15.142   3.269  1.00  0.00     0.038 C 
HETATM   11  C   UNL     1      42.746 -14.339   2.030  1.00  0.00     0.003 C 
HETATM   12  C   UNL     1      41.877 -15.168   1.099  1.00  0.00     0.000 C 
HETATM   13  C   UNL     1      40.641 -15.696   1.821  1.00  0.00     0.003 C 
HETATM   14  C   UNL     1      41.001 -16.470   3.094  1.00  0.00     0.038 C 
HETATM   15  O   UNL     1      41.068 -14.573   4.581  1.00  0.00    -0.340 OA
HETATM   16  C   UNL     1      43.627 -13.355   6.885  1.00  0.00     0.024 C 
HETATM   17  O   UNL     1      41.524 -10.328   6.672  1.00  0.00    -0.292 OA
HETATM   18  C   UNL     1      42.424  -9.368   7.060  1.00  0.00     0.163 C 
HETATM   19  N   UNL     1      41.928  -8.221   7.339  1.00  0.00    -0.277 N 
HETATM   20  H   UNL     1      42.578  -7.426   7.467  1.00  0.00     0.189 HD
HETATM   21  C   UNL     1      43.854  -9.657   7.112  1.00  0.00     0.065 C 
ENDROOT
BRANCH  19  22
HETATM   22  N   UNL     1      40.584  -7.974   7.675  1.00  0.00    -0.266 N 
HETATM   23  C   UNL     1      40.404  -6.796   8.385  1.00  0.00     0.263 C 
HETATM   24  O   UNL     1      41.209  -5.870   8.232  1.00  0.00    -0.269 OA
HETATM   25  H   UNL     1      39.975  -8.784   7.761  1.00  0.00     0.190 HD
BRANCH  23  26
HETATM   26  C   UNL     1      39.345  -6.847   9.514  1.00  0.00     0.214 C 
BRANCH  26  27
HETATM   27  N   UNL     1      40.059  -7.128  10.748  1.00  0.00    -0.319 N 
HETATM   28  C   UNL     1      40.354  -8.396  11.140  1.00  0.00     0.362 C 
HETATM   29  O   UNL     1      40.046  -9.386  10.489  1.00  0.00    -0.238 OA
HETATM   30  H   UNL     1      40.409  -6.374  11.328  1.00  0.00     0.166 HD
BRANCH  28  31
HETATM   31  O   UNL     1      41.091  -8.351  12.266  1.00  0.00    -0.294 OA
BRANCH  31  32
HETATM   32  C   UNL     1      42.500  -8.698  12.274  1.00  0.00     0.061 C 
HETATM   33  C   UNL     1      43.178  -8.327  10.949  1.00  0.00     0.046 C 
HETATM   34  C   UNL     1      43.113  -7.840  13.392  1.00  0.00     0.046 C 
HETATM   35  C   UNL     1      42.690 -10.177  12.618  1.00  0.00     0.046 C 
ENDBRANCH  31  32
ENDBRANCH  28  31
ENDBRANCH  26  27
BRANCH  26  36
HETATM   36  C   UNL     1      38.548  -5.571   9.658  1.00  0.00    -0.026 A 
HETATM   37  C   UNL     1      38.452  -4.948  10.913  1.00  0.00     0.010 A 
HETATM   38  C   UNL     1      37.780  -3.733  11.055  1.00  0.00     0.001 A 
HETATM   39  C   UNL     1      37.201  -3.119   9.946  1.00  0.00     0.000 A 
HETATM   40  C   UNL     1      37.299  -3.717   8.693  1.00  0.00     0.001 A 
HETATM   41  C   UNL     1      37.973  -4.930   8.547  1.00  0.00     0.010 A 
ENDBRANCH  26  36
ENDBRANCH  23  26
ENDBRANCH  19  22
BRANCH   1  42
HETATM   42  C   UNL     1      45.767 -11.237   7.049  1.00  0.00     0.035 C 
HETATM   43  C   UNL     1      46.610 -10.186   7.751  1.00  0.00     0.010 C 
ENDBRANCH   1  42
TORSDOF 7
ENDMDL
MODEL 10
REMARK VINA RESULT:      -8.1      5.463      9.995
REMARK  7 active torsions:
REMARK  status: ('A' for Active; 'I' for Inactive)
REMARK    1  A    between atoms: C_2  and  C_3 
REMARK    2  A    between atoms: N_21  and  N_23 
REMARK       I    between atoms: N_23  and  C_24 
REMARK    3  A    between atoms: C_24  and  C_25 
REMARK    4  A    between atoms: C_25  and  N_26 
REMARK    5  A    between atoms: C_25  and  C_34 
REMARK       I    between atoms: N_26  and  C_27 
REMARK    6  A    between atoms: C_27  and  O_28 
REMARK    7  A    between atoms: O_28  and  C_29 
ROOT
HETATM    1  C   UNL     1      38.888 -13.106  -1.221  1.00  0.00    -0.041 C 
HETATM    2  C   UNL     1      39.215 -11.716  -0.866  1.00  0.00     0.005 C 
HETATM    3  C   UNL     1      40.510 -11.439  -0.416  1.00  0.00     0.091 C 
HETATM    4  C   UNL     1      41.051 -10.163  -0.537  1.00  0.00     0.075 C 
HETATM    5  C   UNL     1      40.244  -9.147  -1.044  1.00  0.00     0.079 C 
HETATM    6  C   UNL     1      38.866  -9.335  -1.179  1.00  0.00    -0.024 C 
HETATM    7  C   UNL     1      37.958  -8.183  -1.521  1.00  0.00     0.044 C 
HETATM    8  C   UNL     1      38.749  -6.909  -1.805  1.00  0.00     0.043 C 
HETATM    9  C   UNL     1      40.096  -7.252  -2.463  1.00  0.00     0.068 C 
HETATM   10  C   UNL     1      39.905  -8.012  -3.810  1.00  0.00     0.038 C 
HETATM   11  C   UNL     1      41.221  -8.288  -4.527  1.00  0.00     0.003 C 
HETATM   12  C   UNL     1      41.969  -6.993  -4.796  1.00  0.00     0.000 C 
HETATM   13  C   UNL     1      42.191  -6.205  -3.509  1.00  0.00     0.003 C 
HETATM   14  C   UNL     1      40.883  -5.954  -2.750  1.00  0.00     0.038 C 
HETATM   15  O   UNL     1      40.871  -8.014  -1.497  1.00  0.00    -0.340 OA
HETATM   16  C   UNL     1      38.360 -10.639  -1.121  1.00  0.00     0.024 C 
HETATM   17  O   UNL     1      41.318 -12.456   0.137  1.00  0.00    -0.292 OA
HETATM   18  C   UNL     1      40.909 -13.754  -0.039  1.00  0.00     0.163 C 
HETATM   19  N   UNL     1      41.620 -14.645   0.545  1.00  0.00    -0.277 N 
HETATM   20  H   UNL     1      41.456 -15.637   0.301  1.00  0.00     0.189 HD
HETATM   21  C   UNL     1      39.751 -14.070  -0.869  1.00  0.00     0.065 C 
ENDROOT
BRANCH  19  22
HETATM   22  N   UNL     1      42.484 -14.414   1.632  1.00  0.00    -0.266 N 
HETATM   23  C   UNL     1      43.193 -15.543   2.017  1.00  0.00     0.263 C 
HETATM   24  O   UNL     1      43.432 -16.420   1.180  1.00  0.00    -0.269 OA
HETATM   25  H   UNL     1      42.234 -13.660   2.266  1.00  0.00     0.190 HD
BRANCH  23  26
HETATM   26  C   UNL     1      43.393 -15.721   3.543  1.00  0.00     0.214 C 
BRANCH  26  27
HETATM   27  N   UNL     1      42.243 -15.115   4.192  1.00  0.00    -0.319 N 
HETATM   28  C   UNL     1      42.372 -14.117   5.105  1.00  0.00     0.362 C 
HETATM   29  O   UNL     1      43.454 -13.657   5.445  1.00  0.00    -0.238 OA
HETATM   30  H   UNL     1      41.301 -15.386   3.936  1.00  0.00     0.166 HD
BRANCH  28  31
HETATM   31  O   UNL     1      41.148 -13.692   5.471  1.00  0.00    -0.294 OA
BRANCH  31  32
HETATM   32  C   UNL     1      40.697 -12.338   5.208  1.00  0.00     0.061 C 
HETATM   33  C   UNL     1      40.858 -11.969   3.728  1.00  0.00     0.046 C 
HETATM   34  C   UNL     1      39.198 -12.346   5.548  1.00  0.00     0.046 C 
HETATM   35  C   UNL     1      41.412 -11.342   6.125  1.00  0.00     0.046 C 
ENDBRANCH  31  32
ENDBRANCH  28  31
ENDBRANCH  26  27
BRANCH  26  36
HETATM   36  C   UNL     1      43.529 -17.164   3.973  1.00  0.00    -0.026 A 
HETATM   37  C   UNL     1      43.729 -18.163   3.006  1.00  0.00     0.010 A 
HETATM   38  C   UNL     1      43.925 -19.492   3.385  1.00  0.00     0.001 A 
HETATM   39  C   UNL     1      43.933 -19.841   4.734  1.00  0.00     0.000 A 
HETATM   40  C   UNL     1      43.750 -18.860   5.705  1.00  0.00     0.001 A 
HETATM   41  C   UNL     1      43.556 -17.530   5.330  1.00  0.00     0.010 A 
ENDBRANCH  26  36
ENDBRANCH  23  26
ENDBRANCH  19  22
BRANCH   1  42
HETATM   42  C   UNL     1      37.735 -13.402  -2.154  1.00  0.00     0.035 C 
HETATM   43  C   UNL     1      38.112 -14.352  -3.278  1.00  0.00     0.010 C 
ENDBRANCH   1  42
TORSDOF 7
ENDMDL
