MODEL 1
REMARK VINA RESULT:      -7.6      0.000      0.000
REMARK  4 active torsions:
REMARK  status: ('A' for Active; 'I' for Inactive)
REMARK    1  A    between atoms: C_7  and  N_8 
REMARK    2  A    between atoms: N_8  and  C_9 
REMARK    3  A    between atoms: C_9  and  C_10 
REMARK    4  A    between atoms: C_11  and  O_12 
ROOT
HETATM    1  N   UNL     1      40.987 -15.234   2.084  1.00  0.00    -0.222 N 
HETATM    2  H   UNL     1      40.258 -15.667   2.632  1.00  0.00     0.178 HD
ENDROOT
BRANCH   1   3
HETATM    3  C   UNL     1      40.643 -14.690   0.909  1.00  0.00     0.679 A 
HETATM    4  N   UNL     1      39.724 -15.188   0.100  1.00  0.00    -0.190 N 
HETATM    5  C   UNL     1      39.607 -14.403  -1.028  1.00  0.00     0.076 A 
HETATM    6  H   UNL     1      39.175 -16.020   0.271  1.00  0.00     0.184 HD
HETATM    7  C   UNL     1      40.539 -13.375  -0.872  1.00  0.00     0.076 A 
HETATM    8  C   UNL     1      38.786 -14.508  -2.144  1.00  0.00     0.032 A 
HETATM    9  C   UNL     1      40.724 -12.382  -1.825  1.00  0.00     0.032 A 
HETATM   10  N   UNL     1      41.146 -13.607   0.343  1.00  0.00    -0.190 N 
HETATM   11  C   UNL     1      39.903 -12.472  -2.960  1.00  0.00     0.002 A 
HETATM   12  C   UNL     1      38.956 -13.510  -3.116  1.00  0.00     0.002 A 
HETATM   13  H   UNL     1      41.894 -13.046   0.731  1.00  0.00     0.184 HD
ENDBRANCH   1   3
BRANCH   1  14
HETATM   14  C   UNL     1      42.303 -15.029   2.684  1.00  0.00     0.179 C 
BRANCH  14  15
HETATM   15  C   UNL     1      42.924 -16.310   3.176  1.00  0.00    -0.006 A 
HETATM   16  C   UNL     1      43.460 -16.349   4.472  1.00  0.00     0.073 A 
HETATM   17  C   UNL     1      44.016 -17.512   5.002  1.00  0.00     0.038 A 
HETATM   18  C   UNL     1      44.045 -18.673   4.230  1.00  0.00     0.022 A 
HETATM   19  C   UNL     1      43.508 -18.658   2.946  1.00  0.00     0.011 A 
HETATM   20 BR   UNL     1      43.543 -20.230   1.897  1.00  0.00    -0.051 Br
HETATM   21  C   UNL     1      42.943 -17.493   2.420  1.00  0.00     0.030 A 
BRANCH  16  22
HETATM   22  O   UNL     1      43.419 -15.206   5.219  1.00  0.00    -0.360 OA
HETATM   23  H   UNL     1      43.212 -15.437   6.144  1.00  0.00     0.217 HD
ENDBRANCH  16  22
ENDBRANCH  14  15
ENDBRANCH   1  14
TORSDOF 4
ENDMDL
MODEL 2
REMARK VINA RESULT:      -7.5      5.319      7.815
REMARK  4 active torsions:
REMARK  status: ('A' for Active; 'I' for Inactive)
REMARK    1  A    between atoms: C_7  and  N_8 
REMARK    2  A    between atoms: N_8  and  C_9 
REMARK    3  A    between atoms: C_9  and  C_10 
REMARK    4  A    between atoms: C_11  and  O_12 
ROOT
HETATM    1  N   UNL     1      42.639 -13.489   6.562  1.00  0.00    -0.222 N 
HETATM    2  H   UNL     1      41.832 -13.312   5.983  1.00  0.00     0.178 HD
ENDROOT
BRANCH   1   3
HETATM    3  C   UNL     1      43.362 -12.435   6.961  1.00  0.00     0.679 A 
HETATM    4  N   UNL     1      44.676 -12.346   6.840  1.00  0.00    -0.190 N 
HETATM    5  C   UNL     1      45.120 -11.142   7.349  1.00  0.00     0.076 A 
HETATM    6  H   UNL     1      45.280 -13.046   6.434  1.00  0.00     0.184 HD
HETATM    7  C   UNL     1      43.981 -10.484   7.814  1.00  0.00     0.076 A 
HETATM    8  C   UNL     1      46.393 -10.593   7.440  1.00  0.00     0.032 A 
HETATM    9  C   UNL     1      44.031  -9.232   8.412  1.00  0.00     0.032 A 
HETATM   10  N   UNL     1      42.927 -11.332   7.546  1.00  0.00    -0.190 N 
HETATM   11  C   UNL     1      45.310  -8.661   8.514  1.00  0.00     0.002 A 
HETATM   12  C   UNL     1      46.463  -9.325   8.037  1.00  0.00     0.002 A 
HETATM   13  H   UNL     1      41.963 -11.150   7.792  1.00  0.00     0.184 HD
ENDBRANCH   1   3
BRANCH   1  14
HETATM   14  C   UNL     1      42.845 -14.828   7.109  1.00  0.00     0.179 C 
BRANCH  14  15
HETATM   15  C   UNL     1      43.152 -15.850   6.046  1.00  0.00    -0.006 A 
HETATM   16  C   UNL     1      43.500 -17.151   6.437  1.00  0.00     0.073 A 
HETATM   17  C   UNL     1      43.761 -18.154   5.505  1.00  0.00     0.038 A 
HETATM   18  C   UNL     1      43.674 -17.865   4.143  1.00  0.00     0.022 A 
HETATM   19  C   UNL     1      43.319 -16.583   3.734  1.00  0.00     0.011 A 
HETATM   20 BR   UNL     1      43.199 -16.187   1.890  1.00  0.00    -0.051 Br
HETATM   21  C   UNL     1      43.050 -15.581   4.672  1.00  0.00     0.030 A 
BRANCH  16  22
HETATM   22  O   UNL     1      43.575 -17.422   7.775  1.00  0.00    -0.360 OA
HETATM   23  H   UNL     1      42.992 -18.176   7.980  1.00  0.00     0.217 HD
ENDBRANCH  16  22
ENDBRANCH  14  15
ENDBRANCH   1  14
TORSDOF 4
ENDMDL
MODEL 3
REMARK VINA RESULT:      -7.4      3.139      7.081
REMARK  4 active torsions:
REMARK  status: ('A' for Active; 'I' for Inactive)
REMARK    1  A    between atoms: C_7  and  N_8 
REMARK    2  A    between atoms: N_8  and  C_9 
REMARK    3  A    between atoms: C_9  and  C_10 
REMARK    4  A    between atoms: C_11  and  O_12 
ROOT
HETATM    1  N   UNL     1      43.020 -14.801   2.856  1.00  0.00    -0.222 N 
HETATM    2  H   UNL     1      43.826 -14.194   2.829  1.00  0.00     0.178 HD
ENDROOT
BRANCH   1   3
HETATM    3  C   UNL     1      43.232 -16.106   3.075  1.00  0.00     0.679 A 
HETATM    4  N   UNL     1      43.046 -17.052   2.170  1.00  0.00    -0.190 N 
HETATM    5  C   UNL     1      43.346 -18.288   2.705  1.00  0.00     0.076 A 
HETATM    6  H   UNL     1      42.733 -16.906   1.220  1.00  0.00     0.184 HD
HETATM    7  C   UNL     1      43.723 -18.046   4.027  1.00  0.00     0.076 A 
HETATM    8  C   UNL     1      43.314 -19.562   2.155  1.00  0.00     0.032 A 
HETATM    9  C   UNL     1      44.089 -19.064   4.899  1.00  0.00     0.032 A 
HETATM   10  N   UNL     1      43.634 -16.681   4.195  1.00  0.00    -0.190 N 
HETATM   11  C   UNL     1      44.062 -20.360   4.360  1.00  0.00     0.002 A 
HETATM   12  C   UNL     1      43.685 -20.604   3.020  1.00  0.00     0.002 A 
HETATM   13  H   UNL     1      43.818 -16.193   5.063  1.00  0.00     0.184 HD
ENDBRANCH   1   3
BRANCH   1  14
HETATM   14  C   UNL     1      41.684 -14.214   2.878  1.00  0.00     0.179 C 
BRANCH  14  15
HETATM   15  C   UNL     1      41.148 -13.935   1.498  1.00  0.00    -0.006 A 
HETATM   16  C   UNL     1      40.373 -14.915   0.860  1.00  0.00     0.073 A 
HETATM   17  C   UNL     1      39.817 -14.707  -0.400  1.00  0.00     0.038 A 
HETATM   18  C   UNL     1      40.029 -13.493  -1.053  1.00  0.00     0.022 A 
HETATM   19  C   UNL     1      40.786 -12.503  -0.432  1.00  0.00     0.011 A 
HETATM   20 BR   UNL     1      41.075 -10.855  -1.312  1.00  0.00    -0.051 Br
HETATM   21  C   UNL     1      41.335 -12.711   0.836  1.00  0.00     0.030 A 
BRANCH  16  22
HETATM   22  O   UNL     1      40.168 -16.097   1.514  1.00  0.00    -0.360 OA
HETATM   23  H   UNL     1      39.540 -16.641   1.001  1.00  0.00     0.217 HD
ENDBRANCH  16  22
ENDBRANCH  14  15
ENDBRANCH   1  14
TORSDOF 4
ENDMDL
MODEL 4
REMARK VINA RESULT:      -7.3      5.527      7.365
REMARK  4 active torsions:
REMARK  status: ('A' for Active; 'I' for Inactive)
REMARK    1  A    between atoms: C_7  and  N_8 
REMARK    2  A    between atoms: N_8  and  C_9 
REMARK    3  A    between atoms: C_9  and  C_10 
REMARK    4  A    between atoms: C_11  and  O_12 
ROOT
HETATM    1  N   UNL     1      44.075 -16.193   6.482  1.00  0.00    -0.222 N 
HETATM    2  H   UNL     1      44.842 -16.281   7.132  1.00  0.00     0.178 HD
ENDROOT
BRANCH   1   3
HETATM    3  C   UNL     1      43.939 -17.143   5.547  1.00  0.00     0.679 A 
HETATM    4  N   UNL     1      44.151 -18.430   5.760  1.00  0.00    -0.190 N 
HETATM    5  C   UNL     1      43.932 -19.146   4.600  1.00  0.00     0.076 A 
HETATM    6  H   UNL     1      44.429 -18.846   6.638  1.00  0.00     0.184 HD
HETATM    7  C   UNL     1      43.579 -18.203   3.634  1.00  0.00     0.076 A 
HETATM    8  C   UNL     1      44.017 -20.505   4.326  1.00  0.00     0.032 A 
HETATM    9  C   UNL     1      43.292 -18.549   2.320  1.00  0.00     0.032 A 
HETATM   10  N   UNL     1      43.600 -16.985   4.279  1.00  0.00    -0.190 N 
HETATM   11  C   UNL     1      43.373 -19.919   2.024  1.00  0.00     0.002 A 
HETATM   12  C   UNL     1      43.726 -20.875   3.003  1.00  0.00     0.002 A 
HETATM   13  H   UNL     1      43.414 -16.094   3.837  1.00  0.00     0.184 HD
ENDBRANCH   1   3
BRANCH   1  14
HETATM   14  C   UNL     1      43.047 -15.184   6.724  1.00  0.00     0.179 C 
BRANCH  14  15
HETATM   15  C   UNL     1      43.441 -13.820   6.221  1.00  0.00    -0.006 A 
HETATM   16  C   UNL     1      43.002 -13.413   4.953  1.00  0.00     0.073 A 
HETATM   17  C   UNL     1      43.298 -12.151   4.442  1.00  0.00     0.038 A 
HETATM   18  C   UNL     1      44.051 -11.260   5.208  1.00  0.00     0.022 A 
HETATM   19  C   UNL     1      44.487 -11.640   6.474  1.00  0.00     0.011 A 
HETATM   20 BR   UNL     1      45.506 -10.436   7.516  1.00  0.00    -0.051 Br
HETATM   21  C   UNL     1      44.180 -12.904   6.986  1.00  0.00     0.030 A 
BRANCH  16  22
HETATM   22  O   UNL     1      42.260 -14.293   4.216  1.00  0.00    -0.360 OA
HETATM   23  H   UNL     1      42.851 -14.971   3.839  1.00  0.00     0.217 HD
ENDBRANCH  16  22
ENDBRANCH  14  15
ENDBRANCH   1  14
TORSDOF 4
ENDMDL
MODEL 5
REMARK VINA RESULT:      -7.2      1.735      2.049
REMARK  4 active torsions:
REMARK  status: ('A' for Active; 'I' for Inactive)
REMARK    1  A    between atoms: C_7  and  N_8 
REMARK    2  A    between atoms: N_8  and  C_9 
REMARK    3  A    between atoms: C_9  and  C_10 
REMARK    4  A    between atoms: C_11  and  O_12 
ROOT
HETATM    1  N   UNL     1      41.012 -13.850   2.549  1.00  0.00    -0.222 N 
HETATM    2  H   UNL     1      40.303 -13.699   3.252  1.00  0.00     0.178 HD
ENDROOT
BRANCH   1   3
HETATM    3  C   UNL     1      40.653 -13.715   1.266  1.00  0.00     0.679 A 
HETATM    4  N   UNL     1      39.952 -14.610   0.592  1.00  0.00    -0.190 N 
HETATM    5  C   UNL     1      39.751 -14.181  -0.704  1.00  0.00     0.076 A 
HETATM    6  H   UNL     1      39.603 -15.485   0.959  1.00  0.00     0.184 HD
HETATM    7  C   UNL     1      40.397 -12.947  -0.798  1.00  0.00     0.076 A 
HETATM    8  C   UNL     1      39.080 -14.759  -1.773  1.00  0.00     0.032 A 
HETATM    9  C   UNL     1      40.424 -12.203  -1.971  1.00  0.00     0.032 A 
HETATM   10  N   UNL     1      40.933 -12.713   0.450  1.00  0.00    -0.190 N 
HETATM   11  C   UNL     1      39.751 -12.773  -3.063  1.00  0.00     0.002 A 
HETATM   12  C   UNL     1      39.093 -14.020  -2.967  1.00  0.00     0.002 A 
HETATM   13  H   UNL     1      41.490 -11.905   0.697  1.00  0.00     0.184 HD
ENDBRANCH   1   3
BRANCH   1  14
HETATM   14  C   UNL     1      42.407 -13.983   2.960  1.00  0.00     0.179 C 
BRANCH  14  15
HETATM   15  C   UNL     1      42.791 -15.407   3.263  1.00  0.00    -0.006 A 
HETATM   16  C   UNL     1      43.100 -16.267   2.199  1.00  0.00     0.073 A 
HETATM   17  C   UNL     1      43.499 -17.585   2.412  1.00  0.00     0.038 A 
HETATM   18  C   UNL     1      43.596 -18.072   3.715  1.00  0.00     0.022 A 
HETATM   19  C   UNL     1      43.305 -17.231   4.786  1.00  0.00     0.011 A 
HETATM   20 BR   UNL     1      43.437 -17.885   6.554  1.00  0.00    -0.051 Br
HETATM   21  C   UNL     1      42.914 -15.907   4.569  1.00  0.00     0.030 A 
BRANCH  16  22
HETATM   22  O   UNL     1      43.007 -15.776   0.927  1.00  0.00    -0.360 OA
HETATM   23  H   UNL     1      42.583 -14.897   0.955  1.00  0.00     0.217 HD
ENDBRANCH  16  22
ENDBRANCH  14  15
ENDBRANCH   1  14
TORSDOF 4
ENDMDL
MODEL 6
REMARK VINA RESULT:      -7.1      5.366      7.635
REMARK  4 active torsions:
REMARK  status: ('A' for Active; 'I' for Inactive)
REMARK    1  A    between atoms: C_7  and  N_8 
REMARK    2  A    between atoms: N_8  and  C_9 
REMARK    3  A    between atoms: C_9  and  C_10 
REMARK    4  A    between atoms: C_11  and  O_12 
ROOT
HETATM    1  N   UNL     1      42.659 -12.915   5.668  1.00  0.00    -0.222 N 
HETATM    2  H   UNL     1      41.801 -12.810   6.189  1.00  0.00     0.178 HD
ENDROOT
BRANCH   1   3
HETATM    3  C   UNL     1      42.887 -14.097   5.079  1.00  0.00     0.679 A 
HETATM    4  N   UNL     1      43.379 -15.155   5.702  1.00  0.00    -0.190 N 
HETATM    5  C   UNL     1      43.501 -16.211   4.822  1.00  0.00     0.076 A 
HETATM    6  H   UNL     1      43.631 -15.200   6.680  1.00  0.00     0.184 HD
HETATM    7  C   UNL     1      43.058 -15.729   3.589  1.00  0.00     0.076 A 
HETATM    8  C   UNL     1      43.953 -17.511   5.000  1.00  0.00     0.032 A 
HETATM    9  C   UNL     1      43.044 -16.510   2.441  1.00  0.00     0.032 A 
HETATM   10  N   UNL     1      42.692 -14.419   3.812  1.00  0.00    -0.190 N 
HETATM   11  C   UNL     1      43.499 -17.829   2.602  1.00  0.00     0.002 A 
HETATM   12  C   UNL     1      43.941 -18.319   3.851  1.00  0.00     0.002 A 
HETATM   13  H   UNL     1      42.354 -13.784   3.099  1.00  0.00     0.184 HD
ENDBRANCH   1   3
BRANCH   1  14
HETATM   14  C   UNL     1      43.480 -11.738   5.399  1.00  0.00     0.179 C 
BRANCH  14  15
HETATM   15  C   UNL     1      44.236 -11.266   6.614  1.00  0.00    -0.006 A 
HETATM   16  C   UNL     1      45.603 -10.977   6.491  1.00  0.00     0.073 A 
HETATM   17  C   UNL     1      46.352 -10.501   7.565  1.00  0.00     0.038 A 
HETATM   18  C   UNL     1      45.734 -10.304   8.800  1.00  0.00     0.022 A 
HETATM   19  C   UNL     1      44.376 -10.574   8.940  1.00  0.00     0.011 A 
HETATM   20 BR   UNL     1      43.534 -10.306  10.610  1.00  0.00    -0.051 Br
HETATM   21  C   UNL     1      43.625 -11.042   7.858  1.00  0.00     0.030 A 
BRANCH  16  22
HETATM   22  O   UNL     1      46.194 -11.169   5.274  1.00  0.00    -0.360 OA
HETATM   23  H   UNL     1      45.807 -10.546   4.630  1.00  0.00     0.217 HD
ENDBRANCH  16  22
ENDBRANCH  14  15
ENDBRANCH   1  14
TORSDOF 4
ENDMDL
MODEL 7
REMARK VINA RESULT:      -7.0      1.341      2.152
REMARK  4 active torsions:
REMARK  status: ('A' for Active; 'I' for Inactive)
REMARK    1  A    between atoms: C_7  and  N_8 
REMARK    2  A    between atoms: N_8  and  C_9 
REMARK    3  A    between atoms: C_9  and  C_10 
REMARK    4  A    between atoms: C_11  and  O_12 
ROOT
HETATM    1  N   UNL     1      39.851 -15.409   0.736  1.00  0.00    -0.222 N 
HETATM    2  H   UNL     1      39.624 -16.330   0.392  1.00  0.00     0.178 HD
ENDROOT
BRANCH   1   3
HETATM    3  C   UNL     1      39.833 -14.396  -0.140  1.00  0.00     0.679 A 
HETATM    4  N   UNL     1      40.870 -13.618  -0.398  1.00  0.00    -0.190 N 
HETATM    5  C   UNL     1      40.531 -12.668  -1.339  1.00  0.00     0.076 A 
HETATM    6  H   UNL     1      41.787 -13.697   0.022  1.00  0.00     0.184 HD
HETATM    7  C   UNL     1      39.189 -12.901  -1.644  1.00  0.00     0.076 A 
HETATM    8  C   UNL     1      41.268 -11.649  -1.929  1.00  0.00     0.032 A 
HETATM    9  C   UNL     1      38.483 -12.126  -2.556  1.00  0.00     0.032 A 
HETATM   10  N   UNL     1      38.815 -13.980  -0.873  1.00  0.00    -0.190 N 
HETATM   11  C   UNL     1      39.213 -11.091  -3.162  1.00  0.00     0.002 A 
HETATM   12  C   UNL     1      40.573 -10.858  -2.857  1.00  0.00     0.002 A 
HETATM   13  H   UNL     1      37.884 -14.376  -0.847  1.00  0.00     0.184 HD
ENDBRANCH   1   3
BRANCH   1  14
HETATM   14  C   UNL     1      39.964 -15.193   2.176  1.00  0.00     0.179 C 
BRANCH  14  15
HETATM   15  C   UNL     1      41.210 -15.806   2.760  1.00  0.00    -0.006 A 
HETATM   16  C   UNL     1      41.874 -15.134   3.797  1.00  0.00     0.073 A 
HETATM   17  C   UNL     1      43.009 -15.663   4.406  1.00  0.00     0.038 A 
HETATM   18  C   UNL     1      43.506 -16.895   3.981  1.00  0.00     0.022 A 
HETATM   19  C   UNL     1      42.855 -17.584   2.961  1.00  0.00     0.011 A 
HETATM   20 BR   UNL     1      43.524 -19.254   2.383  1.00  0.00    -0.051 Br
HETATM   21  C   UNL     1      41.711 -17.055   2.358  1.00  0.00     0.030 A 
BRANCH  16  22
HETATM   22  O   UNL     1      41.372 -13.931   4.208  1.00  0.00    -0.360 OA
HETATM   23  H   UNL     1      41.768 -13.220   3.669  1.00  0.00     0.217 HD
ENDBRANCH  16  22
ENDBRANCH  14  15
ENDBRANCH   1  14
TORSDOF 4
ENDMDL
MODEL 8
REMARK VINA RESULT:      -6.9      4.420      7.075
REMARK  4 active torsions:
REMARK  status: ('A' for Active; 'I' for Inactive)
REMARK    1  A    between atoms: C_7  and  N_8 
REMARK    2  A    between atoms: N_8  and  C_9 
REMARK    3  A    between atoms: C_9  and  C_10 
REMARK    4  A    between atoms: C_11  and  O_12 
ROOT
HETATM    1  N   UNL     1      42.957 -15.188   2.871  1.00  0.00    -0.222 N 
HETATM    2  H   UNL     1      43.722 -14.616   2.545  1.00  0.00     0.178 HD
ENDROOT
BRANCH   1   3
HETATM    3  C   UNL     1      43.212 -16.476   3.137  1.00  0.00     0.679 A 
HETATM    4  N   UNL     1      43.136 -17.449   2.245  1.00  0.00    -0.190 N 
HETATM    5  C   UNL     1      43.452 -18.658   2.831  1.00  0.00     0.076 A 
HETATM    6  H   UNL     1      42.887 -17.339   1.272  1.00  0.00     0.184 HD
HETATM    7  C   UNL     1      43.721 -18.370   4.170  1.00  0.00     0.076 A 
HETATM    8  C   UNL     1      43.520 -19.944   2.312  1.00  0.00     0.032 A 
HETATM    9  C   UNL     1      44.069 -19.350   5.091  1.00  0.00     0.032 A 
HETATM   10  N   UNL     1      43.557 -17.007   4.297  1.00  0.00    -0.190 N 
HETATM   11  C   UNL     1      44.141 -20.657   4.584  1.00  0.00     0.002 A 
HETATM   12  C   UNL     1      43.875 -20.948   3.227  1.00  0.00     0.002 A 
HETATM   13  H   UNL     1      43.654 -16.493   5.163  1.00  0.00     0.184 HD
ENDBRANCH   1   3
BRANCH   1  14
HETATM   14  C   UNL     1      41.696 -14.550   3.240  1.00  0.00     0.179 C 
BRANCH  14  15
HETATM   15  C   UNL     1      41.875 -13.454   4.257  1.00  0.00    -0.006 A 
HETATM   16  C   UNL     1      40.736 -12.867   4.828  1.00  0.00     0.073 A 
HETATM   17  C   UNL     1      40.830 -11.874   5.801  1.00  0.00     0.038 A 
HETATM   18  C   UNL     1      42.088 -11.446   6.225  1.00  0.00     0.022 A 
HETATM   19  C   UNL     1      43.231 -12.023   5.679  1.00  0.00     0.011 A 
HETATM   20 BR   UNL     1      44.937 -11.447   6.252  1.00  0.00    -0.051 Br
HETATM   21  C   UNL     1      43.132 -13.025   4.710  1.00  0.00     0.030 A 
BRANCH  16  22
HETATM   22  O   UNL     1      39.510 -13.301   4.408  1.00  0.00    -0.360 OA
HETATM   23  H   UNL     1      39.586 -14.224   4.100  1.00  0.00     0.217 HD
ENDBRANCH  16  22
ENDBRANCH  14  15
ENDBRANCH   1  14
TORSDOF 4
ENDMDL
MODEL 9
REMARK VINA RESULT:      -6.9      3.579      7.390
REMARK  4 active torsions:
REMARK  status: ('A' for Active; 'I' for Inactive)
REMARK    1  A    between atoms: C_7  and  N_8 
REMARK    2  A    between atoms: N_8  and  C_9 
REMARK    3  A    between atoms: C_9  and  C_10 
REMARK    4  A    between atoms: C_11  and  O_12 
ROOT
HETATM    1  N   UNL     1      40.156 -14.543   3.107  1.00  0.00    -0.222 N 
HETATM    2  H   UNL     1      39.181 -14.789   3.198  1.00  0.00     0.178 HD
ENDROOT
BRANCH   1   3
HETATM    3  C   UNL     1      41.058 -15.525   3.225  1.00  0.00     0.679 A 
HETATM    4  N   UNL     1      41.805 -15.724   4.298  1.00  0.00    -0.190 N 
HETATM    5  C   UNL     1      42.636 -16.809   4.106  1.00  0.00     0.076 A 
HETATM    6  H   UNL     1      41.780 -15.173   5.145  1.00  0.00     0.184 HD
HETATM    7  C   UNL     1      42.363 -17.270   2.817  1.00  0.00     0.076 A 
HETATM    8  C   UNL     1      43.581 -17.404   4.931  1.00  0.00     0.032 A 
HETATM    9  C   UNL     1      43.022 -18.357   2.255  1.00  0.00     0.032 A 
HETATM   10  N   UNL     1      41.380 -16.438   2.325  1.00  0.00    -0.190 N 
HETATM   11  C   UNL     1      43.982 -18.971   3.075  1.00  0.00     0.002 A 
HETATM   12  C   UNL     1      44.254 -18.507   4.382  1.00  0.00     0.002 A 
HETATM   13  H   UNL     1      40.986 -16.497   1.395  1.00  0.00     0.184 HD
ENDBRANCH   1   3
BRANCH   1  14
HETATM   14  C   UNL     1      40.514 -13.206   2.642  1.00  0.00     0.179 C 
BRANCH  14  15
HETATM   15  C   UNL     1      39.700 -12.766   1.454  1.00  0.00    -0.006 A 
HETATM   16  C   UNL     1      39.963 -13.341   0.202  1.00  0.00     0.073 A 
HETATM   17  C   UNL     1      39.223 -13.007  -0.931  1.00  0.00     0.038 A 
HETATM   18  C   UNL     1      38.190 -12.075  -0.826  1.00  0.00     0.022 A 
HETATM   19  C   UNL     1      37.906 -11.501   0.410  1.00  0.00     0.011 A 
HETATM   20 BR   UNL     1      36.506 -10.240   0.557  1.00  0.00    -0.051 Br
HETATM   21  C   UNL     1      38.644 -11.846   1.545  1.00  0.00     0.030 A 
BRANCH  16  22
HETATM   22  O   UNL     1      40.973 -14.257   0.115  1.00  0.00    -0.360 OA
HETATM   23  H   UNL     1      41.307 -14.450   1.011  1.00  0.00     0.217 HD
ENDBRANCH  16  22
ENDBRANCH  14  15
ENDBRANCH   1  14
TORSDOF 4
ENDMDL
MODEL 10
REMARK VINA RESULT:      -6.8     13.911     14.858
REMARK  4 active torsions:
REMARK  status: ('A' for Active; 'I' for Inactive)
REMARK    1  A    between atoms: C_7  and  N_8 
REMARK    2  A    between atoms: N_8  and  C_9 
REMARK    3  A    between atoms: C_9  and  C_10 
REMARK    4  A    between atoms: C_11  and  O_12 
ROOT
HETATM    1  N   UNL     1      44.654 -29.812   1.729  1.00  0.00    -0.222 N 
HETATM    2  H   UNL     1      44.054 -30.548   2.072  1.00  0.00     0.178 HD
ENDROOT
BRANCH   1   3
HETATM    3  C   UNL     1      44.675 -29.593   0.407  1.00  0.00     0.679 A 
HETATM    4  N   UNL     1      45.232 -28.538  -0.162  1.00  0.00    -0.190 N 
HETATM    5  C   UNL     1      45.081 -28.601  -1.532  1.00  0.00     0.076 A 
HETATM    6  H   UNL     1      45.707 -27.787   0.322  1.00  0.00     0.184 HD
HETATM    7  C   UNL     1      44.370 -29.776  -1.781  1.00  0.00     0.076 A 
HETATM    8  C   UNL     1      45.495 -27.746  -2.545  1.00  0.00     0.032 A 
HETATM    9  C   UNL     1      44.012 -30.178  -3.061  1.00  0.00     0.032 A 
HETATM   10  N   UNL     1      44.149 -30.344  -0.544  1.00  0.00    -0.190 N 
HETATM   11  C   UNL     1      44.422 -29.326  -4.099  1.00  0.00     0.002 A 
HETATM   12  C   UNL     1      45.147 -28.139  -3.848  1.00  0.00     0.002 A 
HETATM   13  H   UNL     1      43.629 -31.198  -0.386  1.00  0.00     0.184 HD
ENDBRANCH   1   3
BRANCH   1  14
HETATM   14  C   UNL     1      45.281 -28.901   2.681  1.00  0.00     0.179 C 
BRANCH  14  15
HETATM   15  C   UNL     1      46.615 -29.399   3.172  1.00  0.00    -0.006 A 
HETATM   16  C   UNL     1      47.780 -28.732   2.764  1.00  0.00     0.073 A 
HETATM   17  C   UNL     1      49.042 -29.118   3.211  1.00  0.00     0.038 A 
HETATM   18  C   UNL     1      49.160 -30.195   4.088  1.00  0.00     0.022 A 
HETATM   19  C   UNL     1      48.016 -30.863   4.515  1.00  0.00     0.011 A 
HETATM   20 BR   UNL     1      48.171 -32.322   5.706  1.00  0.00    -0.051 Br
HETATM   21  C   UNL     1      46.751 -30.468   4.072  1.00  0.00     0.030 A 
BRANCH  16  22
HETATM   22  O   UNL     1      47.648 -27.674   1.909  1.00  0.00    -0.360 OA
HETATM   23  H   UNL     1      48.473 -27.152   1.919  1.00  0.00     0.217 HD
ENDBRANCH  16  22
ENDBRANCH  14  15
ENDBRANCH   1  14
TORSDOF 4
ENDMDL
