MODEL 1
REMARK VINA RESULT:      -7.6      0.000      0.000
REMARK  7 active torsions:
REMARK  status: ('A' for Active; 'I' for Inactive)
REMARK    1  A    between atoms: C_4  and  C_5 
REMARK    2  A    between atoms: C_10  and  C_11 
REMARK       I    between atoms: C_11  and  N_12 
REMARK    3  A    between atoms: N_12  and  C_13 
REMARK    4  A    between atoms: C_13  and  C_14 
REMARK    5  A    between atoms: C_14  and  C_15 
REMARK    6  A    between atoms: C_15  and  N_16 
REMARK    7  A    between atoms: C_26  and  C_27 
ROOT
HETATM    1  C   UNL     1      40.997 -16.208   4.963  1.00  0.00     0.125 C 
HETATM    2  N   UNL     1      40.325 -14.918   4.772  1.00  0.00    -0.365 N 
HETATM    3  C   UNL     1      40.832 -13.974   3.942  1.00  0.00     0.141 A 
HETATM    4  N   UNL     1      41.885 -14.255   3.109  1.00  0.00    -0.238 N 
HETATM    5  N   UNL     1      42.299 -13.196   2.390  1.00  0.00    -0.163 NA
HETATM    6  C   UNL     1      41.420 -12.217   2.705  1.00  0.00     0.165 A 
HETATM    7  C   UNL     1      40.507 -12.665   3.689  1.00  0.00     0.092 A 
HETATM    8 BR   UNL     1      39.119 -11.680   4.469  1.00  0.00    -0.044 Br
HETATM    9  C   UNL     1      42.561 -15.543   3.064  1.00  0.00     0.221 C 
HETATM   10  C   UNL     1      41.638 -16.637   3.631  1.00  0.00     0.067 C 
HETATM   11  H   UNL     1      39.687 -14.657   5.524  1.00  0.00     0.162 HD
ENDROOT
BRANCH   6  12
HETATM   12  C   UNL     1      41.497 -10.922   2.018  1.00  0.00     0.273 C 
HETATM   13  N   UNL     1      41.261 -11.006   0.661  1.00  0.00    -0.355 N 
HETATM   14  H   UNL     1      41.127 -11.955   0.303  1.00  0.00     0.162 HD
HETATM   15  O   UNL     1      41.677  -9.833   2.565  1.00  0.00    -0.266 OA
BRANCH  13  16
HETATM   16  C   UNL     1      41.339  -9.884  -0.241  1.00  0.00     0.124 C 
BRANCH  16  17
HETATM   17  C   UNL     1      41.585 -10.288  -1.693  1.00  0.00     0.047 C 
BRANCH  17  18
HETATM   18  C   UNL     1      40.373 -10.288  -2.628  1.00  0.00     0.236 C 
BRANCH  18  19
HETATM   19  N   UNL     1      39.689 -11.623  -2.748  1.00  0.00    -0.067 N 
HETATM   20  H   UNL     1      39.281 -11.672  -3.706  1.00  0.00     0.280 HD
HETATM   21  C   UNL     1      40.588 -12.826  -2.532  1.00  0.00     0.261 C 
HETATM   22  C   UNL     1      39.777 -14.119  -2.674  1.00  0.00     0.195 C 
HETATM   23  O   UNL     1      38.673 -14.138  -1.764  1.00  0.00    -0.388 OA
HETATM   24  C   UNL     1      37.770 -13.056  -2.018  1.00  0.00     0.195 C 
HETATM   25  C   UNL     1      38.472 -11.708  -1.825  1.00  0.00     0.261 C 
ENDBRANCH  18  19
ENDBRANCH  17  18
ENDBRANCH  16  17
ENDBRANCH  13  16
ENDBRANCH   6  12
BRANCH   9  26
HETATM   26  C   UNL     1      42.982 -15.907   1.656  1.00  0.00     0.409 C 
HETATM   27  F   UNL     1      42.027 -15.609   0.745  1.00  0.00    -0.169 F 
HETATM   28  F   UNL     1      44.126 -15.298   1.274  1.00  0.00    -0.169 F 
HETATM   29  F   UNL     1      43.210 -17.241   1.566  1.00  0.00    -0.169 F 
ENDBRANCH   9  26
BRANCH   1  30
HETATM   30  C   UNL     1      41.991 -16.246   6.103  1.00  0.00     0.005 A 
HETATM   31  S   UNL     1      43.148 -17.517   6.173  1.00  0.00    -0.104 SA
HETATM   32  C   UNL     1      43.841 -16.901   7.607  1.00  0.00     0.050 A 
HETATM   33  C   UNL     1      43.204 -15.760   8.039  1.00  0.00     0.008 A 
HETATM   34  C   UNL     1      42.135 -15.385   7.176  1.00  0.00     0.017 A 
ENDBRANCH   1  30
TORSDOF 7
ENDMDL
MODEL 2
REMARK VINA RESULT:      -7.4      2.296      3.276
REMARK  7 active torsions:
REMARK  status: ('A' for Active; 'I' for Inactive)
REMARK    1  A    between atoms: C_4  and  C_5 
REMARK    2  A    between atoms: C_10  and  C_11 
REMARK       I    between atoms: C_11  and  N_12 
REMARK    3  A    between atoms: N_12  and  C_13 
REMARK    4  A    between atoms: C_13  and  C_14 
REMARK    5  A    between atoms: C_14  and  C_15 
REMARK    6  A    between atoms: C_15  and  N_16 
REMARK    7  A    between atoms: C_26  and  C_27 
ROOT
HETATM    1  C   UNL     1      41.142 -14.481   5.402  1.00  0.00     0.125 C 
HETATM    2  N   UNL     1      40.215 -13.806   4.486  1.00  0.00    -0.365 N 
HETATM    3  C   UNL     1      40.400 -13.837   3.144  1.00  0.00     0.141 A 
HETATM    4  N   UNL     1      41.347 -14.652   2.579  1.00  0.00    -0.238 N 
HETATM    5  N   UNL     1      41.438 -14.526   1.243  1.00  0.00    -0.163 NA
HETATM    6  C   UNL     1      40.446 -13.662   0.924  1.00  0.00     0.165 A 
HETATM    7  C   UNL     1      39.797 -13.196   2.092  1.00  0.00     0.092 A 
HETATM    8 BR   UNL     1      38.383 -11.973   2.182  1.00  0.00    -0.044 Br
HETATM    9  C   UNL     1      42.241 -15.508   3.345  1.00  0.00     0.221 C 
HETATM   10  C   UNL     1      41.642 -15.776   4.738  1.00  0.00     0.067 C 
HETATM   11  H   UNL     1      39.661 -13.063   4.915  1.00  0.00     0.162 HD
ENDROOT
BRANCH   6  12
HETATM   12  C   UNL     1      40.170 -13.361  -0.486  1.00  0.00     0.273 C 
HETATM   13  N   UNL     1      38.992 -13.917  -0.944  1.00  0.00    -0.355 N 
HETATM   14  H   UNL     1      38.503 -14.510  -0.270  1.00  0.00     0.162 HD
HETATM   15  O   UNL     1      40.850 -12.630  -1.208  1.00  0.00    -0.266 OA
BRANCH  13  16
HETATM   16  C   UNL     1      38.531 -13.815  -2.306  1.00  0.00     0.124 C 
BRANCH  16  17
HETATM   17  C   UNL     1      37.199 -13.079  -2.442  1.00  0.00     0.047 C 
BRANCH  17  18
HETATM   18  C   UNL     1      37.262 -11.588  -2.779  1.00  0.00     0.236 C 
BRANCH  18  19
HETATM   19  N   UNL     1      38.539 -10.914  -2.355  1.00  0.00    -0.067 N 
HETATM   20  H   UNL     1      39.171 -11.660  -1.991  1.00  0.00     0.280 HD
HETATM   21  C   UNL     1      39.257 -10.151  -3.453  1.00  0.00     0.261 C 
HETATM   22  C   UNL     1      40.533  -9.510  -2.896  1.00  0.00     0.195 C 
HETATM   23  O   UNL     1      40.238  -8.653  -1.788  1.00  0.00    -0.388 OA
HETATM   24  C   UNL     1      39.641  -9.383  -0.710  1.00  0.00     0.195 C 
HETATM   25  C   UNL     1      38.311 -10.004  -1.148  1.00  0.00     0.261 C 
ENDBRANCH  18  19
ENDBRANCH  17  18
ENDBRANCH  16  17
ENDBRANCH  13  16
ENDBRANCH   6  12
BRANCH   9  26
HETATM   26  C   UNL     1      42.504 -16.821   2.639  1.00  0.00     0.409 C 
HETATM   27  F   UNL     1      41.375 -17.354   2.117  1.00  0.00    -0.169 F 
HETATM   28  F   UNL     1      43.411 -16.712   1.644  1.00  0.00    -0.169 F 
HETATM   29  F   UNL     1      43.002 -17.732   3.513  1.00  0.00    -0.169 F 
ENDBRANCH   9  26
BRANCH   1  30
HETATM   30  C   UNL     1      42.287 -13.624   5.895  1.00  0.00     0.005 A 
HETATM   31  S   UNL     1      42.148 -11.911   5.833  1.00  0.00    -0.104 SA
HETATM   32  C   UNL     1      43.699 -11.691   6.514  1.00  0.00     0.050 A 
HETATM   33  C   UNL     1      44.323 -12.889   6.774  1.00  0.00     0.008 A 
HETATM   34  C   UNL     1      43.512 -14.004   6.413  1.00  0.00     0.017 A 
ENDBRANCH   1  30
TORSDOF 7
ENDMDL
MODEL 3
REMARK VINA RESULT:      -7.2      2.716      3.905
REMARK  7 active torsions:
REMARK  status: ('A' for Active; 'I' for Inactive)
REMARK    1  A    between atoms: C_4  and  C_5 
REMARK    2  A    between atoms: C_10  and  C_11 
REMARK       I    between atoms: C_11  and  N_12 
REMARK    3  A    between atoms: N_12  and  C_13 
REMARK    4  A    between atoms: C_13  and  C_14 
REMARK    5  A    between atoms: C_14  and  C_15 
REMARK    6  A    between atoms: C_15  and  N_16 
REMARK    7  A    between atoms: C_26  and  C_27 
ROOT
HETATM    1  C   UNL     1      41.119 -14.363   5.446  1.00  0.00     0.125 C 
HETATM    2  N   UNL     1      40.195 -13.733   4.497  1.00  0.00    -0.365 N 
HETATM    3  C   UNL     1      40.386 -13.823   3.158  1.00  0.00     0.141 A 
HETATM    4  N   UNL     1      41.338 -14.659   2.634  1.00  0.00    -0.238 N 
HETATM    5  N   UNL     1      41.435 -14.592   1.294  1.00  0.00    -0.163 NA
HETATM    6  C   UNL     1      40.442 -13.746   0.933  1.00  0.00     0.165 A 
HETATM    7  C   UNL     1      39.786 -13.231   2.076  1.00  0.00     0.092 A 
HETATM    8 BR   UNL     1      38.367 -12.010   2.106  1.00  0.00    -0.044 Br
HETATM    9  C   UNL     1      42.232 -15.477   3.441  1.00  0.00     0.221 C 
HETATM   10  C   UNL     1      41.627 -15.685   4.842  1.00  0.00     0.067 C 
HETATM   11  H   UNL     1      39.637 -12.974   4.890  1.00  0.00     0.162 HD
ENDROOT
BRANCH   6  12
HETATM   12  C   UNL     1      40.171 -13.509  -0.490  1.00  0.00     0.273 C 
HETATM   13  N   UNL     1      41.120 -12.717  -1.105  1.00  0.00    -0.355 N 
HETATM   14  H   UNL     1      41.845 -12.351  -0.484  1.00  0.00     0.162 HD
HETATM   15  O   UNL     1      39.245 -14.005  -1.133  1.00  0.00    -0.266 OA
BRANCH  13  16
HETATM   16  C   UNL     1      41.045 -12.293  -2.481  1.00  0.00     0.124 C 
BRANCH  16  17
HETATM   17  C   UNL     1      40.597 -10.842  -2.645  1.00  0.00     0.047 C 
BRANCH  17  18
HETATM   18  C   UNL     1      41.028  -9.856  -1.557  1.00  0.00     0.236 C 
BRANCH  18  19
HETATM   19  N   UNL     1      41.510  -8.531  -2.085  1.00  0.00    -0.067 N 
HETATM   20  H   UNL     1      40.802  -7.817  -1.809  1.00  0.00     0.280 HD
HETATM   21  C   UNL     1      42.873  -8.097  -1.579  1.00  0.00     0.261 C 
HETATM   22  C   UNL     1      43.252  -6.743  -2.189  1.00  0.00     0.195 C 
HETATM   23  O   UNL     1      43.233  -6.799  -3.620  1.00  0.00    -0.388 OA
HETATM   24  C   UNL     1      41.927  -7.121  -4.110  1.00  0.00     0.195 C 
HETATM   25  C   UNL     1      41.486  -8.501  -3.614  1.00  0.00     0.261 C 
ENDBRANCH  18  19
ENDBRANCH  17  18
ENDBRANCH  16  17
ENDBRANCH  13  16
ENDBRANCH   6  12
BRANCH   9  26
HETATM   26  C   UNL     1      42.502 -16.819   2.795  1.00  0.00     0.409 C 
HETATM   27  F   UNL     1      41.397 -17.333   2.207  1.00  0.00    -0.169 F 
HETATM   28  F   UNL     1      43.482 -16.769   1.867  1.00  0.00    -0.169 F 
HETATM   29  F   UNL     1      42.904 -17.717   3.730  1.00  0.00    -0.169 F 
ENDBRANCH   9  26
BRANCH   1  30
HETATM   30  C   UNL     1      42.259 -13.482   5.906  1.00  0.00     0.005 A 
HETATM   31  S   UNL     1      42.163 -11.781   5.666  1.00  0.00    -0.104 SA
HETATM   32  C   UNL     1      43.685 -11.522   6.395  1.00  0.00     0.050 A 
HETATM   33  C   UNL     1      44.269 -12.698   6.804  1.00  0.00     0.008 A 
HETATM   34  C   UNL     1      43.450 -13.829   6.518  1.00  0.00     0.017 A 
ENDBRANCH   1  30
TORSDOF 7
ENDMDL
MODEL 4
REMARK VINA RESULT:      -7.1      3.703      6.630
REMARK  7 active torsions:
REMARK  status: ('A' for Active; 'I' for Inactive)
REMARK    1  A    between atoms: C_4  and  C_5 
REMARK    2  A    between atoms: C_10  and  C_11 
REMARK       I    between atoms: C_11  and  N_12 
REMARK    3  A    between atoms: N_12  and  C_13 
REMARK    4  A    between atoms: C_13  and  C_14 
REMARK    5  A    between atoms: C_14  and  C_15 
REMARK    6  A    between atoms: C_15  and  N_16 
REMARK    7  A    between atoms: C_26  and  C_27 
ROOT
HETATM    1  C   UNL     1      40.226 -15.865   2.931  1.00  0.00     0.125 C 
HETATM    2  N   UNL     1      39.884 -14.765   3.839  1.00  0.00    -0.365 N 
HETATM    3  C   UNL     1      40.158 -13.476   3.521  1.00  0.00     0.141 A 
HETATM    4  N   UNL     1      40.591 -13.133   2.266  1.00  0.00    -0.238 N 
HETATM    5  N   UNL     1      40.866 -11.823   2.132  1.00  0.00    -0.163 NA
HETATM    6  C   UNL     1      40.509 -11.285   3.321  1.00  0.00     0.165 A 
HETATM    7  C   UNL     1      40.086 -12.296   4.217  1.00  0.00     0.092 A 
HETATM    8 BR   UNL     1      39.517 -12.067   5.986  1.00  0.00    -0.044 Br
HETATM    9  C   UNL     1      40.826 -14.094   1.199  1.00  0.00     0.221 C 
HETATM   10  C   UNL     1      40.040 -15.388   1.479  1.00  0.00     0.067 C 
HETATM   11  H   UNL     1      39.760 -15.043   4.813  1.00  0.00     0.162 HD
ENDROOT
BRANCH   6  12
HETATM   12  C   UNL     1      40.571  -9.831   3.510  1.00  0.00     0.273 C 
HETATM   13  N   UNL     1      41.307  -9.452   4.615  1.00  0.00    -0.355 N 
HETATM   14  H   UNL     1      41.657 -10.225   5.187  1.00  0.00     0.162 HD
HETATM   15  O   UNL     1      40.095  -8.990   2.746  1.00  0.00    -0.266 OA
BRANCH  13  16
HETATM   16  C   UNL     1      41.467  -8.086   5.046  1.00  0.00     0.124 C 
BRANCH  16  17
HETATM   17  C   UNL     1      41.772  -7.952   6.537  1.00  0.00     0.047 C 
BRANCH  17  18
HETATM   18  C   UNL     1      41.963  -9.250   7.325  1.00  0.00     0.236 C 
BRANCH  18  19
HETATM   19  N   UNL     1      43.371  -9.476   7.805  1.00  0.00    -0.067 N 
HETATM   20  H   UNL     1      43.938  -8.662   7.483  1.00  0.00     0.280 HD
HETATM   21  C   UNL     1      43.521  -9.617   9.309  1.00  0.00     0.261 C 
HETATM   22  C   UNL     1      44.993  -9.848   9.670  1.00  0.00     0.195 C 
HETATM   23  O   UNL     1      45.515 -10.997   8.995  1.00  0.00    -0.388 OA
HETATM   24  C   UNL     1      45.460 -10.835   7.573  1.00  0.00     0.195 C 
HETATM   25  C   UNL     1      44.011 -10.673   7.101  1.00  0.00     0.261 C 
ENDBRANCH  18  19
ENDBRANCH  17  18
ENDBRANCH  16  17
ENDBRANCH  13  16
ENDBRANCH   6  12
BRANCH   9  26
HETATM   26  C   UNL     1      40.433 -13.539  -0.153  1.00  0.00     0.409 C 
HETATM   27  F   UNL     1      40.385 -14.499  -1.105  1.00  0.00    -0.169 F 
HETATM   28  F   UNL     1      39.237 -12.910  -0.138  1.00  0.00    -0.169 F 
HETATM   29  F   UNL     1      41.342 -12.620  -0.566  1.00  0.00    -0.169 F 
ENDBRANCH   9  26
BRANCH   1  30
HETATM   30  C   UNL     1      41.594 -16.472   3.151  1.00  0.00     0.005 A 
HETATM   31  S   UNL     1      42.394 -16.229   4.654  1.00  0.00    -0.104 SA
HETATM   32  C   UNL     1      43.746 -17.149   4.163  1.00  0.00     0.050 A 
HETATM   33  C   UNL     1      43.608 -17.624   2.879  1.00  0.00     0.008 A 
HETATM   34  C   UNL     1      42.371 -17.230   2.293  1.00  0.00     0.017 A 
ENDBRANCH   1  30
TORSDOF 7
ENDMDL
MODEL 5
REMARK VINA RESULT:      -7.0      2.460      3.232
REMARK  7 active torsions:
REMARK  status: ('A' for Active; 'I' for Inactive)
REMARK    1  A    between atoms: C_4  and  C_5 
REMARK    2  A    between atoms: C_10  and  C_11 
REMARK       I    between atoms: C_11  and  N_12 
REMARK    3  A    between atoms: N_12  and  C_13 
REMARK    4  A    between atoms: C_13  and  C_14 
REMARK    5  A    between atoms: C_14  and  C_15 
REMARK    6  A    between atoms: C_15  and  N_16 
REMARK    7  A    between atoms: C_26  and  C_27 
ROOT
HETATM    1  C   UNL     1      41.187 -14.468   5.383  1.00  0.00     0.125 C 
HETATM    2  N   UNL     1      40.251 -13.886   4.414  1.00  0.00    -0.365 N 
HETATM    3  C   UNL     1      40.443 -14.020   3.079  1.00  0.00     0.141 A 
HETATM    4  N   UNL     1      41.408 -14.859   2.583  1.00  0.00    -0.238 N 
HETATM    5  N   UNL     1      41.501 -14.837   1.241  1.00  0.00    -0.163 NA
HETATM    6  C   UNL     1      40.495 -14.020   0.852  1.00  0.00     0.165 A 
HETATM    7  C   UNL     1      39.832 -13.477   1.978  1.00  0.00     0.092 A 
HETATM    8 BR   UNL     1      38.393 -12.278   1.967  1.00  0.00    -0.044 Br
HETATM    9  C   UNL     1      42.315 -15.633   3.417  1.00  0.00     0.221 C 
HETATM   10  C   UNL     1      41.715 -15.802   4.825  1.00  0.00     0.067 C 
HETATM   11  H   UNL     1      39.681 -13.123   4.781  1.00  0.00     0.162 HD
ENDROOT
BRANCH   6  12
HETATM   12  C   UNL     1      40.218 -13.838  -0.578  1.00  0.00     0.273 C 
HETATM   13  N   UNL     1      41.014 -12.879  -1.173  1.00  0.00    -0.355 N 
HETATM   14  H   UNL     1      41.641 -12.382  -0.535  1.00  0.00     0.162 HD
HETATM   15  O   UNL     1      39.419 -14.501  -1.242  1.00  0.00    -0.266 OA
BRANCH  13  16
HETATM   16  C   UNL     1      40.893 -12.476  -2.551  1.00  0.00     0.124 C 
BRANCH  16  17
HETATM   17  C   UNL     1      40.589 -10.989  -2.724  1.00  0.00     0.047 C 
BRANCH  17  18
HETATM   18  C   UNL     1      39.879 -10.287  -1.564  1.00  0.00     0.236 C 
BRANCH  18  19
HETATM   19  N   UNL     1      38.385 -10.468  -1.557  1.00  0.00    -0.067 N 
HETATM   20  H   UNL     1      38.196 -11.439  -1.227  1.00  0.00     0.280 HD
HETATM   21  C   UNL     1      37.625  -9.491  -0.679  1.00  0.00     0.261 C 
HETATM   22  C   UNL     1      36.121  -9.773  -0.761  1.00  0.00     0.195 C 
HETATM   23  O   UNL     1      35.658  -9.709  -2.114  1.00  0.00    -0.388 OA
HETATM   24  C   UNL     1      36.306 -10.689  -2.933  1.00  0.00     0.195 C 
HETATM   25  C   UNL     1      37.818 -10.445  -2.977  1.00  0.00     0.261 C 
ENDBRANCH  18  19
ENDBRANCH  17  18
ENDBRANCH  16  17
ENDBRANCH  13  16
ENDBRANCH   6  12
BRANCH   9  26
HETATM   26  C   UNL     1      42.606 -16.992   2.818  1.00  0.00     0.409 C 
HETATM   27  F   UNL     1      41.504 -17.556   2.271  1.00  0.00    -0.169 F 
HETATM   28  F   UNL     1      43.568 -16.955   1.870  1.00  0.00    -0.169 F 
HETATM   29  F   UNL     1      43.048 -17.843   3.778  1.00  0.00    -0.169 F 
ENDBRANCH   9  26
BRANCH   1  30
HETATM   30  C   UNL     1      42.313 -13.552   5.810  1.00  0.00     0.005 A 
HETATM   31  S   UNL     1      42.199 -11.866   5.488  1.00  0.00    -0.104 SA
HETATM   32  C   UNL     1      43.712 -11.555   6.217  1.00  0.00     0.050 A 
HETATM   33  C   UNL     1      44.305 -12.704   6.686  1.00  0.00     0.008 A 
HETATM   34  C   UNL     1      43.502 -13.856   6.448  1.00  0.00     0.017 A 
ENDBRANCH   1  30
TORSDOF 7
ENDMDL
MODEL 6
REMARK VINA RESULT:      -7.0      5.401      7.673
REMARK  7 active torsions:
REMARK  status: ('A' for Active; 'I' for Inactive)
REMARK    1  A    between atoms: C_4  and  C_5 
REMARK    2  A    between atoms: C_10  and  C_11 
REMARK       I    between atoms: C_11  and  N_12 
REMARK    3  A    between atoms: N_12  and  C_13 
REMARK    4  A    between atoms: C_13  and  C_14 
REMARK    5  A    between atoms: C_14  and  C_15 
REMARK    6  A    between atoms: C_15  and  N_16 
REMARK    7  A    between atoms: C_26  and  C_27 
ROOT
HETATM    1  C   UNL     1      41.928  -9.490   8.866  1.00  0.00     0.125 C 
HETATM    2  N   UNL     1      41.170 -10.067   7.751  1.00  0.00    -0.365 N 
HETATM    3  C   UNL     1      41.779 -10.437   6.598  1.00  0.00     0.141 A 
HETATM    4  N   UNL     1      43.146 -10.462   6.497  1.00  0.00    -0.238 N 
HETATM    5  N   UNL     1      43.589 -10.801   5.272  1.00  0.00    -0.163 NA
HETATM    6  C   UNL     1      42.462 -11.095   4.582  1.00  0.00     0.165 A 
HETATM    7  C   UNL     1      41.316 -10.854   5.376  1.00  0.00     0.092 A 
HETATM    8 BR   UNL     1      39.528 -11.085   4.871  1.00  0.00    -0.044 Br
HETATM    9  C   UNL     1      44.046 -10.070   7.571  1.00  0.00     0.221 C 
HETATM   10  C   UNL     1      43.314 -10.158   8.924  1.00  0.00     0.067 C 
HETATM   11  H   UNL     1      40.171  -9.857   7.764  1.00  0.00     0.162 HD
ENDROOT
BRANCH   6  12
HETATM   12  C   UNL     1      42.563 -11.616   3.214  1.00  0.00     0.273 C 
HETATM   13  N   UNL     1      42.564 -12.995   3.150  1.00  0.00    -0.355 N 
HETATM   14  H   UNL     1      42.558 -13.469   4.056  1.00  0.00     0.162 HD
HETATM   15  O   UNL     1      42.572 -10.933   2.188  1.00  0.00    -0.266 OA
BRANCH  13  16
HETATM   16  C   UNL     1      42.713 -13.744   1.928  1.00  0.00     0.124 C 
BRANCH  16  17
HETATM   17  C   UNL     1      43.344 -15.120   2.132  1.00  0.00     0.047 C 
BRANCH  17  18
HETATM   18  C   UNL     1      42.542 -16.136   2.949  1.00  0.00     0.236 C 
BRANCH  18  19
HETATM   19  N   UNL     1      42.816 -16.089   4.428  1.00  0.00    -0.067 N 
HETATM   20  H   UNL     1      43.163 -15.130   4.644  1.00  0.00     0.280 HD
HETATM   21  C   UNL     1      41.620 -16.393   5.311  1.00  0.00     0.261 C 
HETATM   22  C   UNL     1      42.027 -16.320   6.787  1.00  0.00     0.195 C 
HETATM   23  O   UNL     1      43.108 -17.214   7.069  1.00  0.00    -0.388 OA
HETATM   24  C   UNL     1      44.272 -16.880   6.304  1.00  0.00     0.195 C 
HETATM   25  C   UNL     1      43.987 -16.999   4.803  1.00  0.00     0.261 C 
ENDBRANCH  18  19
ENDBRANCH  17  18
ENDBRANCH  16  17
ENDBRANCH  13  16
ENDBRANCH   6  12
BRANCH   9  26
HETATM   26  C   UNL     1      45.289 -10.933   7.606  1.00  0.00     0.409 C 
HETATM   27  F   UNL     1      45.013 -12.236   7.364  1.00  0.00    -0.169 F 
HETATM   28  F   UNL     1      46.230 -10.537   6.721  1.00  0.00    -0.169 F 
HETATM   29  F   UNL     1      45.868 -10.874   8.831  1.00  0.00    -0.169 F 
ENDBRANCH   9  26
BRANCH   1  30
HETATM   30  C   UNL     1      42.033  -7.981   8.851  1.00  0.00     0.005 A 
HETATM   31  S   UNL     1      41.100  -7.080   7.721  1.00  0.00    -0.104 SA
HETATM   32  C   UNL     1      41.713  -5.593   8.296  1.00  0.00     0.050 A 
HETATM   33  C   UNL     1      42.619  -5.768   9.316  1.00  0.00     0.008 A 
HETATM   34  C   UNL     1      42.808  -7.144   9.634  1.00  0.00     0.017 A 
ENDBRANCH   1  30
TORSDOF 7
ENDMDL
MODEL 7
REMARK VINA RESULT:      -7.0      5.318      7.437
REMARK  7 active torsions:
REMARK  status: ('A' for Active; 'I' for Inactive)
REMARK    1  A    between atoms: C_4  and  C_5 
REMARK    2  A    between atoms: C_10  and  C_11 
REMARK       I    between atoms: C_11  and  N_12 
REMARK    3  A    between atoms: N_12  and  C_13 
REMARK    4  A    between atoms: C_13  and  C_14 
REMARK    5  A    between atoms: C_14  and  C_15 
REMARK    6  A    between atoms: C_15  and  N_16 
REMARK    7  A    between atoms: C_26  and  C_27 
ROOT
HETATM    1  C   UNL     1      42.007  -9.670   8.551  1.00  0.00     0.125 C 
HETATM    2  N   UNL     1      41.208 -10.266   7.475  1.00  0.00    -0.365 N 
HETATM    3  C   UNL     1      41.779 -10.678   6.317  1.00  0.00     0.141 A 
HETATM    4  N   UNL     1      43.142 -10.729   6.179  1.00  0.00    -0.238 N 
HETATM    5  N   UNL     1      43.545 -11.110   4.953  1.00  0.00    -0.163 NA
HETATM    6  C   UNL     1      42.395 -11.405   4.303  1.00  0.00     0.165 A 
HETATM    7  C   UNL     1      41.275 -11.122   5.120  1.00  0.00     0.092 A 
HETATM    8 BR   UNL     1      39.470 -11.335   4.671  1.00  0.00    -0.044 Br
HETATM    9  C   UNL     1      44.078 -10.323   7.217  1.00  0.00     0.221 C 
HETATM   10  C   UNL     1      43.383 -10.361   8.590  1.00  0.00     0.067 C 
HETATM   11  H   UNL     1      40.214 -10.037   7.509  1.00  0.00     0.162 HD
ENDROOT
BRANCH   6  12
HETATM   12  C   UNL     1      42.448 -11.965   2.948  1.00  0.00     0.273 C 
HETATM   13  N   UNL     1      42.421 -13.345   2.923  1.00  0.00    -0.355 N 
HETATM   14  H   UNL     1      42.430 -13.794   3.843  1.00  0.00     0.162 HD
HETATM   15  O   UNL     1      42.444 -11.312   1.903  1.00  0.00    -0.266 OA
BRANCH  13  16
HETATM   16  C   UNL     1      42.522 -14.131   1.719  1.00  0.00     0.124 C 
BRANCH  16  17
HETATM   17  C   UNL     1      43.319 -15.421   1.902  1.00  0.00     0.047 C 
BRANCH  17  18
HETATM   18  C   UNL     1      43.003 -16.261   3.142  1.00  0.00     0.236 C 
BRANCH  18  19
HETATM   19  N   UNL     1      43.644 -17.623   3.141  1.00  0.00    -0.067 N 
HETATM   20  H   UNL     1      44.576 -17.522   2.684  1.00  0.00     0.280 HD
HETATM   21  C   UNL     1      43.833 -18.243   4.514  1.00  0.00     0.261 C 
HETATM   22  C   UNL     1      44.487 -19.623   4.380  1.00  0.00     0.195 C 
HETATM   23  O   UNL     1      43.712 -20.481   3.535  1.00  0.00    -0.388 OA
HETATM   24  C   UNL     1      43.603 -19.946   2.211  1.00  0.00     0.195 C 
HETATM   25  C   UNL     1      42.889 -18.591   2.230  1.00  0.00     0.261 C 
ENDBRANCH  18  19
ENDBRANCH  17  18
ENDBRANCH  16  17
ENDBRANCH  13  16
ENDBRANCH   6  12
BRANCH   9  26
HETATM   26  C   UNL     1      45.307 -11.206   7.241  1.00  0.00     0.409 C 
HETATM   27  F   UNL     1      44.996 -12.517   7.119  1.00  0.00    -0.169 F 
HETATM   28  F   UNL     1      46.197 -10.898   6.272  1.00  0.00    -0.169 F 
HETATM   29  F   UNL     1      45.962 -11.065   8.421  1.00  0.00    -0.169 F 
ENDBRANCH   9  26
BRANCH   1  30
HETATM   30  C   UNL     1      42.136  -8.164   8.490  1.00  0.00     0.005 A 
HETATM   31  S   UNL     1      42.857  -7.324   9.808  1.00  0.00    -0.104 SA
HETATM   32  C   UNL     1      42.659  -5.811   9.041  1.00  0.00     0.050 A 
HETATM   33  C   UNL     1      42.048  -5.930   7.815  1.00  0.00     0.008 A 
HETATM   34  C   UNL     1      41.741  -7.285   7.499  1.00  0.00     0.017 A 
ENDBRANCH   1  30
TORSDOF 7
ENDMDL
MODEL 8
REMARK VINA RESULT:      -7.0      8.805     10.607
REMARK  7 active torsions:
REMARK  status: ('A' for Active; 'I' for Inactive)
REMARK    1  A    between atoms: C_4  and  C_5 
REMARK    2  A    between atoms: C_10  and  C_11 
REMARK       I    between atoms: C_11  and  N_12 
REMARK    3  A    between atoms: N_12  and  C_13 
REMARK    4  A    between atoms: C_13  and  C_14 
REMARK    5  A    between atoms: C_14  and  C_15 
REMARK    6  A    between atoms: C_15  and  N_16 
REMARK    7  A    between atoms: C_26  and  C_27 
ROOT
HETATM    1  C   UNL     1      39.148  -8.200  11.902  1.00  0.00     0.125 C 
HETATM    2  N   UNL     1      39.719  -8.648  10.627  1.00  0.00    -0.365 N 
HETATM    3  C   UNL     1      41.046  -8.541  10.371  1.00  0.00     0.141 A 
HETATM    4  N   UNL     1      41.930  -8.186  11.357  1.00  0.00    -0.238 N 
HETATM    5  N   UNL     1      43.200  -8.075  10.927  1.00  0.00    -0.163 NA
HETATM    6  C   UNL     1      43.146  -8.463   9.631  1.00  0.00     0.165 A 
HETATM    7  C   UNL     1      41.811  -8.737   9.250  1.00  0.00     0.092 A 
HETATM    8 BR   UNL     1      41.212  -9.282   7.562  1.00  0.00    -0.044 Br
HETATM    9  C   UNL     1      41.538  -7.865  12.721  1.00  0.00     0.221 C 
HETATM   10  C   UNL     1      40.160  -8.481  13.027  1.00  0.00     0.067 C 
HETATM   11  H   UNL     1      39.048  -8.712   9.861  1.00  0.00     0.162 HD
ENDROOT
BRANCH   6  12
HETATM   12  C   UNL     1      44.385  -8.572   8.852  1.00  0.00     0.273 C 
HETATM   13  N   UNL     1      44.727  -9.874   8.545  1.00  0.00    -0.355 N 
HETATM   14  H   UNL     1      44.115 -10.588   8.948  1.00  0.00     0.162 HD
HETATM   15  O   UNL     1      45.048  -7.625   8.427  1.00  0.00    -0.266 OA
BRANCH  13  16
HETATM   16  C   UNL     1      45.929 -10.245   7.841  1.00  0.00     0.124 C 
BRANCH  16  17
HETATM   17  C   UNL     1      45.688 -11.257   6.723  1.00  0.00     0.047 C 
BRANCH  17  18
HETATM   18  C   UNL     1      44.525 -12.235   6.910  1.00  0.00     0.236 C 
BRANCH  18  19
HETATM   19  N   UNL     1      43.762 -12.533   5.647  1.00  0.00    -0.067 N 
HETATM   20  H   UNL     1      44.175 -13.398   5.238  1.00  0.00     0.280 HD
HETATM   21  C   UNL     1      42.270 -12.737   5.833  1.00  0.00     0.261 C 
HETATM   22  C   UNL     1      41.609 -13.026   4.481  1.00  0.00     0.195 C 
HETATM   23  O   UNL     1      41.867 -11.974   3.545  1.00  0.00    -0.388 OA
HETATM   24  C   UNL     1      43.270 -11.832   3.295  1.00  0.00     0.195 C 
HETATM   25  C   UNL     1      44.015 -11.465   4.582  1.00  0.00     0.261 C 
ENDBRANCH  18  19
ENDBRANCH  17  18
ENDBRANCH  16  17
ENDBRANCH  13  16
ENDBRANCH   6  12
BRANCH   9  26
HETATM   26  C   UNL     1      42.554  -8.358  13.730  1.00  0.00     0.409 C 
HETATM   27  F   UNL     1      42.949  -9.627  13.477  1.00  0.00    -0.169 F 
HETATM   28  F   UNL     1      43.658  -7.583  13.786  1.00  0.00    -0.169 F 
HETATM   29  F   UNL     1      42.018  -8.353  14.976  1.00  0.00    -0.169 F 
ENDBRANCH   9  26
BRANCH   1  30
HETATM   30  C   UNL     1      38.675  -6.763  11.918  1.00  0.00     0.005 A 
HETATM   31  S   UNL     1      37.965  -6.124  13.348  1.00  0.00    -0.104 SA
HETATM   32  C   UNL     1      37.730  -4.592  12.630  1.00  0.00     0.050 A 
HETATM   33  C   UNL     1      38.168  -4.561  11.326  1.00  0.00     0.008 A 
HETATM   34  C   UNL     1      38.707  -5.813  10.913  1.00  0.00     0.017 A 
ENDBRANCH   1  30
TORSDOF 7
ENDMDL
MODEL 9
REMARK VINA RESULT:      -6.8      8.894     10.774
REMARK  7 active torsions:
REMARK  status: ('A' for Active; 'I' for Inactive)
REMARK    1  A    between atoms: C_4  and  C_5 
REMARK    2  A    between atoms: C_10  and  C_11 
REMARK       I    between atoms: C_11  and  N_12 
REMARK    3  A    between atoms: N_12  and  C_13 
REMARK    4  A    between atoms: C_13  and  C_14 
REMARK    5  A    between atoms: C_14  and  C_15 
REMARK    6  A    between atoms: C_15  and  N_16 
REMARK    7  A    between atoms: C_26  and  C_27 
ROOT
HETATM    1  C   UNL     1      39.226  -7.929  11.902  1.00  0.00     0.125 C 
HETATM    2  N   UNL     1      39.761  -8.452  10.640  1.00  0.00    -0.365 N 
HETATM    3  C   UNL     1      41.090  -8.437  10.376  1.00  0.00     0.141 A 
HETATM    4  N   UNL     1      42.001  -8.109  11.347  1.00  0.00    -0.238 N 
HETATM    5  N   UNL     1      43.273  -8.092  10.908  1.00  0.00    -0.163 NA
HETATM    6  C   UNL     1      43.186  -8.516   9.625  1.00  0.00     0.165 A 
HETATM    7  C   UNL     1      41.834  -8.716   9.258  1.00  0.00     0.092 A 
HETATM    8 BR   UNL     1      41.192  -9.274   7.590  1.00  0.00    -0.044 Br
HETATM    9  C   UNL     1      41.637  -7.721  12.701  1.00  0.00     0.221 C 
HETATM   10  C   UNL     1      40.225  -8.238  13.032  1.00  0.00     0.067 C 
HETATM   11  H   UNL     1      39.082  -8.496   9.878  1.00  0.00     0.162 HD
ENDROOT
BRANCH   6  12
HETATM   12  C   UNL     1      44.411  -8.728   8.845  1.00  0.00     0.273 C 
HETATM   13  N   UNL     1      44.654 -10.055   8.555  1.00  0.00    -0.355 N 
HETATM   14  H   UNL     1      43.992 -10.716   8.969  1.00  0.00     0.162 HD
HETATM   15  O   UNL     1      45.142  -7.838   8.406  1.00  0.00    -0.266 OA
BRANCH  13  16
HETATM   16  C   UNL     1      45.823 -10.525   7.854  1.00  0.00     0.124 C 
BRANCH  16  17
HETATM   17  C   UNL     1      45.494 -11.419   6.660  1.00  0.00     0.047 C 
BRANCH  17  18
HETATM   18  C   UNL     1      44.154 -11.180   5.962  1.00  0.00     0.236 C 
BRANCH  18  19
HETATM   19  N   UNL     1      43.251 -12.384   5.935  1.00  0.00    -0.067 N 
HETATM   20  H   UNL     1      42.322 -12.077   6.295  1.00  0.00     0.280 HD
HETATM   21  C   UNL     1      43.066 -13.016   4.568  1.00  0.00     0.261 C 
HETATM   22  C   UNL     1      42.135 -14.229   4.673  1.00  0.00     0.195 C 
HETATM   23  O   UNL     1      42.637 -15.185   5.613  1.00  0.00    -0.388 OA
HETATM   24  C   UNL     1      42.731 -14.622   6.927  1.00  0.00     0.195 C 
HETATM   25  C   UNL     1      43.706 -13.440   6.942  1.00  0.00     0.261 C 
ENDBRANCH  18  19
ENDBRANCH  17  18
ENDBRANCH  16  17
ENDBRANCH  13  16
ENDBRANCH   6  12
BRANCH   9  26
HETATM   26  C   UNL     1      42.626  -8.246  13.721  1.00  0.00     0.409 C 
HETATM   27  F   UNL     1      43.787  -7.551  13.710  1.00  0.00    -0.169 F 
HETATM   28  F   UNL     1      42.142  -8.227  14.982  1.00  0.00    -0.169 F 
HETATM   29  F   UNL     1      42.937  -9.538  13.450  1.00  0.00    -0.169 F 
ENDBRANCH   9  26
BRANCH   1  30
HETATM   30  C   UNL     1      38.846  -6.465  11.875  1.00  0.00     0.005 A 
HETATM   31  S   UNL     1      38.431  -5.672  13.344  1.00  0.00    -0.104 SA
HETATM   32  C   UNL     1      38.163  -4.185  12.548  1.00  0.00     0.050 A 
HETATM   33  C   UNL     1      38.369  -4.282  11.191  1.00  0.00     0.008 A 
HETATM   34  C   UNL     1      38.758  -5.596  10.801  1.00  0.00     0.017 A 
ENDBRANCH   1  30
TORSDOF 7
ENDMDL
MODEL 10
REMARK VINA RESULT:      -6.8      5.390      8.640
REMARK  7 active torsions:
REMARK  status: ('A' for Active; 'I' for Inactive)
REMARK    1  A    between atoms: C_4  and  C_5 
REMARK    2  A    between atoms: C_10  and  C_11 
REMARK       I    between atoms: C_11  and  N_12 
REMARK    3  A    between atoms: N_12  and  C_13 
REMARK    4  A    between atoms: C_13  and  C_14 
REMARK    5  A    between atoms: C_14  and  C_15 
REMARK    6  A    between atoms: C_15  and  N_16 
REMARK    7  A    between atoms: C_26  and  C_27 
ROOT
HETATM    1  C   UNL     1      42.693 -11.796   2.580  1.00  0.00     0.125 C 
HETATM    2  N   UNL     1      41.504 -11.052   3.008  1.00  0.00    -0.365 N 
HETATM    3  C   UNL     1      41.168 -10.947   4.317  1.00  0.00     0.141 A 
HETATM    4  N   UNL     1      42.023 -11.369   5.302  1.00  0.00    -0.238 N 
HETATM    5  N   UNL     1      41.519 -11.243   6.543  1.00  0.00    -0.163 NA
HETATM    6  C   UNL     1      40.327 -10.630   6.355  1.00  0.00     0.165 A 
HETATM    7  C   UNL     1      40.070 -10.454   4.975  1.00  0.00     0.092 A 
HETATM    8 BR   UNL     1      38.551  -9.681   4.202  1.00  0.00    -0.044 Br
HETATM    9  C   UNL     1      43.317 -11.985   5.044  1.00  0.00     0.221 C 
HETATM   10  C   UNL     1      43.802 -11.609   3.632  1.00  0.00     0.067 C 
HETATM   11  H   UNL     1      40.797 -10.928   2.281  1.00  0.00     0.162 HD
ENDROOT
BRANCH   6  12
HETATM   12  C   UNL     1      39.525 -10.227   7.517  1.00  0.00     0.273 C 
HETATM   13  N   UNL     1      39.810  -8.953   7.965  1.00  0.00    -0.355 N 
HETATM   14  H   UNL     1      40.577  -8.484   7.476  1.00  0.00     0.162 HD
HETATM   15  O   UNL     1      38.625 -10.894   8.029  1.00  0.00    -0.266 OA
BRANCH  13  16
HETATM   16  C   UNL     1      39.200  -8.353   9.125  1.00  0.00     0.124 C 
BRANCH  16  17
HETATM   17  C   UNL     1      40.168  -8.171  10.293  1.00  0.00     0.047 C 
BRANCH  17  18
HETATM   18  C   UNL     1      41.612  -7.802   9.946  1.00  0.00     0.236 C 
BRANCH  18  19
HETATM   19  N   UNL     1      42.646  -8.639  10.650  1.00  0.00    -0.067 N 
HETATM   20  H   UNL     1      43.144  -8.012  11.318  1.00  0.00     0.280 HD
HETATM   21  C   UNL     1      42.097  -9.833  11.409  1.00  0.00     0.261 C 
HETATM   22  C   UNL     1      43.243 -10.604  12.073  1.00  0.00     0.195 C 
HETATM   23  O   UNL     1      44.215 -11.017  11.107  1.00  0.00    -0.388 OA
HETATM   24  C   UNL     1      44.804  -9.891  10.447  1.00  0.00     0.195 C 
HETATM   25  C   UNL     1      43.742  -9.092   9.684  1.00  0.00     0.261 C 
ENDBRANCH  18  19
ENDBRANCH  17  18
ENDBRANCH  16  17
ENDBRANCH  13  16
ENDBRANCH   6  12
BRANCH   9  26
HETATM   26  C   UNL     1      44.351 -11.569   6.068  1.00  0.00     0.409 C 
HETATM   27  F   UNL     1      45.592 -11.486   5.535  1.00  0.00    -0.169 F 
HETATM   28  F   UNL     1      44.069 -10.383   6.650  1.00  0.00    -0.169 F 
HETATM   29  F   UNL     1      44.413 -12.482   7.070  1.00  0.00    -0.169 F 
ENDBRANCH   9  26
BRANCH   1  30
HETATM   30  C   UNL     1      42.454 -13.257   2.271  1.00  0.00     0.005 A 
HETATM   31  S   UNL     1      40.845 -13.818   2.032  1.00  0.00    -0.104 SA
HETATM   32  C   UNL     1      41.370 -15.417   1.746  1.00  0.00     0.050 A 
HETATM   33  C   UNL     1      42.737 -15.536   1.841  1.00  0.00     0.008 A 
HETATM   34  C   UNL     1      43.362 -14.293   2.149  1.00  0.00     0.017 A 
ENDBRANCH   1  30
TORSDOF 7
ENDMDL
