MODEL 1
REMARK VINA RESULT:      -8.8      0.000      0.000
REMARK  6 active torsions:
REMARK  status: ('A' for Active; 'I' for Inactive)
REMARK    1  A    between atoms: C_3  and  C_4 
REMARK    2  A    between atoms: C_4  and  N_5 
REMARK    3  A    between atoms: N_5  and  C_8 
REMARK    4  A    between atoms: C_8  and  C_9 
REMARK    5  A    between atoms: N_12  and  C_13 
REMARK    6  A    between atoms: C_28  and  O_29 
ROOT
HETATM    1  N   UNL     1      41.281 -12.491   4.264  1.00  0.00    -0.062 N 
HETATM    2  H   UNL     1      41.661 -12.037   3.427  1.00  0.00     0.278 HD
HETATM    3  H   UNL     1      40.988 -11.744   4.902  1.00  0.00     0.278 HD
ENDROOT
BRANCH   1   4
HETATM    4  C   UNL     1      40.059 -13.221   3.862  1.00  0.00     0.290 C 
BRANCH   4   5
HETATM    5  C   UNL     1      39.890 -13.300   2.384  1.00  0.00     0.042 A 
HETATM    6  C   UNL     1      39.831 -14.340   1.454  1.00  0.00    -0.025 A 
HETATM    7  C   UNL     1      39.910 -15.813   1.681  1.00  0.00     0.051 C 
HETATM    8  C   UNL     1      39.689 -13.739   0.156  1.00  0.00     0.001 A 
HETATM    9  C   UNL     1      39.652 -12.362   0.329  1.00  0.00     0.043 A 
HETATM   10  C   UNL     1      39.593 -14.245  -1.158  1.00  0.00     0.051 A 
HETATM   11  N   UNL     1      39.763 -12.120   1.673  1.00  0.00    -0.357 N 
HETATM   12  C   UNL     1      39.521 -11.466  -0.739  1.00  0.00     0.033 A 
HETATM   13  H   UNL     1      39.761 -11.187   2.064  1.00  0.00     0.166 HD
HETATM   14  C   UNL     1      39.431 -11.997  -2.031  1.00  0.00     0.039 A 
HETATM   15  C   UNL     1      39.467 -13.373  -2.248  1.00  0.00     0.069 A 
BRANCH  15  16
HETATM   16  O   UNL     1      39.391 -13.999  -3.462  1.00  0.00    -0.356 OA
HETATM   17  C   UNL     1      38.250 -14.814  -3.701  1.00  0.00     0.210 C 
ENDBRANCH  15  16
ENDBRANCH   4   5
ENDBRANCH   1   4
BRANCH   1  18
HETATM   18  C   UNL     1      42.345 -13.303   4.936  1.00  0.00     0.218 C 
HETATM   19  C   UNL     1      43.542 -12.386   5.186  1.00  0.00     0.045 C 
BRANCH  18  20
HETATM   20  C   UNL     1      42.720 -14.517   4.152  1.00  0.00     0.015 C 
HETATM   21  C   UNL     1      42.521 -15.860   4.469  1.00  0.00     0.042 C 
HETATM   22  C   UNL     1      41.807 -16.447   5.637  1.00  0.00     0.071 C 
HETATM   23  N   UNL     1      43.100 -16.607   3.434  1.00  0.00    -0.238 N 
HETATM   24  N   UNL     1      43.454 -15.782   2.413  1.00  0.00    -0.179 NA
HETATM   25  C   UNL     1      43.331 -14.552   2.885  1.00  0.00     0.150 C 
BRANCH  23  26
HETATM   26  C   UNL     1      43.342 -18.008   3.306  1.00  0.00     0.058 A 
HETATM   27  C   UNL     1      43.979 -18.683   4.362  1.00  0.00     0.031 A 
HETATM   28  C   UNL     1      44.233 -20.054   4.283  1.00  0.00     0.002 A 
HETATM   29  C   UNL     1      43.839 -20.771   3.158  1.00  0.00     0.000 A 
HETATM   30  C   UNL     1      43.184 -20.119   2.116  1.00  0.00     0.002 A 
HETATM   31  C   UNL     1      42.930 -18.744   2.189  1.00  0.00     0.031 A 
ENDBRANCH  23  26
ENDBRANCH  18  20
ENDBRANCH   1  18
TORSDOF 6
ENDMDL
MODEL 2
REMARK VINA RESULT:      -8.3      2.404      7.208
REMARK  6 active torsions:
REMARK  status: ('A' for Active; 'I' for Inactive)
REMARK    1  A    between atoms: C_3  and  C_4 
REMARK    2  A    between atoms: C_4  and  N_5 
REMARK    3  A    between atoms: N_5  and  C_8 
REMARK    4  A    between atoms: C_8  and  C_9 
REMARK    5  A    between atoms: N_12  and  C_13 
REMARK    6  A    between atoms: C_28  and  O_29 
ROOT
HETATM    1  N   UNL     1      41.601 -13.566   5.290  1.00  0.00    -0.062 N 
HETATM    2  H   UNL     1      41.137 -14.474   5.393  1.00  0.00     0.278 HD
HETATM    3  H   UNL     1      41.735 -13.190   6.233  1.00  0.00     0.278 HD
ENDROOT
BRANCH   1   4
HETATM    4  C   UNL     1      42.946 -13.813   4.727  1.00  0.00     0.290 C 
BRANCH   4   5
HETATM    5  C   UNL     1      43.195 -15.249   4.423  1.00  0.00     0.042 A 
HETATM    6  C   UNL     1      43.284 -16.008   3.254  1.00  0.00    -0.025 A 
HETATM    7  C   UNL     1      43.163 -15.567   1.833  1.00  0.00     0.051 C 
HETATM    8  C   UNL     1      43.508 -17.371   3.649  1.00  0.00     0.001 A 
HETATM    9  C   UNL     1      43.563 -17.405   5.037  1.00  0.00     0.043 A 
HETATM   10  C   UNL     1      43.667 -18.586   2.949  1.00  0.00     0.051 A 
HETATM   11  N   UNL     1      43.384 -16.122   5.480  1.00  0.00    -0.357 N 
HETATM   12  C   UNL     1      43.771 -18.586   5.759  1.00  0.00     0.033 A 
HETATM   13  H   UNL     1      43.384 -15.876   6.462  1.00  0.00     0.166 HD
HETATM   14  C   UNL     1      43.921 -19.777   5.037  1.00  0.00     0.039 A 
HETATM   15  C   UNL     1      43.869 -19.786   3.645  1.00  0.00     0.069 A 
BRANCH  15  16
HETATM   16  O   UNL     1      43.999 -20.885   2.842  1.00  0.00    -0.356 OA
HETATM   17  C   UNL     1      43.666 -20.728   1.468  1.00  0.00     0.210 C 
ENDBRANCH  15  16
ENDBRANCH   4   5
ENDBRANCH   1   4
BRANCH   1  18
HETATM   18  C   UNL     1      40.725 -12.627   4.520  1.00  0.00     0.218 C 
HETATM   19  C   UNL     1      39.512 -12.303   5.391  1.00  0.00     0.045 C 
BRANCH  18  20
HETATM   20  C   UNL     1      40.331 -13.171   3.186  1.00  0.00     0.015 C 
HETATM   21  C   UNL     1      40.426 -12.569   1.932  1.00  0.00     0.042 C 
HETATM   22  C   UNL     1      41.018 -11.250   1.572  1.00  0.00     0.071 C 
HETATM   23  N   UNL     1      39.875 -13.471   1.012  1.00  0.00    -0.238 N 
HETATM   24  N   UNL     1      39.645 -14.665   1.619  1.00  0.00    -0.179 NA
HETATM   25  C   UNL     1      39.809 -14.449   2.914  1.00  0.00     0.150 C 
BRANCH  23  26
HETATM   26  C   UNL     1      39.557 -13.326  -0.372  1.00  0.00     0.058 A 
HETATM   27  C   UNL     1      40.241 -14.121  -1.309  1.00  0.00     0.031 A 
HETATM   28  C   UNL     1      39.961 -14.018  -2.673  1.00  0.00     0.002 A 
HETATM   29  C   UNL     1      38.982 -13.134  -3.118  1.00  0.00     0.000 A 
HETATM   30  C   UNL     1      38.279 -12.361  -2.197  1.00  0.00     0.002 A 
HETATM   31  C   UNL     1      38.559 -12.458  -0.829  1.00  0.00     0.031 A 
ENDBRANCH  23  26
ENDBRANCH  18  20
ENDBRANCH   1  18
TORSDOF 6
ENDMDL
MODEL 3
REMARK VINA RESULT:      -8.1      2.806      5.727
REMARK  6 active torsions:
REMARK  status: ('A' for Active; 'I' for Inactive)
REMARK    1  A    between atoms: C_3  and  C_4 
REMARK    2  A    between atoms: C_4  and  N_5 
REMARK    3  A    between atoms: N_5  and  C_8 
REMARK    4  A    between atoms: C_8  and  C_9 
REMARK    5  A    between atoms: N_12  and  C_13 
REMARK    6  A    between atoms: C_28  and  O_29 
ROOT
HETATM    1  N   UNL     1      39.179 -12.828   1.172  1.00  0.00    -0.062 N 
HETATM    2  H   UNL     1      38.631 -13.316   1.888  1.00  0.00     0.278 HD
HETATM    3  H   UNL     1      38.540 -12.618   0.399  1.00  0.00     0.278 HD
ENDROOT
BRANCH   1   4
HETATM    4  C   UNL     1      39.608 -11.533   1.743  1.00  0.00     0.290 C 
BRANCH   4   5
HETATM    5  C   UNL     1      40.581 -11.684   2.860  1.00  0.00     0.042 A 
HETATM    6  C   UNL     1      40.486 -12.029   4.210  1.00  0.00    -0.025 A 
HETATM    7  C   UNL     1      39.278 -12.399   5.005  1.00  0.00     0.051 C 
HETATM    8  C   UNL     1      41.811 -11.955   4.762  1.00  0.00     0.001 A 
HETATM    9  C   UNL     1      42.674 -11.583   3.739  1.00  0.00     0.043 A 
HETATM   10  C   UNL     1      42.356 -12.168   6.046  1.00  0.00     0.051 A 
HETATM   11  N   UNL     1      41.919 -11.436   2.606  1.00  0.00    -0.357 N 
HETATM   12  C   UNL     1      44.050 -11.417   3.931  1.00  0.00     0.033 A 
HETATM   13  H   UNL     1      42.315 -11.169   1.714  1.00  0.00     0.166 HD
HETATM   14  C   UNL     1      44.562 -11.631   5.217  1.00  0.00     0.039 A 
HETATM   15  C   UNL     1      43.730 -12.003   6.270  1.00  0.00     0.069 A 
BRANCH  15  16
HETATM   16  O   UNL     1      44.119 -12.234   7.561  1.00  0.00    -0.356 OA
HETATM   17  C   UNL     1      44.656 -11.133   8.284  1.00  0.00     0.210 C 
ENDBRANCH  15  16
ENDBRANCH   4   5
ENDBRANCH   1   4
BRANCH   1  18
HETATM   18  C   UNL     1      40.269 -13.719   0.664  1.00  0.00     0.218 C 
HETATM   19  C   UNL     1      39.808 -14.302  -0.672  1.00  0.00     0.045 C 
BRANCH  18  20
HETATM   20  C   UNL     1      40.645 -14.783   1.642  1.00  0.00     0.015 C 
HETATM   21  C   UNL     1      41.916 -15.204   2.032  1.00  0.00     0.042 C 
HETATM   22  C   UNL     1      43.243 -14.653   1.640  1.00  0.00     0.071 C 
HETATM   23  N   UNL     1      41.729 -16.263   2.931  1.00  0.00    -0.238 N 
HETATM   24  N   UNL     1      40.413 -16.363   3.257  1.00  0.00    -0.179 NA
HETATM   25  C   UNL     1      39.772 -15.568   2.416  1.00  0.00     0.150 C 
BRANCH  23  26
HETATM   26  C   UNL     1      42.657 -17.175   3.516  1.00  0.00     0.058 A 
HETATM   27  C   UNL     1      43.179 -18.212   2.721  1.00  0.00     0.031 A 
HETATM   28  C   UNL     1      44.093 -19.125   3.250  1.00  0.00     0.002 A 
HETATM   29  C   UNL     1      44.512 -19.006   4.571  1.00  0.00     0.000 A 
HETATM   30  C   UNL     1      44.023 -17.968   5.361  1.00  0.00     0.002 A 
HETATM   31  C   UNL     1      43.103 -17.052   4.837  1.00  0.00     0.031 A 
ENDBRANCH  23  26
ENDBRANCH  18  20
ENDBRANCH   1  18
TORSDOF 6
ENDMDL
MODEL 4
REMARK VINA RESULT:      -8.1      5.279      9.279
REMARK  6 active torsions:
REMARK  status: ('A' for Active; 'I' for Inactive)
REMARK    1  A    between atoms: C_3  and  C_4 
REMARK    2  A    between atoms: C_4  and  N_5 
REMARK    3  A    between atoms: N_5  and  C_8 
REMARK    4  A    between atoms: C_8  and  C_9 
REMARK    5  A    between atoms: N_12  and  C_13 
REMARK    6  A    between atoms: C_28  and  O_29 
ROOT
HETATM    1  N   UNL     1      43.259 -12.462   7.142  1.00  0.00    -0.062 N 
HETATM    2  H   UNL     1      42.696 -12.449   7.999  1.00  0.00     0.278 HD
HETATM    3  H   UNL     1      43.902 -13.255   7.220  1.00  0.00     0.278 HD
ENDROOT
BRANCH   1   4
HETATM    4  C   UNL     1      42.348 -12.751   6.013  1.00  0.00     0.290 C 
BRANCH   4   5
HETATM    5  C   UNL     1      42.628 -14.060   5.361  1.00  0.00     0.042 A 
HETATM    6  C   UNL     1      42.971 -15.335   5.818  1.00  0.00    -0.025 A 
HETATM    7  C   UNL     1      43.160 -15.814   7.219  1.00  0.00     0.051 C 
HETATM    8  C   UNL     1      43.143 -16.168   4.660  1.00  0.00     0.001 A 
HETATM    9  C   UNL     1      42.889 -15.390   3.538  1.00  0.00     0.043 A 
HETATM   10  C   UNL     1      43.497 -17.520   4.463  1.00  0.00     0.051 A 
HETATM   11  N   UNL     1      42.572 -14.133   3.981  1.00  0.00    -0.357 N 
HETATM   12  C   UNL     1      42.967 -15.891   2.233  1.00  0.00     0.033 A 
HETATM   13  H   UNL     1      42.342 -13.373   3.354  1.00  0.00     0.166 HD
HETATM   14  C   UNL     1      43.325 -17.236   2.069  1.00  0.00     0.039 A 
HETATM   15  C   UNL     1      43.590 -18.049   3.169  1.00  0.00     0.069 A 
BRANCH  15  16
HETATM   16  O   UNL     1      43.949 -19.368   3.126  1.00  0.00    -0.356 OA
HETATM   17  C   UNL     1      43.241 -20.204   2.218  1.00  0.00     0.210 C 
ENDBRANCH  15  16
ENDBRANCH   4   5
ENDBRANCH   1   4
BRANCH   1  18
HETATM   18  C   UNL     1      44.062 -11.203   7.036  1.00  0.00     0.218 C 
HETATM   19  C   UNL     1      45.448 -11.579   6.513  1.00  0.00     0.045 C 
BRANCH  18  20
HETATM   20  C   UNL     1      44.132 -10.455   8.326  1.00  0.00     0.015 C 
HETATM   21  C   UNL     1      43.150  -9.681   8.944  1.00  0.00     0.042 C 
HETATM   22  C   UNL     1      41.739  -9.455   8.524  1.00  0.00     0.071 C 
HETATM   23  N   UNL     1      43.729  -9.152  10.106  1.00  0.00    -0.238 N 
HETATM   24  N   UNL     1      44.938  -9.734  10.324  1.00  0.00    -0.179 NA
HETATM   25  C   UNL     1      45.216 -10.411   9.222  1.00  0.00     0.150 C 
BRANCH  23  26
HETATM   26  C   UNL     1      43.257  -8.171  11.029  1.00  0.00     0.058 A 
HETATM   27  C   UNL     1      43.271  -8.473  12.402  1.00  0.00     0.031 A 
HETATM   28  C   UNL     1      42.824  -7.543  13.343  1.00  0.00     0.002 A 
HETATM   29  C   UNL     1      42.374  -6.294  12.927  1.00  0.00     0.000 A 
HETATM   30  C   UNL     1      42.380  -5.972  11.572  1.00  0.00     0.002 A 
HETATM   31  C   UNL     1      42.824  -6.902  10.625  1.00  0.00     0.031 A 
ENDBRANCH  23  26
ENDBRANCH  18  20
ENDBRANCH   1  18
TORSDOF 6
ENDMDL
MODEL 5
REMARK VINA RESULT:      -8.1      6.109      9.333
REMARK  6 active torsions:
REMARK  status: ('A' for Active; 'I' for Inactive)
REMARK    1  A    between atoms: C_3  and  C_4 
REMARK    2  A    between atoms: C_4  and  N_5 
REMARK    3  A    between atoms: N_5  and  C_8 
REMARK    4  A    between atoms: C_8  and  C_9 
REMARK    5  A    between atoms: N_12  and  C_13 
REMARK    6  A    between atoms: C_28  and  O_29 
ROOT
HETATM    1  N   UNL     1      42.783 -11.632   7.214  1.00  0.00    -0.062 N 
HETATM    2  H   UNL     1      42.169 -11.878   7.997  1.00  0.00     0.278 HD
HETATM    3  H   UNL     1      42.198 -11.608   6.373  1.00  0.00     0.278 HD
ENDROOT
BRANCH   1   4
HETATM    4  C   UNL     1      43.269 -10.254   7.443  1.00  0.00     0.290 C 
BRANCH   4   5
HETATM    5  C   UNL     1      43.037  -9.779   8.835  1.00  0.00     0.042 A 
HETATM    6  C   UNL     1      43.852  -9.548   9.945  1.00  0.00    -0.025 A 
HETATM    7  C   UNL     1      45.330  -9.704  10.078  1.00  0.00     0.051 C 
HETATM    8  C   UNL     1      42.996  -9.124  11.019  1.00  0.00     0.001 A 
HETATM    9  C   UNL     1      41.694  -9.096  10.535  1.00  0.00     0.043 A 
HETATM   10  C   UNL     1      43.210  -8.764  12.366  1.00  0.00     0.051 A 
HETATM   11  N   UNL     1      41.742  -9.482   9.221  1.00  0.00    -0.357 N 
HETATM   12  C   UNL     1      40.599  -8.725  11.324  1.00  0.00     0.033 A 
HETATM   13  H   UNL     1      40.918  -9.542   8.637  1.00  0.00     0.166 HD
HETATM   14  C   UNL     1      40.842  -8.377  12.658  1.00  0.00     0.039 A 
HETATM   15  C   UNL     1      42.133  -8.395  13.183  1.00  0.00     0.069 A 
BRANCH  15  16
HETATM   16  O   UNL     1      42.484  -8.078  14.466  1.00  0.00    -0.356 OA
HETATM   17  C   UNL     1      41.481  -8.215  15.466  1.00  0.00     0.210 C 
ENDBRANCH  15  16
ENDBRANCH   4   5
ENDBRANCH   1   4
BRANCH   1  18
HETATM   18  C   UNL     1      43.835 -12.683   7.036  1.00  0.00     0.218 C 
HETATM   19  C   UNL     1      45.161 -11.971   6.768  1.00  0.00     0.045 C 
BRANCH  18  20
HETATM   20  C   UNL     1      43.494 -13.661   5.960  1.00  0.00     0.015 C 
HETATM   21  C   UNL     1      43.688 -15.041   5.939  1.00  0.00     0.042 C 
HETATM   22  C   UNL     1      44.215 -15.926   7.015  1.00  0.00     0.071 C 
HETATM   23  N   UNL     1      43.249 -15.488   4.685  1.00  0.00    -0.238 N 
HETATM   24  N   UNL     1      42.611 -14.479   4.034  1.00  0.00    -0.179 NA
HETATM   25  C   UNL     1      42.856 -13.386   4.737  1.00  0.00     0.150 C 
BRANCH  23  26
HETATM   26  C   UNL     1      43.358 -16.761   4.049  1.00  0.00     0.058 A 
HETATM   27  C   UNL     1      42.693 -16.965   2.827  1.00  0.00     0.031 A 
HETATM   28  C   UNL     1      42.774 -18.192   2.165  1.00  0.00     0.002 A 
HETATM   29  C   UNL     1      43.533 -19.225   2.705  1.00  0.00     0.000 A 
HETATM   30  C   UNL     1      44.218 -19.027   3.902  1.00  0.00     0.002 A 
HETATM   31  C   UNL     1      44.137 -17.800   4.571  1.00  0.00     0.031 A 
ENDBRANCH  23  26
ENDBRANCH  18  20
ENDBRANCH   1  18
TORSDOF 6
ENDMDL
MODEL 6
REMARK VINA RESULT:      -8.0      1.273      2.142
REMARK  6 active torsions:
REMARK  status: ('A' for Active; 'I' for Inactive)
REMARK    1  A    between atoms: C_3  and  C_4 
REMARK    2  A    between atoms: C_4  and  N_5 
REMARK    3  A    between atoms: N_5  and  C_8 
REMARK    4  A    between atoms: C_8  and  C_9 
REMARK    5  A    between atoms: N_12  and  C_13 
REMARK    6  A    between atoms: C_28  and  O_29 
ROOT
HETATM    1  N   UNL     1      39.535 -12.974   5.164  1.00  0.00    -0.062 N 
HETATM    2  H   UNL     1      38.861 -12.913   5.933  1.00  0.00     0.278 HD
HETATM    3  H   UNL     1      39.309 -13.822   4.635  1.00  0.00     0.278 HD
ENDROOT
BRANCH   1   4
HETATM    4  C   UNL     1      39.293 -11.825   4.263  1.00  0.00     0.290 C 
BRANCH   4   5
HETATM    5  C   UNL     1      39.271 -12.209   2.825  1.00  0.00     0.042 A 
HETATM    6  C   UNL     1      38.789 -11.618   1.655  1.00  0.00    -0.025 A 
HETATM    7  C   UNL     1      38.108 -10.301   1.476  1.00  0.00     0.051 C 
HETATM    8  C   UNL     1      39.049 -12.533   0.579  1.00  0.00     0.001 A 
HETATM    9  C   UNL     1      39.689 -13.644   1.114  1.00  0.00     0.043 A 
HETATM   10  C   UNL     1      38.793 -12.520  -0.809  1.00  0.00     0.051 A 
HETATM   11  N   UNL     1      39.822 -13.424   2.460  1.00  0.00    -0.357 N 
HETATM   12  C   UNL     1      40.089 -14.737   0.337  1.00  0.00     0.033 A 
HETATM   13  H   UNL     1      40.261 -14.090   3.083  1.00  0.00     0.166 HD
HETATM   14  C   UNL     1      39.818 -14.697  -1.037  1.00  0.00     0.039 A 
HETATM   15  C   UNL     1      39.176 -13.603  -1.612  1.00  0.00     0.069 A 
BRANCH  15  16
HETATM   16  O   UNL     1      38.859 -13.460  -2.935  1.00  0.00    -0.356 OA
HETATM   17  C   UNL     1      38.111 -14.508  -3.541  1.00  0.00     0.210 C 
ENDBRANCH  15  16
ENDBRANCH   4   5
ENDBRANCH   1   4
BRANCH   1  18
HETATM   18  C   UNL     1      40.924 -13.105   5.707  1.00  0.00     0.218 C 
HETATM   19  C   UNL     1      41.556 -11.714   5.708  1.00  0.00     0.045 C 
BRANCH  18  20
HETATM   20  C   UNL     1      41.746 -14.096   4.950  1.00  0.00     0.015 C 
HETATM   21  C   UNL     1      41.576 -15.476   4.845  1.00  0.00     0.042 C 
HETATM   22  C   UNL     1      40.483 -16.326   5.394  1.00  0.00     0.071 C 
HETATM   23  N   UNL     1      42.640 -15.953   4.066  1.00  0.00    -0.238 N 
HETATM   24  N   UNL     1      43.321 -14.907   3.528  1.00  0.00    -0.179 NA
HETATM   25  C   UNL     1      42.862 -13.826   4.138  1.00  0.00     0.150 C 
BRANCH  23  26
HETATM   26  C   UNL     1      43.069 -17.282   3.771  1.00  0.00     0.058 A 
HETATM   27  C   UNL     1      42.796 -17.812   2.498  1.00  0.00     0.031 A 
HETATM   28  C   UNL     1      43.201 -19.107   2.163  1.00  0.00     0.002 A 
HETATM   29  C   UNL     1      43.896 -19.880   3.086  1.00  0.00     0.000 A 
HETATM   30  C   UNL     1      44.195 -19.356   4.342  1.00  0.00     0.002 A 
HETATM   31  C   UNL     1      43.789 -18.061   4.684  1.00  0.00     0.031 A 
ENDBRANCH  23  26
ENDBRANCH  18  20
ENDBRANCH   1  18
TORSDOF 6
ENDMDL
MODEL 7
REMARK VINA RESULT:      -7.9      5.643      8.978
REMARK  6 active torsions:
REMARK  status: ('A' for Active; 'I' for Inactive)
REMARK    1  A    between atoms: C_3  and  C_4 
REMARK    2  A    between atoms: C_4  and  N_5 
REMARK    3  A    between atoms: N_5  and  C_8 
REMARK    4  A    between atoms: C_8  and  C_9 
REMARK    5  A    between atoms: N_12  and  C_13 
REMARK    6  A    between atoms: C_28  and  O_29 
ROOT
HETATM    1  N   UNL     1      43.254 -12.627   7.088  1.00  0.00    -0.062 N 
HETATM    2  H   UNL     1      44.134 -13.070   7.371  1.00  0.00     0.278 HD
HETATM    3  H   UNL     1      42.597 -12.745   7.866  1.00  0.00     0.278 HD
ENDROOT
BRANCH   1   4
HETATM    4  C   UNL     1      43.507 -11.176   6.949  1.00  0.00     0.290 C 
BRANCH   4   5
HETATM    5  C   UNL     1      43.417 -10.445   8.243  1.00  0.00     0.042 A 
HETATM    6  C   UNL     1      44.344  -9.988   9.183  1.00  0.00    -0.025 A 
HETATM    7  C   UNL     1      45.833 -10.089   9.163  1.00  0.00     0.051 C 
HETATM    8  C   UNL     1      43.600  -9.380  10.251  1.00  0.00     0.001 A 
HETATM    9  C   UNL     1      42.252  -9.469   9.931  1.00  0.00     0.043 A 
HETATM   10  C   UNL     1      43.954  -8.761  11.470  1.00  0.00     0.051 A 
HETATM   11  N   UNL     1      42.164 -10.101   8.719  1.00  0.00    -0.357 N 
HETATM   12  C   UNL     1      41.240  -8.971  10.762  1.00  0.00     0.033 A 
HETATM   13  H   UNL     1      41.282 -10.288   8.261  1.00  0.00     0.166 HD
HETATM   14  C   UNL     1      41.621  -8.366  11.966  1.00  0.00     0.039 A 
HETATM   15  C   UNL     1      42.963  -8.260  12.324  1.00  0.00     0.069 A 
BRANCH  15  16
HETATM   16  O   UNL     1      43.447  -7.694  13.472  1.00  0.00    -0.356 OA
HETATM   17  C   UNL     1      42.528  -7.513  14.544  1.00  0.00     0.210 C 
ENDBRANCH  15  16
ENDBRANCH   4   5
ENDBRANCH   1   4
BRANCH   1  18
HETATM   18  C   UNL     1      42.696 -13.318   5.882  1.00  0.00     0.218 C 
HETATM   19  C   UNL     1      41.171 -13.278   5.988  1.00  0.00     0.045 C 
BRANCH  18  20
HETATM   20  C   UNL     1      43.213 -14.710   5.727  1.00  0.00     0.015 C 
HETATM   21  C   UNL     1      43.075 -15.580   4.646  1.00  0.00     0.042 C 
HETATM   22  C   UNL     1      42.442 -15.329   3.321  1.00  0.00     0.071 C 
HETATM   23  N   UNL     1      43.694 -16.782   5.017  1.00  0.00    -0.238 N 
HETATM   24  N   UNL     1      44.375 -16.608   6.180  1.00  0.00    -0.179 NA
HETATM   25  C   UNL     1      43.998 -15.429   6.646  1.00  0.00     0.150 C 
BRANCH  23  26
HETATM   26  C   UNL     1      43.718 -18.062   4.386  1.00  0.00     0.058 A 
HETATM   27  C   UNL     1      43.459 -18.140   3.006  1.00  0.00     0.031 A 
HETATM   28  C   UNL     1      43.476 -19.370   2.344  1.00  0.00     0.002 A 
HETATM   29  C   UNL     1      43.768 -20.534   3.048  1.00  0.00     0.000 A 
HETATM   30  C   UNL     1      44.053 -20.467   4.410  1.00  0.00     0.002 A 
HETATM   31  C   UNL     1      44.033 -19.237   5.078  1.00  0.00     0.031 A 
ENDBRANCH  23  26
ENDBRANCH  18  20
ENDBRANCH   1  18
TORSDOF 6
ENDMDL
MODEL 8
REMARK VINA RESULT:      -7.9      6.279     10.212
REMARK  6 active torsions:
REMARK  status: ('A' for Active; 'I' for Inactive)
REMARK    1  A    between atoms: C_3  and  C_4 
REMARK    2  A    between atoms: C_4  and  N_5 
REMARK    3  A    between atoms: N_5  and  C_8 
REMARK    4  A    between atoms: C_8  and  C_9 
REMARK    5  A    between atoms: N_12  and  C_13 
REMARK    6  A    between atoms: C_28  and  O_29 
ROOT
HETATM    1  N   UNL     1      44.478 -10.814   7.599  1.00  0.00    -0.062 N 
HETATM    2  H   UNL     1      44.775 -11.557   8.240  1.00  0.00     0.278 HD
HETATM    3  H   UNL     1      45.162 -10.788   6.836  1.00  0.00     0.278 HD
ENDROOT
BRANCH   1   4
HETATM    4  C   UNL     1      43.185 -11.223   7.008  1.00  0.00     0.290 C 
BRANCH   4   5
HETATM    5  C   UNL     1      43.205 -12.611   6.469  1.00  0.00     0.042 A 
HETATM    6  C   UNL     1      43.209 -13.171   5.190  1.00  0.00    -0.025 A 
HETATM    7  C   UNL     1      43.211 -12.489   3.863  1.00  0.00     0.051 C 
HETATM    8  C   UNL     1      43.193 -14.599   5.353  1.00  0.00     0.001 A 
HETATM    9  C   UNL     1      43.193 -14.869   6.715  1.00  0.00     0.043 A 
HETATM   10  C   UNL     1      43.174 -15.692   4.459  1.00  0.00     0.051 A 
HETATM   11  N   UNL     1      43.211 -13.664   7.366  1.00  0.00    -0.357 N 
HETATM   12  C   UNL     1      43.179 -16.171   7.230  1.00  0.00     0.033 A 
HETATM   13  H   UNL     1      43.217 -13.587   8.375  1.00  0.00     0.166 HD
HETATM   14  C   UNL     1      43.156 -17.235   6.319  1.00  0.00     0.039 A 
HETATM   15  C   UNL     1      43.152 -17.006   4.946  1.00  0.00     0.069 A 
BRANCH  15  16
HETATM   16  O   UNL     1      43.128 -17.964   3.970  1.00  0.00    -0.356 OA
HETATM   17  C   UNL     1      42.917 -17.524   2.633  1.00  0.00     0.210 C 
ENDBRANCH  15  16
ENDBRANCH   4   5
ENDBRANCH   1   4
BRANCH   1  18
HETATM   18  C   UNL     1      44.495  -9.492   8.301  1.00  0.00     0.218 C 
HETATM   19  C   UNL     1      45.920  -8.945   8.228  1.00  0.00     0.045 C 
BRANCH  18  20
HETATM   20  C   UNL     1      43.998  -9.581   9.706  1.00  0.00     0.015 C 
HETATM   21  C   UNL     1      43.356  -8.609  10.471  1.00  0.00     0.042 C 
HETATM   22  C   UNL     1      42.920  -7.242  10.069  1.00  0.00     0.071 C 
HETATM   23  N   UNL     1      43.144  -9.170  11.738  1.00  0.00    -0.238 N 
HETATM   24  N   UNL     1      43.438 -10.497  11.708  1.00  0.00    -0.179 NA
HETATM   25  C   UNL     1      44.042 -10.706  10.550  1.00  0.00     0.150 C 
BRANCH  23  26
HETATM   26  C   UNL     1      42.685  -8.591  12.959  1.00  0.00     0.058 A 
HETATM   27  C   UNL     1      41.536  -9.125  13.570  1.00  0.00     0.031 A 
HETATM   28  C   UNL     1      41.053  -8.594  14.769  1.00  0.00     0.002 A 
HETATM   29  C   UNL     1      41.720  -7.537  15.380  1.00  0.00     0.000 A 
HETATM   30  C   UNL     1      42.874  -7.017  14.799  1.00  0.00     0.002 A 
HETATM   31  C   UNL     1      43.360  -7.543  13.596  1.00  0.00     0.031 A 
ENDBRANCH  23  26
ENDBRANCH  18  20
ENDBRANCH   1  18
TORSDOF 6
ENDMDL
MODEL 9
REMARK VINA RESULT:      -7.8      1.601      2.455
REMARK  6 active torsions:
REMARK  status: ('A' for Active; 'I' for Inactive)
REMARK    1  A    between atoms: C_3  and  C_4 
REMARK    2  A    between atoms: C_4  and  N_5 
REMARK    3  A    between atoms: N_5  and  C_8 
REMARK    4  A    between atoms: C_8  and  C_9 
REMARK    5  A    between atoms: N_12  and  C_13 
REMARK    6  A    between atoms: C_28  and  O_29 
ROOT
HETATM    1  N   UNL     1      41.421 -13.847   6.366  1.00  0.00    -0.062 N 
HETATM    2  H   UNL     1      40.658 -13.858   7.051  1.00  0.00     0.278 HD
HETATM    3  H   UNL     1      41.188 -14.543   5.650  1.00  0.00     0.278 HD
ENDROOT
BRANCH   1   4
HETATM    4  C   UNL     1      41.409 -12.524   5.704  1.00  0.00     0.290 C 
BRANCH   4   5
HETATM    5  C   UNL     1      41.129 -12.608   4.243  1.00  0.00     0.042 A 
HETATM    6  C   UNL     1      41.859 -13.008   3.122  1.00  0.00    -0.025 A 
HETATM    7  C   UNL     1      43.253 -13.533   3.043  1.00  0.00     0.051 C 
HETATM    8  C   UNL     1      41.015 -12.810   1.975  1.00  0.00     0.001 A 
HETATM    9  C   UNL     1      39.800 -12.311   2.425  1.00  0.00     0.043 A 
HETATM   10  C   UNL     1      41.179 -13.007   0.587  1.00  0.00     0.051 A 
HETATM   11  N   UNL     1      39.885 -12.208   3.789  1.00  0.00    -0.357 N 
HETATM   12  C   UNL     1      38.740 -12.003   1.564  1.00  0.00     0.033 A 
HETATM   13  H   UNL     1      39.123 -11.869   4.361  1.00  0.00     0.166 HD
HETATM   14  C   UNL     1      38.933 -12.205   0.191  1.00  0.00     0.039 A 
HETATM   15  C   UNL     1      40.138 -12.701  -0.300  1.00  0.00     0.069 A 
BRANCH  15  16
HETATM   16  O   UNL     1      40.436 -12.934  -1.615  1.00  0.00    -0.356 OA
HETATM   17  C   UNL     1      39.723 -13.978  -2.267  1.00  0.00     0.210 C 
ENDBRANCH  15  16
ENDBRANCH   4   5
ENDBRANCH   1   4
BRANCH   1  18
HETATM   18  C   UNL     1      42.707 -14.246   7.021  1.00  0.00     0.218 C 
HETATM   19  C   UNL     1      43.611 -13.014   7.057  1.00  0.00     0.045 C 
BRANCH  18  20
HETATM   20  C   UNL     1      43.360 -15.405   6.345  1.00  0.00     0.015 C 
HETATM   21  C   UNL     1      42.812 -16.317   5.444  1.00  0.00     0.042 C 
HETATM   22  C   UNL     1      41.446 -16.336   4.851  1.00  0.00     0.071 C 
HETATM   23  N   UNL     1      43.821 -17.243   5.145  1.00  0.00    -0.238 N 
HETATM   24  N   UNL     1      45.005 -16.814   5.658  1.00  0.00    -0.179 NA
HETATM   25  C   UNL     1      44.707 -15.799   6.452  1.00  0.00     0.150 C 
BRANCH  23  26
HETATM   26  C   UNL     1      43.786 -18.473   4.422  1.00  0.00     0.058 A 
HETATM   27  C   UNL     1      43.584 -18.433   3.031  1.00  0.00     0.031 A 
HETATM   28  C   UNL     1      43.547 -19.611   2.281  1.00  0.00     0.002 A 
HETATM   29  C   UNL     1      43.728 -20.840   2.907  1.00  0.00     0.000 A 
HETATM   30  C   UNL     1      43.955 -20.891   4.280  1.00  0.00     0.002 A 
HETATM   31  C   UNL     1      43.990 -19.714   5.037  1.00  0.00     0.031 A 
ENDBRANCH  23  26
ENDBRANCH  18  20
ENDBRANCH   1  18
TORSDOF 6
ENDMDL
MODEL 10
REMARK VINA RESULT:      -7.6      6.762     10.253
REMARK  6 active torsions:
REMARK  status: ('A' for Active; 'I' for Inactive)
REMARK    1  A    between atoms: C_3  and  C_4 
REMARK    2  A    between atoms: C_4  and  N_5 
REMARK    3  A    between atoms: N_5  and  C_8 
REMARK    4  A    between atoms: C_8  and  C_9 
REMARK    5  A    between atoms: N_12  and  C_13 
REMARK    6  A    between atoms: C_28  and  O_29 
ROOT
HETATM    1  N   UNL     1      43.538  -9.798   7.524  1.00  0.00    -0.062 N 
HETATM    2  H   UNL     1      43.486  -9.330   6.613  1.00  0.00     0.278 HD
HETATM    3  H   UNL     1      44.212  -9.274   8.090  1.00  0.00     0.278 HD
ENDROOT
BRANCH   1   4
HETATM    4  C   UNL     1      42.219  -9.653   8.178  1.00  0.00     0.290 C 
BRANCH   4   5
HETATM    5  C   UNL     1      42.316  -9.164   9.581  1.00  0.00     0.042 A 
HETATM    6  C   UNL     1      42.791  -7.999  10.187  1.00  0.00    -0.025 A 
HETATM    7  C   UNL     1      43.378  -6.780   9.556  1.00  0.00     0.051 C 
HETATM    8  C   UNL     1      42.634  -8.165  11.606  1.00  0.00     0.001 A 
HETATM    9  C   UNL     1      42.060  -9.411  11.825  1.00  0.00     0.043 A 
HETATM   10  C   UNL     1      42.933  -7.366  12.730  1.00  0.00     0.051 A 
HETATM   11  N   UNL     1      41.869  -9.989  10.597  1.00  0.00    -0.357 N 
HETATM   12  C   UNL     1      41.768  -9.897  13.104  1.00  0.00     0.033 A 
HETATM   13  H   UNL     1      41.459 -10.907  10.482  1.00  0.00     0.166 HD
HETATM   14  C   UNL     1      42.079  -9.083  14.201  1.00  0.00     0.039 A 
HETATM   15  C   UNL     1      42.657  -7.829  14.024  1.00  0.00     0.069 A 
BRANCH  15  16
HETATM   16  O   UNL     1      43.004  -6.955  15.018  1.00  0.00    -0.356 OA
HETATM   17  C   UNL     1      42.132  -6.867  16.138  1.00  0.00     0.210 C 
ENDBRANCH  15  16
ENDBRANCH   4   5
ENDBRANCH   1   4
BRANCH   1  18
HETATM   18  C   UNL     1      44.041 -11.198   7.355  1.00  0.00     0.218 C 
HETATM   19  C   UNL     1      45.567 -11.140   7.297  1.00  0.00     0.045 C 
BRANCH  18  20
HETATM   20  C   UNL     1      43.458 -11.878   6.160  1.00  0.00     0.015 C 
HETATM   21  C   UNL     1      43.147 -13.225   5.984  1.00  0.00     0.042 C 
HETATM   22  C   UNL     1      43.238 -14.340   6.967  1.00  0.00     0.071 C 
HETATM   23  N   UNL     1      42.675 -13.360   4.671  1.00  0.00    -0.238 N 
HETATM   24  N   UNL     1      42.492 -12.131   4.120  1.00  0.00    -0.179 NA
HETATM   25  C   UNL     1      43.056 -11.274   4.954  1.00  0.00     0.150 C 
BRANCH  23  26
HETATM   26  C   UNL     1      42.372 -14.518   3.894  1.00  0.00     0.058 A 
HETATM   27  C   UNL     1      41.064 -15.032   3.931  1.00  0.00     0.031 A 
HETATM   28  C   UNL     1      40.719 -16.161   3.183  1.00  0.00     0.002 A 
HETATM   29  C   UNL     1      41.669 -16.779   2.378  1.00  0.00     0.000 A 
HETATM   30  C   UNL     1      42.962 -16.264   2.312  1.00  0.00     0.002 A 
HETATM   31  C   UNL     1      43.313 -15.135   3.062  1.00  0.00     0.031 A 
ENDBRANCH  23  26
ENDBRANCH  18  20
ENDBRANCH   1  18
TORSDOF 6
ENDMDL
