MODEL 1
REMARK VINA RESULT:      -8.7      0.000      0.000
REMARK  8 active torsions:
REMARK  status: ('A' for Active; 'I' for Inactive)
REMARK    1  A    between atoms: C_1  and  C_15 
REMARK    2  A    between atoms: C_2  and  C_5 
REMARK    3  A    between atoms: C_5  and  C_13 
REMARK       I    between atoms: C_7  and  N_8 
REMARK    4  A    between atoms: N_8  and  C_9 
REMARK       I    between atoms: C_13  and  N_14 
REMARK    5  A    between atoms: N_14  and  C_15 
REMARK    6  A    between atoms: C_23  and  C_24 
REMARK    7  A    between atoms: C_24  and  O_25 
REMARK    8  A    between atoms: C_27  and  O_28 
ROOT
HETATM    1  C           1      42.696 -14.402   5.414  0.00  0.00     0.056 C 
HETATM    2  C           1      41.528 -11.842   4.261  0.00  0.00     0.055 C 
HETATM    3  C           1      41.448 -13.213   3.551  0.00  0.00     0.012 C 
HETATM    4  C           1      43.662 -11.568   7.194  0.00  0.00     0.173 A 
HETATM    5  S           1      42.904 -10.742   6.252  0.00  0.00    -0.055 SA
HETATM    6  C           1      42.459 -11.882   5.438  0.00  0.00     0.012 A 
HETATM    7  C           1      42.960 -13.018   5.934  0.00  0.00     0.056 A 
HETATM    8  C           1      41.375 -14.398   4.573  0.00  0.00    -0.030 C 
HETATM    9  C           1      40.180 -14.276   5.544  0.00  0.00     0.016 C 
HETATM   10  C           1      40.491 -13.229   2.309  0.00  0.00     0.008 C 
HETATM   11  C           1      41.057 -12.252   1.238  0.00  0.00     0.020 C 
HETATM   12  C           1      40.503 -14.643   1.692  0.00  0.00     0.128 C 
HETATM   13  C           1      40.224 -15.748   2.703  0.00  0.00     0.033 C 
HETATM   14  C           1      41.286 -15.739   3.806  0.00  0.00     0.013 C 
HETATM   15  N           1      43.659 -12.808   6.958  0.00  0.00    -0.227 NA
ENDROOT
BRANCH   1  16
HETATM   16  C           1      42.790 -15.435   6.560  0.00  0.00     0.114 C 
BRANCH  16  17
HETATM   17  C           1      43.829 -16.522   6.299  0.00  0.00     0.218 C 
HETATM   18  N           1      43.341 -17.690   5.785  0.00  0.00    -0.355 N 
HETATM   19  H           1      42.332 -17.836   5.704  0.00  0.00     0.162 HD
HETATM   20  O           1      44.998 -16.347   6.537  0.00  0.00    -0.274 OA
BRANCH  18  21
HETATM   21  C           1      44.216 -18.804   5.416  0.00  0.00     0.187 C 
BRANCH  21  22
HETATM   22  C           1      43.871 -19.241   4.021  0.00  0.00     0.070 A 
HETATM   23  C           1      43.552 -18.431   3.000  0.00  0.00     0.036 A 
HETATM   24  C           1      43.352 -19.255   1.966  0.00  0.00     0.027 A 
HETATM   25  C           1      43.568 -20.473   2.477  0.00  0.00     0.142 A 
HETATM   26  O           1      43.863 -20.423   3.671  0.00  0.00    -0.325 OA
ENDBRANCH  21  22
ENDBRANCH  18  21
ENDBRANCH  16  17
ENDBRANCH   1  16
BRANCH  10  27
HETATM   27  C           1      39.052 -12.778   2.623  0.00  0.00     0.176 C 
BRANCH  27  28
HETATM   28  O           1      38.372 -12.343   1.458  0.00  0.00    -0.400 OA
HETATM   29  H           1      37.570 -12.853   1.339  0.00  0.00     0.209 HD
ENDBRANCH  27  28
ENDBRANCH  10  27
BRANCH   4  30
HETATM   30  N           1      44.194 -11.000   8.294  0.00  0.00    -0.306 N 
HETATM   31  C           1      45.431 -10.438   8.436  0.00  0.00     0.219 C 
HETATM   32  C           1      45.683  -9.835   9.803  0.00  0.00     0.117 C 
HETATM   33  O           1      46.254 -10.428   7.556  0.00  0.00    -0.274 OA
HETATM   34  H           1      43.584 -11.072   9.095  0.00  0.00     0.171 HD
ENDBRANCH   4  30
BRANCH  12  35
HETATM   35  O           1      39.556 -14.752   0.656  0.00  0.00    -0.395 OA
HETATM   36  H           1      39.563 -15.640   0.295  0.00  0.00     0.210 HD
ENDBRANCH  12  35
TORSDOF 8
ENDMDL
MODEL 2
REMARK VINA RESULT:      -8.0      3.177      6.651
REMARK  8 active torsions:
REMARK  status: ('A' for Active; 'I' for Inactive)
REMARK    1  A    between atoms: C_1  and  C_15 
REMARK    2  A    between atoms: C_2  and  C_5 
REMARK    3  A    between atoms: C_5  and  C_13 
REMARK       I    between atoms: C_7  and  N_8 
REMARK    4  A    between atoms: N_8  and  C_9 
REMARK       I    between atoms: C_13  and  N_14 
REMARK    5  A    between atoms: N_14  and  C_15 
REMARK    6  A    between atoms: C_23  and  C_24 
REMARK    7  A    between atoms: C_24  and  O_25 
REMARK    8  A    between atoms: C_27  and  O_28 
ROOT
HETATM    1  C           1      40.906 -11.973   5.607  0.00  0.00     0.056 C 
HETATM    2  C           1      43.305 -13.565   4.628  0.00  0.00     0.055 C 
HETATM    3  C           1      41.849 -13.860   4.196  0.00  0.00     0.012 C 
HETATM    4  C           1      43.828 -11.196   7.338  0.00  0.00     0.173 A 
HETATM    5  S           1      44.543 -12.191   6.536  0.00  0.00    -0.055 SA
HETATM    6  C           1      43.357 -12.587   5.765  0.00  0.00     0.012 A 
HETATM    7  C           1      42.293 -11.892   6.179  0.00  0.00     0.056 A 
HETATM    8  C           1      40.977 -12.559   4.156  0.00  0.00    -0.030 C 
HETATM    9  C           1      41.559 -11.478   3.221  0.00  0.00     0.016 C 
HETATM   10  C           1      41.734 -14.881   3.012  0.00  0.00     0.008 C 
HETATM   11  C           1      42.299 -16.251   3.485  0.00  0.00     0.020 C 
HETATM   12  C           1      40.242 -15.090   2.681  0.00  0.00     0.128 C 
HETATM   13  C           1      39.484 -13.788   2.453  0.00  0.00     0.033 C 
HETATM   14  C           1      39.538 -12.914   3.708  0.00  0.00     0.013 C 
HETATM   15  N           1      42.593 -11.087   7.098  0.00  0.00    -0.227 NA
ENDROOT
BRANCH   1  16
HETATM   16  C           1      40.173 -10.622   5.777  0.00  0.00     0.114 C 
BRANCH  16  17
HETATM   17  C           1      39.226 -10.605   6.974  0.00  0.00     0.218 C 
HETATM   18  N           1      39.757 -10.117   8.135  0.00  0.00    -0.355 N 
HETATM   19  H           1      40.754  -9.899   8.195  0.00  0.00     0.162 HD
HETATM   20  O           1      38.090 -11.000   6.885  0.00  0.00    -0.274 OA
BRANCH  18  21
HETATM   21  C           1      38.959  -9.970   9.354  0.00  0.00     0.187 C 
BRANCH  21  22
HETATM   22  C           1      39.892  -9.802  10.518  0.00  0.00     0.070 A 
HETATM   23  C           1      41.086  -9.192  10.487  0.00  0.00     0.036 A 
HETATM   24  C           1      41.535  -9.264  11.745  0.00  0.00     0.027 A 
HETATM   25  C           1      40.563  -9.913  12.397  0.00  0.00     0.142 A 
HETATM   26  O           1      39.631 -10.211  11.652  0.00  0.00    -0.325 OA
ENDBRANCH  21  22
ENDBRANCH  18  21
ENDBRANCH  16  17
ENDBRANCH   1  16
BRANCH  10  27
HETATM   27  C           1      42.524 -14.471   1.754  0.00  0.00     0.176 C 
BRANCH  27  28
HETATM   28  O           1      42.936 -15.600   1.003  0.00  0.00    -0.400 OA
HETATM   29  H           1      42.193 -16.190   0.866  0.00  0.00     0.209 HD
ENDBRANCH  27  28
ENDBRANCH  10  27
BRANCH   4  30
HETATM   30  N           1      44.520 -10.389   8.166  0.00  0.00    -0.306 N 
HETATM   31  C           1      44.597 -10.449   9.529  0.00  0.00     0.219 C 
HETATM   32  C           1      45.520  -9.415  10.141  0.00  0.00     0.117 C 
HETATM   33  O           1      43.980 -11.247  10.188  0.00  0.00    -0.274 OA
HETATM   34  H           1      44.976  -9.636   7.673  0.00  0.00     0.171 HD
ENDBRANCH   4  30
BRANCH  12  35
HETATM   35  O           1      40.084 -15.892   1.535  0.00  0.00    -0.395 OA
HETATM   36  H           1      39.455 -15.488   0.934  0.00  0.00     0.210 HD
ENDBRANCH  12  35
TORSDOF 8
ENDMDL
MODEL 3
REMARK VINA RESULT:      -7.9      2.190      3.316
REMARK  8 active torsions:
REMARK  status: ('A' for Active; 'I' for Inactive)
REMARK    1  A    between atoms: C_1  and  C_15 
REMARK    2  A    between atoms: C_2  and  C_5 
REMARK    3  A    between atoms: C_5  and  C_13 
REMARK       I    between atoms: C_7  and  N_8 
REMARK    4  A    between atoms: N_8  and  C_9 
REMARK       I    between atoms: C_13  and  N_14 
REMARK    5  A    between atoms: N_14  and  C_15 
REMARK    6  A    between atoms: C_23  and  C_24 
REMARK    7  A    between atoms: C_24  and  O_25 
REMARK    8  A    between atoms: C_27  and  O_28 
ROOT
HETATM    1  C           1      41.740 -14.333   2.144  0.00  0.00     0.056 C 
HETATM    2  C           1      41.490 -11.406   1.359  0.00  0.00     0.055 C 
HETATM    3  C           1      41.141 -12.578   0.412  0.00  0.00     0.012 C 
HETATM    4  C           1      43.178 -12.190   4.484  0.00  0.00     0.173 A 
HETATM    5  S           1      42.816 -11.053   3.635  0.00  0.00    -0.055 SA
HETATM    6  C           1      42.198 -11.885   2.593  0.00  0.00     0.012 A 
HETATM    7  C           1      42.294 -13.176   2.924  0.00  0.00     0.056 A 
HETATM    8  C           1      40.603 -13.823   1.195  0.00  0.00    -0.030 C 
HETATM    9  C           1      39.361 -13.497   2.054  0.00  0.00     0.016 C 
HETATM   10  C           1      40.402 -12.136  -0.899  0.00  0.00     0.008 C 
HETATM   11  C           1      41.358 -11.224  -1.720  0.00  0.00     0.020 C 
HETATM   12  C           1      40.116 -13.387  -1.753  0.00  0.00     0.128 C 
HETATM   13  C           1      39.405 -14.496  -0.986  0.00  0.00     0.033 C 
HETATM   14  C           1      40.262 -14.955   0.197  0.00  0.00     0.013 C 
HETATM   15  N           1      42.870 -13.328   4.032  0.00  0.00    -0.227 NA
ENDROOT
BRANCH   1  16
HETATM   16  C           1      41.384 -15.502   3.091  0.00  0.00     0.114 C 
BRANCH  16  17
HETATM   17  C           1      42.273 -16.725   2.888  0.00  0.00     0.218 C 
HETATM   18  N           1      43.456 -16.712   3.573  0.00  0.00    -0.355 N 
HETATM   19  H           1      43.747 -15.874   4.082  0.00  0.00     0.162 HD
HETATM   20  O           1      41.942 -17.634   2.168  0.00  0.00    -0.274 OA
BRANCH  18  21
HETATM   21  C           1      44.388 -17.840   3.539  0.00  0.00     0.187 C 
BRANCH  21  22
HETATM   22  C           1      44.036 -18.786   4.651  0.00  0.00     0.070 A 
HETATM   23  C           1      44.147 -20.122   4.611  0.00  0.00     0.036 A 
HETATM   24  C           1      43.745 -20.531   5.819  0.00  0.00     0.027 A 
HETATM   25  C           1      43.431 -19.395   6.455  0.00  0.00     0.142 A 
HETATM   26  O           1      43.609 -18.408   5.744  0.00  0.00    -0.325 OA
ENDBRANCH  21  22
ENDBRANCH  18  21
ENDBRANCH  16  17
ENDBRANCH   1  16
BRANCH  10  27
HETATM   27  C           1      39.110 -11.333  -0.648  0.00  0.00     0.176 C 
BRANCH  27  28
HETATM   28  O           1      38.918 -10.330  -1.630  0.00  0.00    -0.400 OA
HETATM   29  H           1      39.530 -10.460  -2.355  0.00  0.00     0.209 HD
ENDBRANCH  27  28
ENDBRANCH  10  27
BRANCH   4  30
HETATM   30  N           1      43.683 -11.966   5.712  0.00  0.00    -0.306 N 
HETATM   31  C           1      44.911 -11.465   6.039  0.00  0.00     0.219 C 
HETATM   32  C           1      45.130 -11.287   7.528  0.00  0.00     0.117 C 
HETATM   33  O           1      45.751 -11.196   5.218  0.00  0.00    -0.274 OA
HETATM   34  H           1      43.058 -12.271   6.444  0.00  0.00     0.171 HD
ENDBRANCH   4  30
BRANCH  12  35
HETATM   35  O           1      39.332 -13.066  -2.877  0.00  0.00    -0.395 OA
HETATM   36  H           1      39.268 -12.114  -2.974  0.00  0.00     0.210 HD
ENDBRANCH  12  35
TORSDOF 8
ENDMDL
MODEL 4
REMARK VINA RESULT:      -7.5      3.257      6.136
REMARK  8 active torsions:
REMARK  status: ('A' for Active; 'I' for Inactive)
REMARK    1  A    between atoms: C_1  and  C_15 
REMARK    2  A    between atoms: C_2  and  C_5 
REMARK    3  A    between atoms: C_5  and  C_13 
REMARK       I    between atoms: C_7  and  N_8 
REMARK    4  A    between atoms: N_8  and  C_9 
REMARK       I    between atoms: C_13  and  N_14 
REMARK    5  A    between atoms: N_14  and  C_15 
REMARK    6  A    between atoms: C_23  and  C_24 
REMARK    7  A    between atoms: C_24  and  O_25 
REMARK    8  A    between atoms: C_27  and  O_28 
ROOT
HETATM    1  C           1      41.463 -13.490   3.435  0.00  0.00     0.056 C 
HETATM    2  C           1      40.020 -10.837   3.080  0.00  0.00     0.055 C 
HETATM    3  C           1      40.779 -11.232   4.368  0.00  0.00     0.012 C 
HETATM    4  C           1      39.499 -13.407   0.559  0.00  0.00     0.173 A 
HETATM    5  S           1      39.077 -12.051   0.911  0.00  0.00    -0.055 SA
HETATM    6  C           1      39.868 -12.005   2.148  0.00  0.00     0.012 A 
HETATM    7  C           1      40.514 -13.163   2.318  0.00  0.00     0.056 A 
HETATM    8  C           1      42.003 -12.162   4.065  0.00  0.00    -0.030 C 
HETATM    9  C           1      43.006 -11.526   3.078  0.00  0.00     0.016 C 
HETATM   10  C           1      40.963 -10.050   5.383  0.00  0.00     0.008 C 
HETATM   11  C           1      39.558  -9.591   5.866  0.00  0.00     0.020 C 
HETATM   12  C           1      41.726 -10.571   6.617  0.00  0.00     0.128 C 
HETATM   13  C           1      43.020 -11.297   6.269  0.00  0.00     0.033 C 
HETATM   14  C           1      42.726 -12.513   5.388  0.00  0.00     0.013 C 
HETATM   15  N           1      40.282 -13.965   1.378  0.00  0.00    -0.227 NA
ENDROOT
BRANCH   1  16
HETATM   16  C           1      42.519 -14.515   2.962  0.00  0.00     0.114 C 
BRANCH  16  17
HETATM   17  C           1      42.545 -15.781   3.814  0.00  0.00     0.218 C 
HETATM   18  N           1      43.712 -16.493   3.773  0.00  0.00    -0.355 N 
HETATM   19  H           1      44.451 -16.233   3.116  0.00  0.00     0.162 HD
HETATM   20  O           1      41.593 -16.118   4.473  0.00  0.00    -0.274 OA
BRANCH  18  21
HETATM   21  C           1      43.921 -17.691   4.586  0.00  0.00     0.187 C 
BRANCH  21  22
HETATM   22  C           1      43.774 -18.899   3.706  0.00  0.00     0.070 A 
HETATM   23  C           1      43.404 -18.891   2.417  0.00  0.00     0.036 A 
HETATM   24  C           1      43.435 -20.177   2.049  0.00  0.00     0.027 A 
HETATM   25  C           1      43.818 -20.820   3.158  0.00  0.00     0.142 A 
HETATM   26  O           1      44.000 -20.046   4.097  0.00  0.00    -0.325 OA
ENDBRANCH  21  22
ENDBRANCH  18  21
ENDBRANCH  16  17
ENDBRANCH   1  16
BRANCH  10  27
HETATM   27  C           1      41.665  -8.816   4.783  0.00  0.00     0.176 C 
BRANCH  27  28
HETATM   28  O           1      41.409  -7.647   5.542  0.00  0.00    -0.400 OA
HETATM   29  H           1      41.199  -6.918   4.957  0.00  0.00     0.209 HD
ENDBRANCH  27  28
ENDBRANCH  10  27
BRANCH   4  30
HETATM   30  N           1      39.149 -13.922  -0.636  0.00  0.00    -0.306 N 
HETATM   31  C           1      39.758 -13.733  -1.844  0.00  0.00     0.219 C 
HETATM   32  C           1      39.132 -14.516  -2.981  0.00  0.00     0.117 C 
HETATM   33  O           1      40.704 -13.003  -1.998  0.00  0.00    -0.274 OA
HETATM   34  H           1      38.299 -14.463  -0.585  0.00  0.00     0.171 HD
ENDBRANCH   4  30
BRANCH  12  35
HETATM   35  O           1      42.041  -9.520   7.500  0.00  0.00    -0.395 OA
HETATM   36  H           1      42.842  -9.726   7.985  0.00  0.00     0.210 HD
ENDBRANCH  12  35
TORSDOF 8
ENDMDL
MODEL 5
REMARK VINA RESULT:      -7.3      2.804      7.709
REMARK  8 active torsions:
REMARK  status: ('A' for Active; 'I' for Inactive)
REMARK    1  A    between atoms: C_1  and  C_15 
REMARK    2  A    between atoms: C_2  and  C_5 
REMARK    3  A    between atoms: C_5  and  C_13 
REMARK       I    between atoms: C_7  and  N_8 
REMARK    4  A    between atoms: N_8  and  C_9 
REMARK       I    between atoms: C_13  and  N_14 
REMARK    5  A    between atoms: N_14  and  C_15 
REMARK    6  A    between atoms: C_23  and  C_24 
REMARK    7  A    between atoms: C_24  and  O_25 
REMARK    8  A    between atoms: C_27  and  O_28 
ROOT
HETATM    1  C           1      41.495 -13.599   4.647  0.00  0.00     0.056 C 
HETATM    2  C           1      41.999 -16.429   3.657  0.00  0.00     0.055 C 
HETATM    3  C           1      42.678 -15.828   4.910  0.00  0.00     0.012 C 
HETATM    4  C           1      40.114 -14.185   1.503  0.00  0.00     0.173 A 
HETATM    5  S           1      40.655 -15.545   1.541  0.00  0.00    -0.055 SA
HETATM    6  C           1      41.278 -15.380   2.862  0.00  0.00     0.012 A 
HETATM    7  C           1      41.062 -14.141   3.315  0.00  0.00     0.056 A 
HETATM    8  C           1      41.756 -14.788   5.632  0.00  0.00    -0.030 C 
HETATM    9  C           1      40.394 -15.385   6.048  0.00  0.00     0.016 C 
HETATM   10  C           1      43.452 -16.880   5.778  0.00  0.00     0.008 C 
HETATM   11  C           1      44.617 -17.461   4.927  0.00  0.00     0.020 C 
HETATM   12  C           1      44.081 -16.159   6.987  0.00  0.00     0.128 C 
HETATM   13  C           1      43.087 -15.316   7.775  0.00  0.00     0.033 C 
HETATM   14  C           1      42.483 -14.231   6.880  0.00  0.00     0.013 C 
HETATM   15  N           1      40.381 -13.463   2.504  0.00  0.00    -0.227 NA
ENDROOT
BRANCH   1  16
HETATM   16  C           1      40.518 -12.500   5.125  0.00  0.00     0.114 C 
BRANCH  16  17
HETATM   17  C           1      41.215 -11.182   5.450  0.00  0.00     0.218 C 
HETATM   18  N           1      41.550 -11.004   6.763  0.00  0.00    -0.355 N 
HETATM   19  H           1      41.236 -11.672   7.471  0.00  0.00     0.162 HD
HETATM   20  O           1      41.448 -10.364   4.596  0.00  0.00    -0.274 OA
BRANCH  18  21
HETATM   21  C           1      42.285  -9.826   7.226  0.00  0.00     0.187 C 
BRANCH  21  22
HETATM   22  C           1      43.719 -10.212   7.447  0.00  0.00     0.070 A 
HETATM   23  C           1      44.522  -9.735   8.410  0.00  0.00     0.036 A 
HETATM   24  C           1      45.682 -10.377   8.231  0.00  0.00     0.027 A 
HETATM   25  C           1      45.453 -11.168   7.176  0.00  0.00     0.142 A 
HETATM   26  O           1      44.306 -11.041   6.749  0.00  0.00    -0.325 OA
ENDBRANCH  21  22
ENDBRANCH  18  21
ENDBRANCH  16  17
ENDBRANCH   1  16
BRANCH  10  27
HETATM   27  C           1      42.586 -18.070   6.237  0.00  0.00     0.176 C 
BRANCH  27  28
HETATM   28  O           1      43.355 -19.249   6.392  0.00  0.00    -0.400 OA
HETATM   29  H           1      44.259 -19.023   6.614  0.00  0.00     0.209 HD
ENDBRANCH  27  28
ENDBRANCH  10  27
BRANCH   4  30
HETATM   30  N           1      39.285 -13.829   0.503  0.00  0.00    -0.306 N 
HETATM   31  C           1      39.577 -13.097  -0.613  0.00  0.00     0.219 C 
HETATM   32  C           1      38.412 -12.932  -1.568  0.00  0.00     0.117 C 
HETATM   33  O           1      40.664 -12.617  -0.818  0.00  0.00    -0.274 OA
HETATM   34  H           1      38.333 -14.119   0.674  0.00  0.00     0.171 HD
ENDBRANCH   4  30
BRANCH  12  35
HETATM   35  O           1      44.672 -17.078   7.874  0.00  0.00    -0.395 OA
HETATM   36  H           1      44.642 -16.737   8.770  0.00  0.00     0.210 HD
ENDBRANCH  12  35
TORSDOF 8
ENDMDL
MODEL 6
REMARK VINA RESULT:      -7.3      4.546      8.917
REMARK  8 active torsions:
REMARK  status: ('A' for Active; 'I' for Inactive)
REMARK    1  A    between atoms: C_1  and  C_15 
REMARK    2  A    between atoms: C_2  and  C_5 
REMARK    3  A    between atoms: C_5  and  C_13 
REMARK       I    between atoms: C_7  and  N_8 
REMARK    4  A    between atoms: N_8  and  C_9 
REMARK       I    between atoms: C_13  and  N_14 
REMARK    5  A    between atoms: N_14  and  C_15 
REMARK    6  A    between atoms: C_23  and  C_24 
REMARK    7  A    between atoms: C_24  and  O_25 
REMARK    8  A    between atoms: C_27  and  O_28 
ROOT
HETATM    1  C           1      42.997  -8.831   9.621  0.00  0.00     0.056 C 
HETATM    2  C           1      40.043  -9.103  10.289  0.00  0.00     0.055 C 
HETATM    3  C           1      41.167  -9.140  11.352  0.00  0.00     0.012 C 
HETATM    4  C           1      41.012  -9.217   6.785  0.00  0.00     0.173 A 
HETATM    5  S           1      39.834  -9.321   7.649  0.00  0.00    -0.055 SA
HETATM    6  C           1      40.597  -9.176   8.896  0.00  0.00     0.012 A 
HETATM    7  C           1      41.899  -9.050   8.621  0.00  0.00     0.056 A 
HETATM    8  C           1      42.389  -8.250  10.942  0.00  0.00    -0.030 C 
HETATM    9  C           1      41.997  -6.777  10.691  0.00  0.00     0.016 C 
HETATM   10  C           1      40.645  -9.072  12.829  0.00  0.00     0.008 C 
HETATM   11  C           1      39.784 -10.336  13.107  0.00  0.00     0.020 C 
HETATM   12  C           1      41.855  -9.120  13.784  0.00  0.00     0.128 C 
HETATM   13  C           1      42.928  -8.089  13.457  0.00  0.00     0.033 C 
HETATM   14  C           1      43.472  -8.319  12.045  0.00  0.00     0.013 C 
HETATM   15  N           1      42.116  -9.077   7.382  0.00  0.00    -0.227 NA
ENDROOT
BRANCH   1  16
HETATM   16  C           1      44.159  -8.037   8.981  0.00  0.00     0.114 C 
BRANCH  16  17
HETATM   17  C           1      45.151  -8.927   8.237  0.00  0.00     0.218 C 
HETATM   18  N           1      44.727 -10.205   7.998  0.00  0.00    -0.355 N 
HETATM   19  H           1      43.852 -10.542   8.405  0.00  0.00     0.162 HD
HETATM   20  O           1      46.231  -8.518   7.892  0.00  0.00    -0.274 OA
BRANCH  18  21
HETATM   21  C           1      45.531 -11.162   7.236  0.00  0.00     0.187 C 
BRANCH  21  22
HETATM   22  C           1      44.730 -11.626   6.054  0.00  0.00     0.070 A 
HETATM   23  C           1      43.790 -12.582   6.068  0.00  0.00     0.036 A 
HETATM   24  C           1      43.340 -12.632   4.809  0.00  0.00     0.027 A 
HETATM   25  C           1      44.062 -11.703   4.172  0.00  0.00     0.142 A 
HETATM   26  O           1      44.858 -11.145   4.926  0.00  0.00    -0.325 OA
ENDBRANCH  21  22
ENDBRANCH  18  21
ENDBRANCH  16  17
ENDBRANCH   1  16
BRANCH  10  27
HETATM   27  C           1      39.761  -7.844  13.123  0.00  0.00     0.176 C 
BRANCH  27  28
HETATM   28  O           1      38.385  -8.140  12.967  0.00  0.00    -0.400 OA
HETATM   29  H           1      38.073  -8.649  13.717  0.00  0.00     0.209 HD
ENDBRANCH  27  28
ENDBRANCH  10  27
BRANCH   4  30
HETATM   30  N           1      40.851  -9.147   5.449  0.00  0.00    -0.306 N 
HETATM   31  C           1      40.446 -10.135   4.598  0.00  0.00     0.219 C 
HETATM   32  C           1      40.315  -9.693   3.154  0.00  0.00     0.117 C 
HETATM   33  O           1      40.219 -11.263   4.959  0.00  0.00    -0.274 OA
HETATM   34  H           1      41.126  -8.250   5.078  0.00  0.00     0.171 HD
ENDBRANCH   4  30
BRANCH  12  35
HETATM   35  O           1      41.455  -8.922  15.119  0.00  0.00    -0.395 OA
HETATM   36  H           1      41.559  -9.734  15.619  0.00  0.00     0.210 HD
ENDBRANCH  12  35
TORSDOF 8
ENDMDL
MODEL 7
REMARK VINA RESULT:      -7.3      2.871      7.014
REMARK  8 active torsions:
REMARK  status: ('A' for Active; 'I' for Inactive)
REMARK    1  A    between atoms: C_1  and  C_15 
REMARK    2  A    between atoms: C_2  and  C_5 
REMARK    3  A    between atoms: C_5  and  C_13 
REMARK       I    between atoms: C_7  and  N_8 
REMARK    4  A    between atoms: N_8  and  C_9 
REMARK       I    between atoms: C_13  and  N_14 
REMARK    5  A    between atoms: N_14  and  C_15 
REMARK    6  A    between atoms: C_23  and  C_24 
REMARK    7  A    between atoms: C_24  and  O_25 
REMARK    8  A    between atoms: C_27  and  O_28 
ROOT
HETATM    1  C           1      42.900 -12.483   4.978  0.00  0.00     0.056 C 
HETATM    2  C           1      42.018 -13.567   2.277  0.00  0.00     0.055 C 
HETATM    3  C           1      42.803 -14.400   3.318  0.00  0.00     0.012 C 
HETATM    4  C           1      41.664  -9.997   2.874  0.00  0.00     0.173 A 
HETATM    5  S           1      41.459 -11.007   1.834  0.00  0.00    -0.055 SA
HETATM    6  C           1      41.975 -12.114   2.651  0.00  0.00     0.012 A 
HETATM    7  C           1      42.363 -11.656   3.845  0.00  0.00     0.056 A 
HETATM    8  C           1      42.461 -13.974   4.786  0.00  0.00    -0.030 C 
HETATM    9  C           1      40.954 -14.084   5.103  0.00  0.00     0.016 C 
HETATM   10  C           1      42.885 -15.928   2.976  0.00  0.00     0.008 C 
HETATM   11  C           1      43.675 -16.094   1.646  0.00  0.00     0.020 C 
HETATM   12  C           1      43.690 -16.641   4.081  0.00  0.00     0.128 C 
HETATM   13  C           1      43.182 -16.347   5.487  0.00  0.00     0.033 C 
HETATM   14  C           1      43.266 -14.847   5.779  0.00  0.00     0.013 C 
HETATM   15  N           1      42.172 -10.417   3.951  0.00  0.00    -0.227 NA
ENDROOT
BRANCH   1  16
HETATM   16  C           1      42.557 -11.826   6.335  0.00  0.00     0.114 C 
BRANCH  16  17
HETATM   17  C           1      43.795 -11.478   7.158  0.00  0.00     0.218 C 
HETATM   18  N           1      43.557 -10.786   8.312  0.00  0.00    -0.355 N 
HETATM   19  H           1      42.618 -10.438   8.520  0.00  0.00     0.162 HD
HETATM   20  O           1      44.901 -11.798   6.800  0.00  0.00    -0.274 OA
BRANCH  18  21
HETATM   21  C           1      44.629 -10.437   9.246  0.00  0.00     0.187 C 
BRANCH  21  22
HETATM   22  C           1      44.023 -10.185  10.596  0.00  0.00     0.070 A 
HETATM   23  C           1      43.764  -8.981  11.129  0.00  0.00     0.036 A 
HETATM   24  C           1      43.213  -9.249  12.318  0.00  0.00     0.027 A 
HETATM   25  C           1      43.204 -10.586  12.374  0.00  0.00     0.142 A 
HETATM   26  O           1      43.685 -11.091  11.361  0.00  0.00    -0.325 OA
ENDBRANCH  21  22
ENDBRANCH  18  21
ENDBRANCH  16  17
ENDBRANCH   1  16
BRANCH  10  27
HETATM   27  C           1      41.511 -16.598   2.777  0.00  0.00     0.176 C 
BRANCH  27  28
HETATM   28  O           1      41.618 -17.802   2.038  0.00  0.00    -0.400 OA
HETATM   29  H           1      41.491 -18.554   2.619  0.00  0.00     0.209 HD
ENDBRANCH  27  28
ENDBRANCH  10  27
BRANCH   4  30
HETATM   30  N           1      41.202  -8.746   2.684  0.00  0.00    -0.306 N 
HETATM   31  C           1      40.004  -8.222   3.083  0.00  0.00     0.219 C 
HETATM   32  C           1      39.832  -6.753   2.754  0.00  0.00     0.117 C 
HETATM   33  O           1      39.155  -8.871   3.640  0.00  0.00    -0.274 OA
HETATM   34  H           1      41.832  -8.185   2.131  0.00  0.00     0.171 HD
ENDBRANCH   4  30
BRANCH  12  35
HETATM   35  O           1      43.678 -18.037   3.897  0.00  0.00    -0.395 OA
HETATM   36  H           1      43.488 -18.247   2.981  0.00  0.00     0.210 HD
ENDBRANCH  12  35
TORSDOF 8
ENDMDL
MODEL 8
REMARK VINA RESULT:      -7.2      3.692      6.677
REMARK  8 active torsions:
REMARK  status: ('A' for Active; 'I' for Inactive)
REMARK    1  A    between atoms: C_1  and  C_15 
REMARK    2  A    between atoms: C_2  and  C_5 
REMARK    3  A    between atoms: C_5  and  C_13 
REMARK       I    between atoms: C_7  and  N_8 
REMARK    4  A    between atoms: N_8  and  C_9 
REMARK       I    between atoms: C_13  and  N_14 
REMARK    5  A    between atoms: N_14  and  C_15 
REMARK    6  A    between atoms: C_23  and  C_24 
REMARK    7  A    between atoms: C_24  and  O_25 
REMARK    8  A    between atoms: C_27  and  O_28 
ROOT
HETATM    1  C           1      40.840 -12.230   2.393  0.00  0.00     0.056 C 
HETATM    2  C           1      41.222 -13.466   5.145  0.00  0.00     0.055 C 
HETATM    3  C           1      41.283 -14.275   3.828  0.00  0.00     0.012 C 
HETATM    4  C           1      40.053 -10.026   4.974  0.00  0.00     0.173 A 
HETATM    5  S           1      40.363 -11.080   5.941  0.00  0.00    -0.055 SA
HETATM    6  C           1      40.704 -12.076   4.915  0.00  0.00     0.012 A 
HETATM    7  C           1      40.546 -11.547   3.698  0.00  0.00     0.056 A 
HETATM    8  C           1      41.832 -13.416   2.638  0.00  0.00    -0.030 C 
HETATM    9  C           1      43.232 -12.830   2.922  0.00  0.00     0.016 C 
HETATM   10  C           1      41.814 -15.740   4.008  0.00  0.00     0.008 C 
HETATM   11  C           1      40.817 -16.518   4.914  0.00  0.00     0.020 C 
HETATM   12  C           1      41.823 -16.436   2.632  0.00  0.00     0.128 C 
HETATM   13  C           1      42.551 -15.641   1.555  0.00  0.00     0.033 C 
HETATM   14  C           1      41.880 -14.280   1.355  0.00  0.00     0.013 C 
HETATM   15  N           1      40.165 -10.350   3.758  0.00  0.00    -0.227 NA
ENDROOT
BRANCH   1  16
HETATM   16  C           1      41.246 -11.192   1.321  0.00  0.00     0.114 C 
BRANCH  16  17
HETATM   17  C           1      40.248 -11.101   0.171  0.00  0.00     0.218 C 
HETATM   18  N           1      39.217 -11.997   0.216  0.00  0.00    -0.355 N 
HETATM   19  H           1      39.210 -12.739   0.920  0.00  0.00     0.162 HD
HETATM   20  O           1      40.374 -10.289  -0.712  0.00  0.00    -0.274 OA
BRANCH  18  21
HETATM   21  C           1      38.139 -11.995  -0.774  0.00  0.00     0.187 C 
BRANCH  21  22
HETATM   22  C           1      38.327 -13.171  -1.688  0.00  0.00     0.070 A 
HETATM   23  C           1      39.153 -14.207  -1.477  0.00  0.00     0.036 A 
HETATM   24  C           1      38.966 -15.008  -2.532  0.00  0.00     0.027 A 
HETATM   25  C           1      38.050 -14.366  -3.266  0.00  0.00     0.142 A 
HETATM   26  O           1      37.708 -13.305  -2.746  0.00  0.00    -0.325 OA
ENDBRANCH  21  22
ENDBRANCH  18  21
ENDBRANCH  16  17
ENDBRANCH   1  16
BRANCH  10  27
HETATM   27  C           1      43.200 -15.824   4.676  0.00  0.00     0.176 C 
BRANCH  27  28
HETATM   28  O           1      43.380 -17.054   5.356  0.00  0.00    -0.400 OA
HETATM   29  H           1      44.026 -16.949   6.056  0.00  0.00     0.209 HD
ENDBRANCH  27  28
ENDBRANCH  10  27
BRANCH   4  30
HETATM   30  N           1      39.799  -8.777   5.411  0.00  0.00    -0.306 N 
HETATM   31  C           1      38.586  -8.213   5.689  0.00  0.00     0.219 C 
HETATM   32  C           1      38.671  -6.797   6.223  0.00  0.00     0.117 C 
HETATM   33  O           1      37.540  -8.785   5.517  0.00  0.00    -0.274 OA
HETATM   34  H           1      40.636  -8.217   5.476  0.00  0.00     0.171 HD
ENDBRANCH   4  30
BRANCH  12  35
HETATM   35  O           1      42.420 -17.708   2.711  0.00  0.00    -0.395 OA
HETATM   36  H           1      42.489 -17.984   3.627  0.00  0.00     0.210 HD
ENDBRANCH  12  35
TORSDOF 8
ENDMDL
MODEL 9
REMARK VINA RESULT:      -7.1      3.813      7.747
REMARK  8 active torsions:
REMARK  status: ('A' for Active; 'I' for Inactive)
REMARK    1  A    between atoms: C_1  and  C_15 
REMARK    2  A    between atoms: C_2  and  C_5 
REMARK    3  A    between atoms: C_5  and  C_13 
REMARK       I    between atoms: C_7  and  N_8 
REMARK    4  A    between atoms: N_8  and  C_9 
REMARK       I    between atoms: C_13  and  N_14 
REMARK    5  A    between atoms: N_14  and  C_15 
REMARK    6  A    between atoms: C_23  and  C_24 
REMARK    7  A    between atoms: C_24  and  O_25 
REMARK    8  A    between atoms: C_27  and  O_28 
ROOT
HETATM    1  C           1      40.657 -14.177   1.899  0.00  0.00     0.056 C 
HETATM    2  C           1      41.144 -14.032   4.897  0.00  0.00     0.055 C 
HETATM    3  C           1      41.577 -15.229   4.018  0.00  0.00     0.012 C 
HETATM    4  C           1      38.987 -11.514   3.401  0.00  0.00     0.173 A 
HETATM    5  S           1      39.517 -11.940   4.698  0.00  0.00    -0.055 SA
HETATM    6  C           1      40.244 -13.092   4.148  0.00  0.00     0.012 A 
HETATM    7  C           1      40.045 -13.169   2.829  0.00  0.00     0.056 A 
HETATM    8  C           1      41.941 -14.782   2.561  0.00  0.00    -0.030 C 
HETATM    9  C           1      43.057 -13.716   2.525  0.00  0.00     0.016 C 
HETATM   10  C           1      42.516 -16.248   4.751  0.00  0.00     0.008 C 
HETATM   11  C           1      41.730 -16.880   5.935  0.00  0.00     0.020 C 
HETATM   12  C           1      42.870 -17.387   3.774  0.00  0.00     0.128 C 
HETATM   13  C           1      43.413 -16.894   2.439  0.00  0.00     0.033 C 
HETATM   14  C           1      42.374 -16.017   1.735  0.00  0.00     0.013 C 
HETATM   15  N           1      39.308 -12.237   2.416  0.00  0.00    -0.227 NA
ENDROOT
BRANCH   1  16
HETATM   16  C           1      40.820 -13.577   0.484  0.00  0.00     0.114 C 
BRANCH  16  17
HETATM   17  C           1      39.661 -13.921  -0.447  0.00  0.00     0.218 C 
HETATM   18  N           1      38.878 -12.867  -0.824  0.00  0.00    -0.355 N 
HETATM   19  H           1      39.014 -11.946  -0.401  0.00  0.00     0.162 HD
HETATM   20  O           1      39.462 -15.052  -0.815  0.00  0.00    -0.274 OA
BRANCH  18  21
HETATM   21  C           1      37.769 -13.018  -1.768  0.00  0.00     0.187 C 
BRANCH  21  22
HETATM   22  C           1      37.565 -11.713  -2.481  0.00  0.00     0.070 A 
HETATM   23  C           1      38.535 -10.923  -2.966  0.00  0.00     0.036 A 
HETATM   24  C           1      37.885  -9.899  -3.530  0.00  0.00     0.027 A 
HETATM   25  C           1      36.594 -10.182  -3.321  0.00  0.00     0.142 A 
HETATM   26  O           1      36.450 -11.238  -2.707  0.00  0.00    -0.325 OA
ENDBRANCH  21  22
ENDBRANCH  18  21
ENDBRANCH  16  17
ENDBRANCH   1  16
BRANCH  10  27
HETATM   27  C           1      43.791 -15.611   5.339  0.00  0.00     0.176 C 
BRANCH  27  28
HETATM   28  O           1      44.321 -16.384   6.401  0.00  0.00    -0.400 OA
HETATM   29  H           1      44.553 -17.258   6.084  0.00  0.00     0.209 HD
ENDBRANCH  27  28
ENDBRANCH  10  27
BRANCH   4  30
HETATM   30  N           1      38.319 -10.348   3.307  0.00  0.00    -0.306 N 
HETATM   31  C           1      38.814  -9.119   2.979  0.00  0.00     0.219 C 
HETATM   32  C           1      37.764  -8.028   2.909  0.00  0.00     0.117 C 
HETATM   33  O           1      39.983  -8.914   2.770  0.00  0.00    -0.274 OA
HETATM   34  H           1      37.349 -10.441   3.573  0.00  0.00     0.171 HD
ENDBRANCH   4  30
BRANCH  12  35
HETATM   35  O           1      43.822 -18.259   4.336  0.00  0.00    -0.395 OA
HETATM   36  H           1      44.501 -17.757   4.791  0.00  0.00     0.210 HD
ENDBRANCH  12  35
TORSDOF 8
ENDMDL
MODEL 10
REMARK VINA RESULT:      -7.0     15.867     18.606
REMARK  8 active torsions:
REMARK  status: ('A' for Active; 'I' for Inactive)
REMARK    1  A    between atoms: C_1  and  C_15 
REMARK    2  A    between atoms: C_2  and  C_5 
REMARK    3  A    between atoms: C_5  and  C_13 
REMARK       I    between atoms: C_7  and  N_8 
REMARK    4  A    between atoms: N_8  and  C_9 
REMARK       I    between atoms: C_13  and  N_14 
REMARK    5  A    between atoms: N_14  and  C_15 
REMARK    6  A    between atoms: C_23  and  C_24 
REMARK    7  A    between atoms: C_24  and  O_25 
REMARK    8  A    between atoms: C_27  and  O_28 
ROOT
HETATM    1  C           1      46.963 -30.147  -1.329  0.00  0.00     0.056 C 
HETATM    2  C           1      44.006 -30.834  -1.505  0.00  0.00     0.055 C 
HETATM    3  C           1      44.729 -30.501  -0.178  0.00  0.00     0.012 C 
HETATM    4  C           1      46.045 -31.324  -4.477  0.00  0.00     0.173 A 
HETATM    5  S           1      44.675 -31.500  -3.989  0.00  0.00    -0.055 SA
HETATM    6  C           1      44.979 -31.025  -2.632  0.00  0.00     0.012 A 
HETATM    7  C           1      46.275 -30.714  -2.538  0.00  0.00     0.056 A 
HETATM    8  C           1      45.900 -29.482  -0.390  0.00  0.00    -0.030 C 
HETATM    9  C           1      45.433 -28.162  -1.040  0.00  0.00     0.016 C 
HETATM   10  C           1      43.761 -30.294   1.037  0.00  0.00     0.008 C 
HETATM   11  C           1      43.016 -31.633   1.308  0.00  0.00     0.020 C 
HETATM   12  C           1      44.601 -29.974   2.291  0.00  0.00     0.128 C 
HETATM   13  C           1      45.588 -28.833   2.084  0.00  0.00     0.033 C 
HETATM   14  C           1      46.577 -29.182   0.969  0.00  0.00     0.013 C 
HETATM   15  N           1      46.876 -30.897  -3.628  0.00  0.00    -0.227 NA
ENDROOT
BRANCH   1  16
HETATM   16  C           1      48.163 -29.269  -1.754  0.00  0.00     0.114 C 
BRANCH  16  17
HETATM   17  C           1      49.496 -29.781  -1.216  0.00  0.00     0.218 C 
HETATM   18  N           1      49.590 -29.855   0.145  0.00  0.00    -0.355 N 
HETATM   19  H           1      48.845 -29.476   0.735  0.00  0.00     0.162 HD
HETATM   20  O           1      50.397 -30.094  -1.954  0.00  0.00    -0.274 OA
BRANCH  18  21
HETATM   21  C           1      50.776 -30.390   0.816  0.00  0.00     0.187 C 
BRANCH  21  22
HETATM   22  C           1      50.541 -30.361   2.299  0.00  0.00     0.070 A 
HETATM   23  C           1      49.644 -29.595   2.938  0.00  0.00     0.036 A 
HETATM   24  C           1      49.777 -29.924   4.228  0.00  0.00     0.027 A 
HETATM   25  C           1      50.743 -30.850   4.226  0.00  0.00     0.142 A 
HETATM   26  O           1      51.162 -31.073   3.091  0.00  0.00    -0.325 OA
ENDBRANCH  21  22
ENDBRANCH  18  21
ENDBRANCH  16  17
ENDBRANCH   1  16
BRANCH  10  27
HETATM   27  C           1      42.687 -29.214   0.804  0.00  0.00     0.176 C 
BRANCH  27  28
HETATM   28  O           1      41.485 -29.512   1.492  0.00  0.00    -0.400 OA
HETATM   29  H           1      41.528 -29.174   2.387  0.00  0.00     0.209 HD
ENDBRANCH  27  28
ENDBRANCH  10  27
BRANCH   4  30
HETATM   30  N           1      46.310 -31.496  -5.786  0.00  0.00    -0.306 N 
HETATM   31  C           1      46.848 -32.591  -6.399  0.00  0.00     0.219 C 
HETATM   32  C           1      46.955 -32.467  -7.906  0.00  0.00     0.117 C 
HETATM   33  O           1      47.215 -33.568  -5.797  0.00  0.00    -0.274 OA
HETATM   34  H           1      46.116 -30.666  -6.328  0.00  0.00     0.171 HD
ENDBRANCH   4  30
BRANCH  12  35
HETATM   35  O           1      43.776 -29.643   3.383  0.00  0.00    -0.395 OA
HETATM   36  H           1      43.084 -30.299   3.484  0.00  0.00     0.210 HD
ENDBRANCH  12  35
TORSDOF 8
ENDMDL
