MODEL 1
REMARK VINA RESULT:     -10.0      0.000      0.000
REMARK  6 active torsions:
REMARK  status: ('A' for Active; 'I' for Inactive)
REMARK    1  A    between atoms: C_2  and  C_3 
REMARK    2  A    between atoms: C_3  and  N_4 
REMARK    3  A    between atoms: C_10  and  S_11 
REMARK    4  A    between atoms: S_11  and  C_12 
REMARK    5  A    between atoms: C_12  and  C_13 
REMARK       I    between atoms: C_13  and  N_14 
REMARK    6  A    between atoms: N_14  and  C_15 
ROOT
HETATM    1  N   UNL     1      42.697 -15.194   3.226  1.00  0.00    -0.063 N 
HETATM    2  H   UNL     1      43.152 -15.569   4.067  1.00  0.00     0.280 HD
HETATM    3  C   UNL     1      43.293 -13.809   3.006  1.00  0.00     0.281 C 
HETATM    4  C   UNL     1      42.865 -12.849   4.059  1.00  0.00     0.060 A 
HETATM    5  C   UNL     1      41.854 -13.060   4.915  1.00  0.00     0.052 A 
HETATM    6  N   UNL     1      41.544 -12.212   5.948  1.00  0.00    -0.228 NA
HETATM    7  C   UNL     1      42.279 -11.161   6.094  1.00  0.00     0.169 A 
HETATM    8  N   UNL     1      43.300 -10.825   5.263  1.00  0.00    -0.302 N 
HETATM    9  C   UNL     1      43.649 -11.609   4.208  1.00  0.00     0.257 A 
HETATM   10  O   UNL     1      44.552 -11.346   3.426  1.00  0.00    -0.267 OA
HETATM   11  C   UNL     1      41.001 -14.303   4.815  1.00  0.00     0.088 C 
HETATM   12  C   UNL     1      41.219 -15.096   3.521  1.00  0.00     0.241 C 
HETATM   13  H   UNL     1      43.820  -9.974   5.426  1.00  0.00     0.171 HD
ENDROOT
BRANCH   7  14
HETATM   14  S   UNL     1      42.067 -10.039   7.400  1.00  0.00    -0.083 SA
BRANCH  14  15
HETATM   15  C   UNL     1      43.710 -10.184   8.172  1.00  0.00     0.185 C 
BRANCH  15  16
HETATM   16  C   UNL     1      43.701 -10.097   9.690  1.00  0.00     0.231 C 
HETATM   17  N   UNL     1      42.763  -9.239  10.232  1.00  0.00    -0.326 N 
HETATM   18  H   UNL     1      42.245  -8.675   9.565  1.00  0.00     0.169 HD
HETATM   19  O   UNL     1      44.467 -10.814  10.331  1.00  0.00    -0.272 OA
BRANCH  17  20
HETATM   20  C   UNL     1      42.493  -9.010  11.597  1.00  0.00     0.037 A 
HETATM   21  C   UNL     1      43.193  -8.096  12.389  1.00  0.00     0.075 A 
HETATM   22  C   UNL     1      42.861  -7.942  13.734  1.00  0.00     0.157 A 
HETATM   23  F   UNL     1      43.545  -7.065  14.482  1.00  0.00    -0.203 F 
HETATM   24  C   UNL     1      41.837  -8.688  14.300  1.00  0.00     0.155 A 
HETATM   25  F   UNL     1      41.522  -8.536  15.593  1.00  0.00    -0.203 F 
HETATM   26  C   UNL     1      41.130  -9.601  13.528  1.00  0.00     0.048 A 
HETATM   27  C   UNL     1      41.460  -9.763  12.179  1.00  0.00     0.032 A 
ENDBRANCH  17  20
ENDBRANCH  15  16
ENDBRANCH  14  15
ENDBRANCH   7  14
BRANCH   1  28
HETATM   28  C   UNL     1      43.017 -16.162   2.113  1.00  0.00     0.273 C 
BRANCH  28  29
HETATM   29  C   UNL     1      43.222 -17.566   2.614  1.00  0.00    -0.030 A 
HETATM   30  C   UNL     1      43.074 -18.670   1.740  1.00  0.00     0.012 A 
HETATM   31  C   UNL     1      43.313 -19.975   2.184  1.00  0.00     0.040 A 
HETATM   32  C   UNL     1      43.700 -20.152   3.494  1.00  0.00     0.105 A 
HETATM   33  C   UNL     1      43.837 -19.090   4.352  1.00  0.00     0.105 A 
HETATM   34  O   UNL     1      43.988 -21.338   4.088  1.00  0.00    -0.323 OA
HETATM   35  C   UNL     1      43.599 -17.792   3.952  1.00  0.00     0.048 A 
HETATM   36  O   UNL     1      44.233 -19.473   5.594  1.00  0.00    -0.323 OA
HETATM   37  C   UNL     1      44.321 -20.906   5.424  1.00  0.00     0.352 A 
ENDBRANCH  28  29
ENDBRANCH   1  28
TORSDOF 6
ENDMDL
MODEL 2
REMARK VINA RESULT:      -9.8      5.007     11.306
REMARK  6 active torsions:
REMARK  status: ('A' for Active; 'I' for Inactive)
REMARK    1  A    between atoms: C_2  and  C_3 
REMARK    2  A    between atoms: C_3  and  N_4 
REMARK    3  A    between atoms: C_10  and  S_11 
REMARK    4  A    between atoms: S_11  and  C_12 
REMARK    5  A    between atoms: C_12  and  C_13 
REMARK       I    between atoms: C_13  and  N_14 
REMARK    6  A    between atoms: N_14  and  C_15 
ROOT
HETATM    1  N   UNL     1      44.493 -10.427   8.636  1.00  0.00    -0.063 N 
HETATM    2  H   UNL     1      44.204 -11.285   9.121  1.00  0.00     0.280 HD
HETATM    3  C   UNL     1      43.264  -9.933   7.883  1.00  0.00     0.281 C 
HETATM    4  C   UNL     1      42.908 -10.836   6.755  1.00  0.00     0.060 A 
HETATM    5  C   UNL     1      43.714 -11.784   6.256  1.00  0.00     0.052 A 
HETATM    6  N   UNL     1      43.328 -12.678   5.289  1.00  0.00    -0.228 NA
HETATM    7  C   UNL     1      42.117 -12.590   4.850  1.00  0.00     0.169 A 
HETATM    8  N   UNL     1      41.228 -11.644   5.251  1.00  0.00    -0.302 N 
HETATM    9  C   UNL     1      41.551 -10.716   6.191  1.00  0.00     0.257 A 
HETATM   10  O   UNL     1      40.792  -9.838   6.578  1.00  0.00    -0.267 OA
HETATM   11  C   UNL     1      45.122 -11.958   6.777  1.00  0.00     0.088 C 
HETATM   12  C   UNL     1      45.592 -10.805   7.672  1.00  0.00     0.241 C 
HETATM   13  H   UNL     1      40.303 -11.623   4.848  1.00  0.00     0.171 HD
ENDROOT
BRANCH   7  14
HETATM   14  S   UNL     1      41.455 -13.699   3.691  1.00  0.00    -0.083 SA
BRANCH  14  15
HETATM   15  C   UNL     1      42.943 -13.977   2.678  1.00  0.00     0.185 C 
BRANCH  15  16
HETATM   16  C   UNL     1      43.227 -15.439   2.369  1.00  0.00     0.231 C 
HETATM   17  N   UNL     1      43.298 -16.277   3.464  1.00  0.00    -0.326 N 
HETATM   18  H   UNL     1      43.257 -15.821   4.371  1.00  0.00     0.169 HD
HETATM   19  O   UNL     1      43.320 -15.789   1.194  1.00  0.00    -0.272 OA
BRANCH  17  20
HETATM   20  C   UNL     1      43.486 -17.674   3.468  1.00  0.00     0.037 A 
HETATM   21  C   UNL     1      43.245 -18.498   2.365  1.00  0.00     0.075 A 
HETATM   22  C   UNL     1      43.452 -19.873   2.463  1.00  0.00     0.157 A 
HETATM   23  F   UNL     1      43.212 -20.650   1.398  1.00  0.00    -0.203 F 
HETATM   24  C   UNL     1      43.899 -20.438   3.649  1.00  0.00     0.155 A 
HETATM   25  F   UNL     1      44.096 -21.760   3.738  1.00  0.00    -0.203 F 
HETATM   26  C   UNL     1      44.144 -19.635   4.756  1.00  0.00     0.048 A 
HETATM   27  C   UNL     1      43.936 -18.255   4.665  1.00  0.00     0.032 A 
ENDBRANCH  17  20
ENDBRANCH  15  16
ENDBRANCH  14  15
ENDBRANCH   7  14
BRANCH   1  28
HETATM   28  C   UNL     1      44.952  -9.474   9.714  1.00  0.00     0.273 C 
BRANCH  28  29
HETATM   29  C   UNL     1      44.013  -9.444  10.891  1.00  0.00    -0.030 A 
HETATM   30  C   UNL     1      43.624 -10.646  11.530  1.00  0.00     0.012 A 
HETATM   31  C   UNL     1      42.793 -10.625  12.656  1.00  0.00     0.040 A 
HETATM   32  C   UNL     1      42.369  -9.400  13.123  1.00  0.00     0.105 A 
HETATM   33  C   UNL     1      42.731  -8.231  12.505  1.00  0.00     0.105 A 
HETATM   34  O   UNL     1      41.577  -9.190  14.206  1.00  0.00    -0.323 OA
HETATM   35  C   UNL     1      43.540  -8.214  11.387  1.00  0.00     0.048 A 
HETATM   36  O   UNL     1      42.218  -7.135  13.123  1.00  0.00    -0.323 OA
HETATM   37  C   UNL     1      41.477  -7.750  14.202  1.00  0.00     0.352 A 
ENDBRANCH  28  29
ENDBRANCH   1  28
TORSDOF 6
ENDMDL
MODEL 3
REMARK VINA RESULT:      -9.7      3.316      4.265
REMARK  6 active torsions:
REMARK  status: ('A' for Active; 'I' for Inactive)
REMARK    1  A    between atoms: C_2  and  C_3 
REMARK    2  A    between atoms: C_3  and  N_4 
REMARK    3  A    between atoms: C_10  and  S_11 
REMARK    4  A    between atoms: S_11  and  C_12 
REMARK    5  A    between atoms: C_12  and  C_13 
REMARK       I    between atoms: C_13  and  N_14 
REMARK    6  A    between atoms: N_14  and  C_15 
ROOT
HETATM    1  N   UNL     1      41.946 -15.149   2.261  1.00  0.00    -0.063 N 
HETATM    2  H   UNL     1      41.999 -15.350   3.266  1.00  0.00     0.280 HD
HETATM    3  C   UNL     1      42.418 -13.710   2.093  1.00  0.00     0.281 C 
HETATM    4  C   UNL     1      41.445 -12.740   2.666  1.00  0.00     0.060 A 
HETATM    5  C   UNL     1      40.184 -13.039   3.009  1.00  0.00     0.052 A 
HETATM    6  N   UNL     1      39.338 -12.160   3.636  1.00  0.00    -0.228 NA
HETATM    7  C   UNL     1      39.799 -10.985   3.908  1.00  0.00     0.169 A 
HETATM    8  N   UNL     1      41.044 -10.559   3.571  1.00  0.00    -0.302 N 
HETATM    9  C   UNL     1      41.927 -11.371   2.931  1.00  0.00     0.257 A 
HETATM   10  O   UNL     1      43.054 -11.033   2.597  1.00  0.00    -0.267 OA
HETATM   11  C   UNL     1      39.619 -14.418   2.757  1.00  0.00     0.088 C 
HETATM   12  C   UNL     1      40.500 -15.286   1.851  1.00  0.00     0.241 C 
HETATM   13  H   UNL     1      41.330  -9.617   3.799  1.00  0.00     0.171 HD
ENDROOT
BRANCH   7  14
HETATM   14  S   UNL     1      38.881  -9.792   4.772  1.00  0.00    -0.083 SA
BRANCH  14  15
HETATM   15  C   UNL     1      39.395 -10.209   6.469  1.00  0.00     0.185 C 
BRANCH  15  16
HETATM   16  C   UNL     1      40.839  -9.858   6.792  1.00  0.00     0.231 C 
HETATM   17  N   UNL     1      41.712 -10.927   6.857  1.00  0.00    -0.326 N 
HETATM   18  H   UNL     1      41.287 -11.847   6.786  1.00  0.00     0.169 HD
HETATM   19  O   UNL     1      41.148  -8.675   6.919  1.00  0.00    -0.272 OA
BRANCH  17  20
HETATM   20  C   UNL     1      43.104 -10.889   7.076  1.00  0.00     0.037 A 
HETATM   21  C   UNL     1      43.697 -10.427   8.254  1.00  0.00     0.075 A 
HETATM   22  C   UNL     1      45.085 -10.420   8.379  1.00  0.00     0.157 A 
HETATM   23  F   UNL     1      45.639  -9.969   9.513  1.00  0.00    -0.203 F 
HETATM   24  C   UNL     1      45.892 -10.869   7.342  1.00  0.00     0.155 A 
HETATM   25  F   UNL     1      47.225 -10.859   7.467  1.00  0.00    -0.203 F 
HETATM   26  C   UNL     1      45.320 -11.332   6.164  1.00  0.00     0.048 A 
HETATM   27  C   UNL     1      43.928 -11.340   6.031  1.00  0.00     0.032 A 
ENDBRANCH  17  20
ENDBRANCH  15  16
ENDBRANCH  14  15
ENDBRANCH   7  14
BRANCH   1  28
HETATM   28  C   UNL     1      42.852 -16.152   1.588  1.00  0.00     0.273 C 
BRANCH  28  29
HETATM   29  C   UNL     1      43.307 -17.236   2.529  1.00  0.00    -0.030 A 
HETATM   30  C   UNL     1      43.715 -16.918   3.846  1.00  0.00     0.012 A 
HETATM   31  C   UNL     1      44.091 -17.923   4.745  1.00  0.00     0.040 A 
HETATM   32  C   UNL     1      44.047 -19.229   4.309  1.00  0.00     0.105 A 
HETATM   33  C   UNL     1      43.663 -19.547   3.031  1.00  0.00     0.105 A 
HETATM   34  O   UNL     1      44.359 -20.326   5.044  1.00  0.00    -0.323 OA
HETATM   35  C   UNL     1      43.297 -18.582   2.116  1.00  0.00     0.048 A 
HETATM   36  O   UNL     1      43.679 -20.886   2.801  1.00  0.00    -0.323 OA
HETATM   37  C   UNL     1      44.130 -21.379   4.084  1.00  0.00     0.352 A 
ENDBRANCH  28  29
ENDBRANCH   1  28
TORSDOF 6
ENDMDL
MODEL 4
REMARK VINA RESULT:      -9.6      4.686      5.249
REMARK  6 active torsions:
REMARK  status: ('A' for Active; 'I' for Inactive)
REMARK    1  A    between atoms: C_2  and  C_3 
REMARK    2  A    between atoms: C_3  and  N_4 
REMARK    3  A    between atoms: C_10  and  S_11 
REMARK    4  A    between atoms: S_11  and  C_12 
REMARK    5  A    between atoms: C_12  and  C_13 
REMARK       I    between atoms: C_13  and  N_14 
REMARK    6  A    between atoms: N_14  and  C_15 
ROOT
HETATM    1  N   UNL     1      42.099 -15.268   1.991  1.00  0.00    -0.063 N 
HETATM    2  H   UNL     1      41.939 -15.498   2.979  1.00  0.00     0.280 HD
HETATM    3  C   UNL     1      42.613 -13.834   1.970  1.00  0.00     0.281 C 
HETATM    4  C   UNL     1      41.555 -12.862   2.360  1.00  0.00     0.060 A 
HETATM    5  C   UNL     1      40.246 -13.148   2.424  1.00  0.00     0.052 A 
HETATM    6  N   UNL     1      39.299 -12.272   2.890  1.00  0.00    -0.228 NA
HETATM    7  C   UNL     1      39.708 -11.114   3.289  1.00  0.00     0.169 A 
HETATM    8  N   UNL     1      41.001 -10.701   3.231  1.00  0.00    -0.302 N 
HETATM    9  C   UNL     1      41.988 -11.511   2.762  1.00  0.00     0.257 A 
HETATM   10  O   UNL     1      43.163 -11.184   2.679  1.00  0.00    -0.267 OA
HETATM   11  C   UNL     1      39.729 -14.509   2.017  1.00  0.00     0.088 C 
HETATM   12  C   UNL     1      40.768 -15.367   1.286  1.00  0.00     0.241 C 
HETATM   13  H   UNL     1      41.245  -9.772   3.542  1.00  0.00     0.171 HD
ENDROOT
BRANCH   7  14
HETATM   14  S   UNL     1      38.645  -9.929   3.981  1.00  0.00    -0.083 SA
BRANCH  14  15
HETATM   15  C   UNL     1      38.392 -10.692   5.615  1.00  0.00     0.185 C 
BRANCH  15  16
HETATM   16  C   UNL     1      39.643 -11.307   6.222  1.00  0.00     0.231 C 
HETATM   17  N   UNL     1      39.892 -12.620   5.872  1.00  0.00    -0.326 N 
HETATM   18  H   UNL     1      39.165 -13.076   5.330  1.00  0.00     0.169 HD
HETATM   19  O   UNL     1      40.369 -10.605   6.925  1.00  0.00    -0.272 OA
BRANCH  17  20
HETATM   20  C   UNL     1      41.001 -13.412   6.234  1.00  0.00     0.037 A 
HETATM   21  C   UNL     1      42.319 -12.950   6.250  1.00  0.00     0.075 A 
HETATM   22  C   UNL     1      43.354 -13.808   6.615  1.00  0.00     0.157 A 
HETATM   23  F   UNL     1      44.615 -13.352   6.620  1.00  0.00    -0.203 F 
HETATM   24  C   UNL     1      43.091 -15.124   6.968  1.00  0.00     0.155 A 
HETATM   25  F   UNL     1      44.090 -15.946   7.318  1.00  0.00    -0.203 F 
HETATM   26  C   UNL     1      41.787 -15.601   6.959  1.00  0.00     0.048 A 
HETATM   27  C   UNL     1      40.743 -14.746   6.591  1.00  0.00     0.032 A 
ENDBRANCH  17  20
ENDBRANCH  15  16
ENDBRANCH  14  15
ENDBRANCH   7  14
BRANCH   1  28
HETATM   28  C   UNL     1      43.113 -16.269   1.489  1.00  0.00     0.273 C 
BRANCH  28  29
HETATM   29  C   UNL     1      43.447 -17.313   2.520  1.00  0.00    -0.030 A 
HETATM   30  C   UNL     1      43.723 -16.940   3.857  1.00  0.00     0.012 A 
HETATM   31  C   UNL     1      43.984 -17.907   4.834  1.00  0.00     0.040 A 
HETATM   32  C   UNL     1      43.961 -19.231   4.455  1.00  0.00     0.105 A 
HETATM   33  C   UNL     1      43.705 -19.603   3.160  1.00  0.00     0.105 A 
HETATM   34  O   UNL     1      44.174 -20.297   5.268  1.00  0.00    -0.323 OA
HETATM   35  C   UNL     1      43.455 -18.677   2.169  1.00  0.00     0.048 A 
HETATM   36  O   UNL     1      43.720 -20.951   2.994  1.00  0.00    -0.323 OA
HETATM   37  C   UNL     1      44.026 -21.390   4.337  1.00  0.00     0.352 A 
ENDBRANCH  28  29
ENDBRANCH   1  28
TORSDOF 6
ENDMDL
MODEL 5
REMARK VINA RESULT:      -9.5      5.901      7.999
REMARK  6 active torsions:
REMARK  status: ('A' for Active; 'I' for Inactive)
REMARK    1  A    between atoms: C_2  and  C_3 
REMARK    2  A    between atoms: C_3  and  N_4 
REMARK    3  A    between atoms: C_10  and  S_11 
REMARK    4  A    between atoms: S_11  and  C_12 
REMARK    5  A    between atoms: C_12  and  C_13 
REMARK       I    between atoms: C_13  and  N_14 
REMARK    6  A    between atoms: N_14  and  C_15 
ROOT
HETATM    1  N   UNL     1      43.088 -13.894   5.572  1.00  0.00    -0.063 N 
HETATM    2  H   UNL     1      42.975 -13.981   4.555  1.00  0.00     0.280 HD
HETATM    3  C   UNL     1      41.707 -13.564   6.124  1.00  0.00     0.281 C 
HETATM    4  C   UNL     1      41.267 -12.198   5.731  1.00  0.00     0.060 A 
HETATM    5  C   UNL     1      42.075 -11.254   5.227  1.00  0.00     0.052 A 
HETATM    6  N   UNL     1      41.631 -10.039   4.770  1.00  0.00    -0.228 NA
HETATM    7  C   UNL     1      40.362  -9.810   4.831  1.00  0.00     0.169 A 
HETATM    8  N   UNL     1      39.457 -10.674   5.360  1.00  0.00    -0.302 N 
HETATM    9  C   UNL     1      39.830 -11.887   5.849  1.00  0.00     0.257 A 
HETATM   10  O   UNL     1      39.057 -12.695   6.344  1.00  0.00    -0.267 OA
HETATM   11  C   UNL     1      43.560 -11.498   5.088  1.00  0.00     0.088 C 
HETATM   12  C   UNL     1      44.047 -12.754   5.821  1.00  0.00     0.241 C 
HETATM   13  H   UNL     1      38.480 -10.419   5.394  1.00  0.00     0.171 HD
ENDROOT
BRANCH   7  14
HETATM   14  S   UNL     1      39.638  -8.357   4.216  1.00  0.00    -0.083 SA
BRANCH  14  15
HETATM   15  C   UNL     1      39.619  -8.775   2.444  1.00  0.00     0.185 C 
BRANCH  15  16
HETATM   16  C   UNL     1      39.195 -10.204   2.140  1.00  0.00     0.231 C 
HETATM   17  N   UNL     1      40.209 -11.056   1.749  1.00  0.00    -0.326 N 
HETATM   18  H   UNL     1      41.116 -10.623   1.602  1.00  0.00     0.169 HD
HETATM   19  O   UNL     1      38.019 -10.522   2.308  1.00  0.00    -0.272 OA
BRANCH  17  20
HETATM   20  C   UNL     1      40.114 -12.434   1.467  1.00  0.00     0.037 A 
HETATM   21  C   UNL     1      40.003 -12.962   0.178  1.00  0.00     0.075 A 
HETATM   22  C   UNL     1      39.907 -14.340  -0.005  1.00  0.00     0.157 A 
HETATM   23  F   UNL     1      39.795 -14.831  -1.247  1.00  0.00    -0.203 F 
HETATM   24  C   UNL     1      39.922 -15.202   1.083  1.00  0.00     0.155 A 
HETATM   25  F   UNL     1      39.829 -16.525   0.902  1.00  0.00    -0.203 F 
HETATM   26  C   UNL     1      40.033 -14.695   2.372  1.00  0.00     0.048 A 
HETATM   27  C   UNL     1      40.127 -13.313   2.563  1.00  0.00     0.032 A 
ENDBRANCH  17  20
ENDBRANCH  15  16
ENDBRANCH  14  15
ENDBRANCH   7  14
BRANCH   1  28
HETATM   28  C   UNL     1      43.615 -15.226   6.048  1.00  0.00     0.273 C 
BRANCH  28  29
HETATM   29  C   UNL     1      43.521 -16.292   4.989  1.00  0.00    -0.030 A 
HETATM   30  C   UNL     1      43.165 -15.955   3.661  1.00  0.00     0.012 A 
HETATM   31  C   UNL     1      43.125 -16.930   2.658  1.00  0.00     0.040 A 
HETATM   32  C   UNL     1      43.445 -18.224   3.002  1.00  0.00     0.105 A 
HETATM   33  C   UNL     1      43.782 -18.564   4.288  1.00  0.00     0.105 A 
HETATM   34  O   UNL     1      43.475 -19.290   2.161  1.00  0.00    -0.323 OA
HETATM   35  C   UNL     1      43.821 -17.631   5.304  1.00  0.00     0.048 A 
HETATM   36  O   UNL     1      44.071 -19.885   4.419  1.00  0.00    -0.323 OA
HETATM   37  C   UNL     1      43.868 -20.345   3.063  1.00  0.00     0.352 A 
ENDBRANCH  28  29
ENDBRANCH   1  28
TORSDOF 6
ENDMDL
MODEL 6
REMARK VINA RESULT:      -9.1      5.324     13.397
REMARK  6 active torsions:
REMARK  status: ('A' for Active; 'I' for Inactive)
REMARK    1  A    between atoms: C_2  and  C_3 
REMARK    2  A    between atoms: C_3  and  N_4 
REMARK    3  A    between atoms: C_10  and  S_11 
REMARK    4  A    between atoms: S_11  and  C_12 
REMARK    5  A    between atoms: C_12  and  C_13 
REMARK       I    between atoms: C_13  and  N_14 
REMARK    6  A    between atoms: N_14  and  C_15 
ROOT
HETATM    1  N   UNL     1      41.425  -7.461  15.682  1.00  0.00    -0.063 N 
HETATM    2  H   UNL     1      42.205  -7.926  16.162  1.00  0.00     0.280 HD
HETATM    3  C   UNL     1      40.812  -8.509  14.761  1.00  0.00     0.281 C 
HETATM    4  C   UNL     1      41.722  -8.855  13.635  1.00  0.00     0.060 A 
HETATM    5  C   UNL     1      42.800  -8.140  13.281  1.00  0.00     0.052 A 
HETATM    6  N   UNL     1      43.688  -8.533  12.311  1.00  0.00    -0.228 NA
HETATM    7  C   UNL     1      43.460  -9.658  11.720  1.00  0.00     0.169 A 
HETATM    8  N   UNL     1      42.379 -10.443  11.968  1.00  0.00    -0.302 N 
HETATM    9  C   UNL     1      41.450 -10.105  12.902  1.00  0.00     0.257 A 
HETATM   10  O   UNL     1      40.455 -10.770  13.154  1.00  0.00    -0.267 OA
HETATM   11  C   UNL     1      43.134  -6.843  13.981  1.00  0.00     0.088 C 
HETATM   12  C   UNL     1      42.007  -6.322  14.879  1.00  0.00     0.241 C 
HETATM   13  H   UNL     1      42.255 -11.302  11.451  1.00  0.00     0.171 HD
ENDROOT
BRANCH   7  14
HETATM   14  S   UNL     1      44.533 -10.331  10.535  1.00  0.00    -0.083 SA
BRANCH  14  15
HETATM   15  C   UNL     1      43.486 -10.136   9.057  1.00  0.00     0.185 C 
BRANCH  15  16
HETATM   16  C   UNL     1      43.864 -11.041   7.895  1.00  0.00     0.231 C 
HETATM   17  N   UNL     1      42.886 -11.219   6.937  1.00  0.00    -0.326 N 
HETATM   18  H   UNL     1      41.979 -10.815   7.152  1.00  0.00     0.169 HD
HETATM   19  O   UNL     1      45.002 -11.505   7.849  1.00  0.00    -0.272 OA
BRANCH  17  20
HETATM   20  C   UNL     1      42.982 -11.950   5.734  1.00  0.00     0.037 A 
HETATM   21  C   UNL     1      42.710 -13.316   5.627  1.00  0.00     0.075 A 
HETATM   22  C   UNL     1      42.839 -13.958   4.396  1.00  0.00     0.157 A 
HETATM   23  F   UNL     1      42.579 -15.270   4.310  1.00  0.00    -0.203 F 
HETATM   24  C   UNL     1      43.235 -13.253   3.269  1.00  0.00     0.155 A 
HETATM   25  F   UNL     1      43.359 -13.875   2.089  1.00  0.00    -0.203 F 
HETATM   26  C   UNL     1      43.510 -11.894   3.356  1.00  0.00     0.048 A 
HETATM   27  C   UNL     1      43.385 -11.244   4.589  1.00  0.00     0.032 A 
ENDBRANCH  17  20
ENDBRANCH  15  16
ENDBRANCH  14  15
ENDBRANCH   7  14
BRANCH   1  28
HETATM   28  C   UNL     1      40.483  -7.001  16.768  1.00  0.00     0.273 C 
BRANCH  28  29
HETATM   29  C   UNL     1      40.821  -7.593  18.110  1.00  0.00    -0.030 A 
HETATM   30  C   UNL     1      39.822  -8.225  18.889  1.00  0.00     0.012 A 
HETATM   31  C   UNL     1      40.137  -8.823  20.114  1.00  0.00     0.040 A 
HETATM   32  C   UNL     1      41.448  -8.781  20.535  1.00  0.00     0.105 A 
HETATM   33  C   UNL     1      42.422  -8.163  19.793  1.00  0.00     0.105 A 
HETATM   34  O   UNL     1      41.935  -9.320  21.683  1.00  0.00    -0.323 OA
HETATM   35  C   UNL     1      42.146  -7.554  18.587  1.00  0.00     0.048 A 
HETATM   36  O   UNL     1      43.647  -8.239  20.376  1.00  0.00    -0.323 OA
HETATM   37  C   UNL     1      43.332  -8.970  21.583  1.00  0.00     0.352 A 
ENDBRANCH  28  29
ENDBRANCH   1  28
TORSDOF 6
ENDMDL
MODEL 7
REMARK VINA RESULT:      -9.1      1.655      2.149
REMARK  6 active torsions:
REMARK  status: ('A' for Active; 'I' for Inactive)
REMARK    1  A    between atoms: C_2  and  C_3 
REMARK    2  A    between atoms: C_3  and  N_4 
REMARK    3  A    between atoms: C_10  and  S_11 
REMARK    4  A    between atoms: S_11  and  C_12 
REMARK    5  A    between atoms: C_12  and  C_13 
REMARK       I    between atoms: C_13  and  N_14 
REMARK    6  A    between atoms: N_14  and  C_15 
ROOT
HETATM    1  N   UNL     1      42.142 -14.807   2.650  1.00  0.00    -0.063 N 
HETATM    2  H   UNL     1      42.047 -15.181   3.601  1.00  0.00     0.280 HD
HETATM    3  C   UNL     1      43.003 -13.555   2.773  1.00  0.00     0.281 C 
HETATM    4  C   UNL     1      42.287 -12.459   3.480  1.00  0.00     0.060 A 
HETATM    5  C   UNL     1      40.966 -12.439   3.711  1.00  0.00     0.052 A 
HETATM    6  N   UNL     1      40.340 -11.474   4.459  1.00  0.00    -0.228 NA
HETATM    7  C   UNL     1      41.079 -10.543   4.964  1.00  0.00     0.169 A 
HETATM    8  N   UNL     1      42.419 -10.440   4.760  1.00  0.00    -0.302 N 
HETATM    9  C   UNL     1      43.099 -11.351   4.014  1.00  0.00     0.257 A 
HETATM   10  O   UNL     1      44.301 -11.297   3.793  1.00  0.00    -0.267 OA
HETATM   11  C   UNL     1      40.070 -13.536   3.183  1.00  0.00     0.088 C 
HETATM   12  C   UNL     1      40.756 -14.454   2.166  1.00  0.00     0.241 C 
HETATM   13  H   UNL     1      42.930  -9.672   5.171  1.00  0.00     0.171 HD
ENDROOT
BRANCH   7  14
HETATM   14  S   UNL     1      40.450  -9.301   6.000  1.00  0.00    -0.083 SA
BRANCH  14  15
HETATM   15  C   UNL     1      41.988  -8.373   6.300  1.00  0.00     0.185 C 
BRANCH  15  16
HETATM   16  C   UNL     1      42.322  -8.170   7.770  1.00  0.00     0.231 C 
HETATM   17  N   UNL     1      41.668  -9.010   8.651  1.00  0.00    -0.326 N 
HETATM   18  H   UNL     1      40.955  -9.607   8.243  1.00  0.00     0.169 HD
HETATM   19  O   UNL     1      43.169  -7.334   8.076  1.00  0.00    -0.272 OA
BRANCH  17  20
HETATM   20  C   UNL     1      41.830  -9.085  10.050  1.00  0.00     0.037 A 
HETATM   21  C   UNL     1      40.956  -8.500  10.969  1.00  0.00     0.075 A 
HETATM   22  C   UNL     1      41.200  -8.619  12.336  1.00  0.00     0.157 A 
HETATM   23  F   UNL     1      40.355  -8.048  13.206  1.00  0.00    -0.203 F 
HETATM   24  C   UNL     1      42.307  -9.317  12.799  1.00  0.00     0.155 A 
HETATM   25  F   UNL     1      42.537  -9.428  14.114  1.00  0.00    -0.203 F 
HETATM   26  C   UNL     1      43.186  -9.905  11.900  1.00  0.00     0.048 A 
HETATM   27  C   UNL     1      42.949  -9.787  10.527  1.00  0.00     0.032 A 
ENDBRANCH  17  20
ENDBRANCH  15  16
ENDBRANCH  14  15
ENDBRANCH   7  14
BRANCH   1  28
HETATM   28  C   UNL     1      42.795 -15.899   1.836  1.00  0.00     0.273 C 
BRANCH  28  29
HETATM   29  C   UNL     1      43.254 -17.052   2.688  1.00  0.00    -0.030 A 
HETATM   30  C   UNL     1      43.684 -16.835   4.019  1.00  0.00     0.012 A 
HETATM   31  C   UNL     1      44.065 -17.906   4.835  1.00  0.00     0.040 A 
HETATM   32  C   UNL     1      44.004 -19.176   4.304  1.00  0.00     0.105 A 
HETATM   33  C   UNL     1      43.599 -19.396   3.013  1.00  0.00     0.105 A 
HETATM   34  O   UNL     1      44.317 -20.327   4.952  1.00  0.00    -0.323 OA
HETATM   35  C   UNL     1      43.227 -18.364   2.177  1.00  0.00     0.048 A 
HETATM   36  O   UNL     1      43.600 -20.715   2.684  1.00  0.00    -0.323 OA
HETATM   37  C   UNL     1      44.066 -21.304   3.920  1.00  0.00     0.352 A 
ENDBRANCH  28  29
ENDBRANCH   1  28
TORSDOF 6
ENDMDL
MODEL 8
REMARK VINA RESULT:      -9.0      1.705      2.037
REMARK  6 active torsions:
REMARK  status: ('A' for Active; 'I' for Inactive)
REMARK    1  A    between atoms: C_2  and  C_3 
REMARK    2  A    between atoms: C_3  and  N_4 
REMARK    3  A    between atoms: C_10  and  S_11 
REMARK    4  A    between atoms: S_11  and  C_12 
REMARK    5  A    between atoms: C_12  and  C_13 
REMARK       I    between atoms: C_13  and  N_14 
REMARK    6  A    between atoms: N_14  and  C_15 
ROOT
HETATM    1  N   UNL     1      42.699 -14.997   4.721  1.00  0.00    -0.063 N 
HETATM    2  H   UNL     1      43.595 -15.457   4.921  1.00  0.00     0.280 HD
HETATM    3  C   UNL     1      43.042 -13.592   4.242  1.00  0.00     0.281 C 
HETATM    4  C   UNL     1      43.596 -12.754   5.341  1.00  0.00     0.060 A 
HETATM    5  C   UNL     1      43.525 -13.063   6.644  1.00  0.00     0.052 A 
HETATM    6  N   UNL     1      44.136 -12.334   7.632  1.00  0.00    -0.228 NA
HETATM    7  C   UNL     1      44.816 -11.298   7.270  1.00  0.00     0.169 A 
HETATM    8  N   UNL     1      44.922 -10.867   5.986  1.00  0.00    -0.302 N 
HETATM    9  C   UNL     1      44.326 -11.531   4.959  1.00  0.00     0.257 A 
HETATM   10  O   UNL     1      44.382 -11.178   3.790  1.00  0.00    -0.267 OA
HETATM   11  C   UNL     1      42.783 -14.296   7.108  1.00  0.00     0.088 C 
HETATM   12  C   UNL     1      41.924 -14.943   6.016  1.00  0.00     0.241 C 
HETATM   13  H   UNL     1      45.455 -10.035   5.779  1.00  0.00     0.171 HD
ENDROOT
BRANCH   7  14
HETATM   14  S   UNL     1      45.714 -10.325   8.392  1.00  0.00    -0.083 SA
BRANCH  14  15
HETATM   15  C   UNL     1      44.876 -10.817   9.932  1.00  0.00     0.185 C 
BRANCH  15  16
HETATM   16  C   UNL     1      43.814  -9.838  10.410  1.00  0.00     0.231 C 
HETATM   17  N   UNL     1      42.766 -10.395  11.116  1.00  0.00    -0.326 N 
HETATM   18  H   UNL     1      42.752 -11.409  11.158  1.00  0.00     0.169 HD
HETATM   19  O   UNL     1      43.973  -8.638  10.195  1.00  0.00    -0.272 OA
BRANCH  17  20
HETATM   20  C   UNL     1      41.685  -9.723  11.724  1.00  0.00     0.037 A 
HETATM   21  C   UNL     1      41.664  -9.332  13.066  1.00  0.00     0.075 A 
HETATM   22  C   UNL     1      40.547  -8.678  13.583  1.00  0.00     0.157 A 
HETATM   23  F   UNL     1      40.539  -8.314  14.873  1.00  0.00    -0.203 F 
HETATM   24  C   UNL     1      39.449  -8.408  12.778  1.00  0.00     0.155 A 
HETATM   25  F   UNL     1      38.378  -7.780  13.280  1.00  0.00    -0.203 F 
HETATM   26  C   UNL     1      39.453  -8.789  11.442  1.00  0.00     0.048 A 
HETATM   27  C   UNL     1      40.569  -9.448  10.917  1.00  0.00     0.032 A 
ENDBRANCH  17  20
ENDBRANCH  15  16
ENDBRANCH  14  15
ENDBRANCH   7  14
BRANCH   1  28
HETATM   28  C   UNL     1      42.027 -15.838   3.662  1.00  0.00     0.273 C 
BRANCH  28  29
HETATM   29  C   UNL     1      42.584 -17.235   3.599  1.00  0.00    -0.030 A 
HETATM   30  C   UNL     1      42.672 -17.917   2.362  1.00  0.00     0.012 A 
HETATM   31  C   UNL     1      43.236 -19.196   2.285  1.00  0.00     0.040 A 
HETATM   32  C   UNL     1      43.704 -19.766   3.448  1.00  0.00     0.105 A 
HETATM   33  C   UNL     1      43.615 -19.117   4.653  1.00  0.00     0.105 A 
HETATM   34  O   UNL     1      44.293 -20.985   3.558  1.00  0.00    -0.323 OA
HETATM   35  C   UNL     1      43.055 -17.862   4.768  1.00  0.00     0.048 A 
HETATM   36  O   UNL     1      44.140 -19.843   5.675  1.00  0.00    -0.323 OA
HETATM   37  C   UNL     1      44.564 -21.035   4.975  1.00  0.00     0.352 A 
ENDBRANCH  28  29
ENDBRANCH   1  28
TORSDOF 6
ENDMDL
MODEL 9
REMARK VINA RESULT:      -8.9      6.658      9.624
REMARK  6 active torsions:
REMARK  status: ('A' for Active; 'I' for Inactive)
REMARK    1  A    between atoms: C_2  and  C_3 
REMARK    2  A    between atoms: C_3  and  N_4 
REMARK    3  A    between atoms: C_10  and  S_11 
REMARK    4  A    between atoms: S_11  and  C_12 
REMARK    5  A    between atoms: C_12  and  C_13 
REMARK       I    between atoms: C_13  and  N_14 
REMARK    6  A    between atoms: N_14  and  C_15 
ROOT
HETATM    1  N   UNL     1      40.983 -13.420   3.701  1.00  0.00    -0.063 N 
HETATM    2  H   UNL     1      41.380 -13.740   2.810  1.00  0.00     0.280 HD
HETATM    3  C   UNL     1      39.676 -12.719   3.352  1.00  0.00     0.281 C 
HETATM    4  C   UNL     1      39.911 -11.441   2.626  1.00  0.00     0.060 A 
HETATM    5  C   UNL     1      41.095 -10.816   2.549  1.00  0.00     0.052 A 
HETATM    6  N   UNL     1      41.316  -9.698   1.786  1.00  0.00    -0.228 NA
HETATM    7  C   UNL     1      40.319  -9.238   1.106  1.00  0.00     0.169 A 
HETATM    8  N   UNL     1      39.066  -9.763   1.141  1.00  0.00    -0.302 N 
HETATM    9  C   UNL     1      38.772 -10.859   1.891  1.00  0.00     0.257 A 
HETATM   10  O   UNL     1      37.661 -11.363   1.965  1.00  0.00    -0.267 OA
HETATM   11  C   UNL     1      42.302 -11.350   3.286  1.00  0.00     0.088 C 
HETATM   12  C   UNL     1      41.965 -12.445   4.304  1.00  0.00     0.241 C 
HETATM   13  H   UNL     1      38.329  -9.336   0.598  1.00  0.00     0.171 HD
ENDROOT
BRANCH   7  14
HETATM   14  S   UNL     1      40.460  -7.883   0.030  1.00  0.00    -0.083 SA
BRANCH  14  15
HETATM   15  C   UNL     1      40.830  -8.780  -1.511  1.00  0.00     0.185 C 
BRANCH  15  16
HETATM   16  C   UNL     1      40.000 -10.037  -1.722  1.00  0.00     0.231 C 
HETATM   17  N   UNL     1      40.686 -11.230  -1.608  1.00  0.00    -0.326 N 
HETATM   18  H   UNL     1      41.692 -11.151  -1.500  1.00  0.00     0.169 HD
HETATM   19  O   UNL     1      38.791  -9.923  -1.920  1.00  0.00    -0.272 OA
BRANCH  17  20
HETATM   20  C   UNL     1      40.161 -12.536  -1.694  1.00  0.00     0.037 A 
HETATM   21  C   UNL     1      40.141 -13.441  -0.629  1.00  0.00     0.075 A 
HETATM   22  C   UNL     1      39.608 -14.716  -0.808  1.00  0.00     0.157 A 
HETATM   23  F   UNL     1      39.601 -15.574   0.222  1.00  0.00    -0.203 F 
HETATM   24  C   UNL     1      39.091 -15.101  -2.037  1.00  0.00     0.155 A 
HETATM   25  F   UNL     1      38.581 -16.328  -2.204  1.00  0.00    -0.203 F 
HETATM   26  C   UNL     1      39.103 -14.215  -3.107  1.00  0.00     0.048 A 
HETATM   27  C   UNL     1      39.639 -12.935  -2.935  1.00  0.00     0.032 A 
ENDBRANCH  17  20
ENDBRANCH  15  16
ENDBRANCH  14  15
ENDBRANCH   7  14
BRANCH   1  28
HETATM   28  C   UNL     1      40.787 -14.660   4.539  1.00  0.00     0.273 C 
BRANCH  28  29
HETATM   29  C   UNL     1      41.648 -15.806   4.079  1.00  0.00    -0.030 A 
HETATM   30  C   UNL     1      41.761 -16.111   2.702  1.00  0.00     0.012 A 
HETATM   31  C   UNL     1      42.599 -17.142   2.261  1.00  0.00     0.040 A 
HETATM   32  C   UNL     1      43.312 -17.845   3.207  1.00  0.00     0.105 A 
HETATM   33  C   UNL     1      43.201 -17.563   4.545  1.00  0.00     0.105 A 
HETATM   34  O   UNL     1      44.179 -18.859   2.960  1.00  0.00    -0.323 OA
HETATM   35  C   UNL     1      42.377 -16.563   5.016  1.00  0.00     0.048 A 
HETATM   36  O   UNL     1      43.990 -18.362   5.311  1.00  0.00    -0.323 OA
HETATM   37  C   UNL     1      44.606 -19.191   4.298  1.00  0.00     0.352 A 
ENDBRANCH  28  29
ENDBRANCH   1  28
TORSDOF 6
ENDMDL
MODEL 10
REMARK VINA RESULT:      -8.8      4.855     11.600
REMARK  6 active torsions:
REMARK  status: ('A' for Active; 'I' for Inactive)
REMARK    1  A    between atoms: C_2  and  C_3 
REMARK    2  A    between atoms: C_3  and  N_4 
REMARK    3  A    between atoms: C_10  and  S_11 
REMARK    4  A    between atoms: S_11  and  C_12 
REMARK    5  A    between atoms: C_12  and  C_13 
REMARK       I    between atoms: C_13  and  N_14 
REMARK    6  A    between atoms: N_14  and  C_15 
ROOT
HETATM    1  N   UNL     1      43.100  -7.735   8.446  1.00  0.00    -0.063 N 
HETATM    2  H   UNL     1      43.358  -7.335   7.537  1.00  0.00     0.280 HD
HETATM    3  C   UNL     1      43.958  -8.983   8.617  1.00  0.00     0.281 C 
HETATM    4  C   UNL     1      43.563 -10.059   7.668  1.00  0.00     0.060 A 
HETATM    5  C   UNL     1      42.420 -10.073   6.966  1.00  0.00     0.052 A 
HETATM    6  N   UNL     1      42.123 -11.017   6.016  1.00  0.00    -0.228 NA
HETATM    7  C   UNL     1      43.006 -11.934   5.796  1.00  0.00     0.169 A 
HETATM    8  N   UNL     1      44.177 -12.043   6.475  1.00  0.00    -0.302 N 
HETATM    9  C   UNL     1      44.526 -11.153   7.443  1.00  0.00     0.257 A 
HETATM   10  O   UNL     1      45.562 -11.213   8.090  1.00  0.00    -0.267 OA
HETATM   11  C   UNL     1      41.382  -8.991   7.154  1.00  0.00     0.088 C 
HETATM   12  C   UNL     1      41.636  -8.101   8.377  1.00  0.00     0.241 C 
HETATM   13  H   UNL     1      44.812 -12.799   6.263  1.00  0.00     0.171 HD
ENDROOT
BRANCH   7  14
HETATM   14  S   UNL     1      42.815 -13.147   4.570  1.00  0.00    -0.083 SA
BRANCH  14  15
HETATM   15  C   UNL     1      41.900 -14.390   5.537  1.00  0.00     0.185 C 
BRANCH  15  16
HETATM   16  C   UNL     1      41.896 -15.783   4.926  1.00  0.00     0.231 C 
HETATM   17  N   UNL     1      43.134 -16.381   4.798  1.00  0.00    -0.326 N 
HETATM   18  H   UNL     1      43.932 -15.795   5.027  1.00  0.00     0.169 HD
HETATM   19  O   UNL     1      40.818 -16.302   4.640  1.00  0.00    -0.272 OA
BRANCH  17  20
HETATM   20  C   UNL     1      43.418 -17.679   4.327  1.00  0.00     0.037 A 
HETATM   21  C   UNL     1      43.937 -18.703   5.124  1.00  0.00     0.075 A 
HETATM   22  C   UNL     1      44.194 -19.955   4.569  1.00  0.00     0.157 A 
HETATM   23  F   UNL     1      44.696 -20.926   5.345  1.00  0.00    -0.203 F 
HETATM   24  C   UNL     1      43.939 -20.201   3.227  1.00  0.00     0.155 A 
HETATM   25  F   UNL     1      44.189 -21.406   2.699  1.00  0.00    -0.203 F 
HETATM   26  C   UNL     1      43.424 -19.195   2.420  1.00  0.00     0.048 A 
HETATM   27  C   UNL     1      43.166 -17.935   2.969  1.00  0.00     0.032 A 
ENDBRANCH  17  20
ENDBRANCH  15  16
ENDBRANCH  14  15
ENDBRANCH   7  14
BRANCH   1  28
HETATM   28  C   UNL     1      43.396  -6.666   9.470  1.00  0.00     0.273 C 
BRANCH  28  29
HETATM   29  C   UNL     1      42.604  -6.850  10.737  1.00  0.00    -0.030 A 
HETATM   30  C   UNL     1      41.424  -6.101  10.961  1.00  0.00     0.012 A 
HETATM   31  C   UNL     1      40.653  -6.301  12.111  1.00  0.00     0.040 A 
HETATM   32  C   UNL     1      41.075  -7.250  13.015  1.00  0.00     0.105 A 
HETATM   33  C   UNL     1      42.223  -7.974  12.814  1.00  0.00     0.105 A 
HETATM   34  O   UNL     1      40.447  -7.586  14.171  1.00  0.00    -0.323 OA
HETATM   35  C   UNL     1      43.013  -7.795  11.697  1.00  0.00     0.048 A 
HETATM   36  O   UNL     1      42.461  -8.862  13.814  1.00  0.00    -0.323 OA
HETATM   37  C   UNL     1      41.331  -8.607  14.681  1.00  0.00     0.352 A 
ENDBRANCH  28  29
ENDBRANCH   1  28
TORSDOF 6
ENDMDL
