MODEL 1
REMARK VINA RESULT:      -9.5      0.000      0.000
REMARK  6 active torsions:
REMARK  status: ('A' for Active; 'I' for Inactive)
REMARK    1  A    between atoms: O_2  and  C_3 
REMARK    2  A    between atoms: C_4  and  C_5 
REMARK    3  A    between atoms: C_5  and  N_6 
REMARK       I    between atoms: N_6  and  C_7 
REMARK    4  A    between atoms: C_7  and  C_8 
REMARK    5  A    between atoms: C_8  and  O_9 
REMARK    6  A    between atoms: N_10  and  C_11 
ROOT
HETATM    1  C   UNL     1      40.368 -14.584   2.395  1.00  0.00     0.256 C 
HETATM    2  N   UNL     1      40.283 -13.818   3.653  1.00  0.00    -0.254 N 
HETATM    3  C   UNL     1      39.515 -12.665   3.732  1.00  0.00     0.330 C 
HETATM    4  O   UNL     1      39.228 -12.068   4.771  1.00  0.00    -0.246 OA
HETATM    5  N   UNL     1      39.000 -12.155   2.581  1.00  0.00    -0.308 N 
HETATM    6  C   UNL     1      39.172 -12.672   1.311  1.00  0.00     0.048 A 
HETATM    7  C   UNL     1      39.850 -13.871   1.162  1.00  0.00     0.034 A 
HETATM    8  C   UNL     1      38.647 -11.986   0.213  1.00  0.00     0.030 A 
HETATM    9  C   UNL     1      38.808 -12.506  -1.069  1.00  0.00     0.002 A 
HETATM   10  C   UNL     1      39.477 -13.713  -1.245  1.00  0.00     0.001 A 
HETATM   11  C   UNL     1      39.986 -14.395  -0.138  1.00  0.00     0.015 A 
HETATM   12  H   UNL     1      38.479 -11.297   2.710  1.00  0.00     0.170 HD
ENDROOT
BRANCH   1  13
HETATM   13  C   UNL     1      41.882 -14.997   2.119  1.00  0.00     0.279 C 
HETATM   14  N   UNL     1      42.086 -16.372   2.149  1.00  0.00    -0.352 N 
HETATM   15  H   UNL     1      41.316 -16.936   2.497  1.00  0.00     0.162 HD
HETATM   16  O   UNL     1      42.779 -14.190   1.880  1.00  0.00    -0.268 OA
BRANCH  14  17
HETATM   17  C   UNL     1      43.402 -16.963   2.039  1.00  0.00     0.164 C 
BRANCH  17  18
HETATM   18  C   UNL     1      43.559 -18.285   2.760  1.00  0.00    -0.007 A 
HETATM   19  C   UNL     1      43.880 -18.272   4.134  1.00  0.00     0.076 A 
HETATM   20  C   UNL     1      44.050 -19.477   4.825  1.00  0.00     0.037 A 
HETATM   21  C   UNL     1      43.911 -20.697   4.163  1.00  0.00     0.003 A 
HETATM   22  C   UNL     1      43.593 -20.721   2.810  1.00  0.00     0.001 A 
HETATM   23  C   UNL     1      43.416 -19.525   2.113  1.00  0.00     0.011 A 
BRANCH  19  24
HETATM   24  O   UNL     1      43.986 -17.030   4.708  1.00  0.00    -0.355 OA
HETATM   25  C   UNL     1      44.967 -16.867   5.726  1.00  0.00     0.210 C 
ENDBRANCH  19  24
ENDBRANCH  17  18
ENDBRANCH  14  17
ENDBRANCH   1  13
BRANCH   1  26
HETATM   26  O   UNL     1      39.518 -15.726   2.549  1.00  0.00    -0.359 OA
HETATM   27  H   UNL     1      39.822 -16.324   1.845  1.00  0.00     0.213 HD
ENDBRANCH   1  26
BRANCH   2  28
HETATM   28  C   UNL     1      41.019 -14.269   4.821  1.00  0.00     0.043 A 
HETATM   29  C   UNL     1      42.132 -13.573   5.323  1.00  0.00     0.031 A 
HETATM   30  C   UNL     1      42.805 -14.005   6.475  1.00  0.00     0.026 A 
HETATM   31  C   UNL     1      42.371 -15.138   7.150  1.00  0.00     0.034 A 
HETATM   32 CL   UNL     1      43.192 -15.661   8.568  1.00  0.00    -0.084 Cl
HETATM   33  C   UNL     1      41.273 -15.845   6.682  1.00  0.00     0.026 A 
HETATM   34  C   UNL     1      40.606 -15.412   5.528  1.00  0.00     0.031 A 
ENDBRANCH   2  28
TORSDOF 6
ENDMDL
MODEL 2
REMARK VINA RESULT:      -9.3      2.256      6.461
REMARK  6 active torsions:
REMARK  status: ('A' for Active; 'I' for Inactive)
REMARK    1  A    between atoms: O_2  and  C_3 
REMARK    2  A    between atoms: C_4  and  C_5 
REMARK    3  A    between atoms: C_5  and  N_6 
REMARK       I    between atoms: N_6  and  C_7 
REMARK    4  A    between atoms: C_7  and  C_8 
REMARK    5  A    between atoms: C_8  and  O_9 
REMARK    6  A    between atoms: N_10  and  C_11 
ROOT
HETATM    1  C   UNL     1      42.846 -16.079   3.239  1.00  0.00     0.256 C 
HETATM    2  N   UNL     1      43.059 -15.381   4.521  1.00  0.00    -0.254 N 
HETATM    3  C   UNL     1      43.785 -15.977   5.542  1.00  0.00     0.330 C 
HETATM    4  O   UNL     1      44.177 -15.411   6.564  1.00  0.00    -0.246 OA
HETATM    5  N   UNL     1      44.132 -17.285   5.407  1.00  0.00    -0.308 N 
HETATM    6  C   UNL     1      43.822 -18.104   4.338  1.00  0.00     0.048 A 
HETATM    7  C   UNL     1      43.177 -17.558   3.239  1.00  0.00     0.034 A 
HETATM    8  C   UNL     1      44.177 -19.455   4.382  1.00  0.00     0.030 A 
HETATM    9  C   UNL     1      43.877 -20.284   3.304  1.00  0.00     0.002 A 
HETATM   10  C   UNL     1      43.238 -19.758   2.186  1.00  0.00     0.001 A 
HETATM   11  C   UNL     1      42.899 -18.404   2.149  1.00  0.00     0.015 A 
HETATM   12  H   UNL     1      44.631 -17.661   6.202  1.00  0.00     0.170 HD
ENDROOT
BRANCH   1  13
HETATM   13  C   UNL     1      41.326 -15.920   2.786  1.00  0.00     0.279 C 
HETATM   14  N   UNL     1      41.188 -15.299   1.551  1.00  0.00    -0.352 N 
HETATM   15  H   UNL     1      42.025 -14.877   1.160  1.00  0.00     0.162 HD
HETATM   16  O   UNL     1      40.370 -16.324   3.447  1.00  0.00    -0.268 OA
BRANCH  14  17
HETATM   17  C   UNL     1      39.896 -14.950   0.999  1.00  0.00     0.164 C 
BRANCH  17  18
HETATM   18  C   UNL     1      39.953 -14.274  -0.355  1.00  0.00    -0.007 A 
HETATM   19  C   UNL     1      40.608 -13.029  -0.461  1.00  0.00     0.076 A 
HETATM   20  C   UNL     1      40.663 -12.369  -1.695  1.00  0.00     0.037 A 
HETATM   21  C   UNL     1      40.067 -12.932  -2.823  1.00  0.00     0.003 A 
HETATM   22  C   UNL     1      39.422 -14.160  -2.729  1.00  0.00     0.001 A 
HETATM   23  C   UNL     1      39.366 -14.827  -1.506  1.00  0.00     0.011 A 
BRANCH  19  24
HETATM   24  O   UNL     1      41.176 -12.555   0.695  1.00  0.00    -0.355 OA
HETATM   25  C   UNL     1      41.270 -11.142   0.840  1.00  0.00     0.210 C 
ENDBRANCH  19  24
ENDBRANCH  17  18
ENDBRANCH  14  17
ENDBRANCH   1  13
BRANCH   1  26
HETATM   26  O   UNL     1      43.752 -15.495   2.296  1.00  0.00    -0.359 OA
HETATM   27  H   UNL     1      43.462 -14.567   2.257  1.00  0.00     0.213 HD
ENDBRANCH   1  26
BRANCH   2  28
HETATM   28  C   UNL     1      42.493 -14.059   4.723  1.00  0.00     0.043 A 
HETATM   29  C   UNL     1      41.393 -13.832   5.568  1.00  0.00     0.031 A 
HETATM   30  C   UNL     1      40.887 -12.541   5.779  1.00  0.00     0.026 A 
HETATM   31  C   UNL     1      41.478 -11.452   5.151  1.00  0.00     0.034 A 
HETATM   32 CL   UNL     1      40.861  -9.868   5.418  1.00  0.00    -0.084 Cl
HETATM   33  C   UNL     1      42.566 -11.643   4.313  1.00  0.00     0.026 A 
HETATM   34  C   UNL     1      43.066 -12.934   4.103  1.00  0.00     0.031 A 
ENDBRANCH   2  28
TORSDOF 6
ENDMDL
MODEL 3
REMARK VINA RESULT:      -9.0      2.567      6.997
REMARK  6 active torsions:
REMARK  status: ('A' for Active; 'I' for Inactive)
REMARK    1  A    between atoms: O_2  and  C_3 
REMARK    2  A    between atoms: C_4  and  C_5 
REMARK    3  A    between atoms: C_5  and  N_6 
REMARK       I    between atoms: N_6  and  C_7 
REMARK    4  A    between atoms: C_7  and  C_8 
REMARK    5  A    between atoms: C_8  and  O_9 
REMARK    6  A    between atoms: N_10  and  C_11 
ROOT
HETATM    1  C   UNL     1      42.656 -15.337   2.738  1.00  0.00     0.256 C 
HETATM    2  N   UNL     1      42.564 -14.379   3.857  1.00  0.00    -0.254 N 
HETATM    3  C   UNL     1      43.138 -14.667   5.087  1.00  0.00     0.330 C 
HETATM    4  O   UNL     1      43.282 -13.866   6.012  1.00  0.00    -0.246 OA
HETATM    5  N   UNL     1      43.617 -15.922   5.296  1.00  0.00    -0.308 N 
HETATM    6  C   UNL     1      43.585 -16.968   4.393  1.00  0.00     0.048 A 
HETATM    7  C   UNL     1      43.110 -16.734   3.112  1.00  0.00     0.034 A 
HETATM    8  C   UNL     1      44.044 -18.228   4.784  1.00  0.00     0.030 A 
HETATM    9  C   UNL     1      44.024 -19.285   3.876  1.00  0.00     0.002 A 
HETATM   10  C   UNL     1      43.559 -19.073   2.582  1.00  0.00     0.001 A 
HETATM   11  C   UNL     1      43.115 -17.806   2.199  1.00  0.00     0.015 A 
HETATM   12  H   UNL     1      43.991 -16.069   6.224  1.00  0.00     0.170 HD
ENDROOT
BRANCH   1  13
HETATM   13  C   UNL     1      41.238 -15.461   2.020  1.00  0.00     0.279 C 
HETATM   14  N   UNL     1      41.239 -14.961   0.723  1.00  0.00    -0.352 N 
HETATM   15  H   UNL     1      42.062 -14.437   0.441  1.00  0.00     0.162 HD
HETATM   16  O   UNL     1      40.248 -15.968   2.545  1.00  0.00    -0.268 OA
BRANCH  14  17
HETATM   17  C   UNL     1      40.034 -14.868  -0.072  1.00  0.00     0.164 C 
BRANCH  17  18
HETATM   18  C   UNL     1      39.716 -13.473  -0.571  1.00  0.00    -0.007 A 
HETATM   19  C   UNL     1      39.486 -13.286  -1.950  1.00  0.00     0.076 A 
HETATM   20  C   UNL     1      39.208 -12.007  -2.447  1.00  0.00     0.037 A 
HETATM   21  C   UNL     1      39.163 -10.910  -1.586  1.00  0.00     0.003 A 
HETATM   22  C   UNL     1      39.386 -11.085  -0.225  1.00  0.00     0.001 A 
HETATM   23  C   UNL     1      39.659 -12.356   0.281  1.00  0.00     0.011 A 
BRANCH  19  24
HETATM   24  O   UNL     1      39.537 -14.420  -2.721  1.00  0.00    -0.355 OA
HETATM   25  C   UNL     1      38.340 -14.806  -3.387  1.00  0.00     0.210 C 
ENDBRANCH  19  24
ENDBRANCH  17  18
ENDBRANCH  14  17
ENDBRANCH   1  13
BRANCH   1  26
HETATM   26  O   UNL     1      43.666 -14.842   1.853  1.00  0.00    -0.359 OA
HETATM   27  H   UNL     1      43.342 -13.954   1.622  1.00  0.00     0.213 HD
ENDBRANCH   1  26
BRANCH   2  28
HETATM   28  C   UNL     1      41.857 -13.125   3.673  1.00  0.00     0.043 A 
HETATM   29  C   UNL     1      40.555 -12.916   4.162  1.00  0.00     0.031 A 
HETATM   30  C   UNL     1      39.905 -11.683   4.007  1.00  0.00     0.026 A 
HETATM   31  C   UNL     1      40.549 -10.633   3.365  1.00  0.00     0.034 A 
HETATM   32 CL   UNL     1      39.754  -9.119   3.185  1.00  0.00    -0.084 Cl
HETATM   33  C   UNL     1      41.835 -10.806   2.875  1.00  0.00     0.026 A 
HETATM   34  C   UNL     1      42.479 -12.040   3.029  1.00  0.00     0.031 A 
ENDBRANCH   2  28
TORSDOF 6
ENDMDL
MODEL 4
REMARK VINA RESULT:      -8.8      2.068      3.432
REMARK  6 active torsions:
REMARK  status: ('A' for Active; 'I' for Inactive)
REMARK    1  A    between atoms: O_2  and  C_3 
REMARK    2  A    between atoms: C_4  and  C_5 
REMARK    3  A    between atoms: C_5  and  N_6 
REMARK       I    between atoms: N_6  and  C_7 
REMARK    4  A    between atoms: C_7  and  C_8 
REMARK    5  A    between atoms: C_8  and  O_9 
REMARK    6  A    between atoms: N_10  and  C_11 
ROOT
HETATM    1  C   UNL     1      40.396 -13.364   1.233  1.00  0.00     0.256 C 
HETATM    2  N   UNL     1      41.218 -12.199   1.611  1.00  0.00    -0.254 N 
HETATM    3  C   UNL     1      41.456 -11.174   0.707  1.00  0.00     0.330 C 
HETATM    4  O   UNL     1      41.962 -10.084   0.980  1.00  0.00    -0.246 OA
HETATM    5  N   UNL     1      41.078 -11.355  -0.586  1.00  0.00    -0.308 N 
HETATM    6  C   UNL     1      40.474 -12.483  -1.109  1.00  0.00     0.048 A 
HETATM    7  C   UNL     1      40.121 -13.513  -0.251  1.00  0.00     0.034 A 
HETATM    8  C   UNL     1      40.219 -12.554  -2.481  1.00  0.00     0.030 A 
HETATM    9  C   UNL     1      39.601 -13.683  -3.012  1.00  0.00     0.002 A 
HETATM   10  C   UNL     1      39.230 -14.727  -2.171  1.00  0.00     0.001 A 
HETATM   11  C   UNL     1      39.479 -14.639  -0.800  1.00  0.00     0.015 A 
HETATM   12  H   UNL     1      41.311 -10.581  -1.194  1.00  0.00     0.170 HD
ENDROOT
BRANCH   1  13
HETATM   13  C   UNL     1      41.098 -14.704   1.735  1.00  0.00     0.279 C 
HETATM   14  N   UNL     1      40.423 -15.310   2.788  1.00  0.00    -0.352 N 
HETATM   15  H   UNL     1      39.679 -14.770   3.220  1.00  0.00     0.162 HD
HETATM   16  O   UNL     1      42.119 -15.171   1.233  1.00  0.00    -0.268 OA
BRANCH  14  17
HETATM   17  C   UNL     1      40.943 -16.472   3.475  1.00  0.00     0.164 C 
BRANCH  17  18
HETATM   18  C   UNL     1      41.763 -16.158   4.709  1.00  0.00    -0.007 A 
HETATM   19  C   UNL     1      43.131 -16.503   4.718  1.00  0.00     0.076 A 
HETATM   20  C   UNL     1      43.913 -16.243   5.849  1.00  0.00     0.037 A 
HETATM   21  C   UNL     1      43.347 -15.648   6.976  1.00  0.00     0.003 A 
HETATM   22  C   UNL     1      42.000 -15.301   6.977  1.00  0.00     0.001 A 
HETATM   23  C   UNL     1      41.214 -15.552   5.853  1.00  0.00     0.011 A 
BRANCH  19  24
HETATM   24  O   UNL     1      43.607 -17.073   3.564  1.00  0.00    -0.355 OA
HETATM   25  C   UNL     1      44.078 -18.413   3.647  1.00  0.00     0.210 C 
ENDBRANCH  19  24
ENDBRANCH  17  18
ENDBRANCH  14  17
ENDBRANCH   1  13
BRANCH   1  26
HETATM   26  O   UNL     1      39.109 -13.172   1.831  1.00  0.00    -0.359 OA
HETATM   27  H   UNL     1      38.717 -12.466   1.289  1.00  0.00     0.213 HD
ENDBRANCH   1  26
BRANCH   2  28
HETATM   28  C   UNL     1      41.795 -12.128   2.942  1.00  0.00     0.043 A 
HETATM   29  C   UNL     1      41.022 -11.847   4.082  1.00  0.00     0.031 A 
HETATM   30  C   UNL     1      41.592 -11.822   5.363  1.00  0.00     0.026 A 
HETATM   31  C   UNL     1      42.946 -12.084   5.527  1.00  0.00     0.034 A 
HETATM   32 CL   UNL     1      43.642 -12.062   7.100  1.00  0.00    -0.084 Cl
HETATM   33  C   UNL     1      43.735 -12.368   4.422  1.00  0.00     0.026 A 
HETATM   34  C   UNL     1      43.162 -12.389   3.144  1.00  0.00     0.031 A 
ENDBRANCH   2  28
TORSDOF 6
ENDMDL
MODEL 5
REMARK VINA RESULT:      -8.5      2.412      4.567
REMARK  6 active torsions:
REMARK  status: ('A' for Active; 'I' for Inactive)
REMARK    1  A    between atoms: O_2  and  C_3 
REMARK    2  A    between atoms: C_4  and  C_5 
REMARK    3  A    between atoms: C_5  and  N_6 
REMARK       I    between atoms: N_6  and  C_7 
REMARK    4  A    between atoms: C_7  and  C_8 
REMARK    5  A    between atoms: C_8  and  O_9 
REMARK    6  A    between atoms: N_10  and  C_11 
ROOT
HETATM    1  C   UNL     1      40.303 -12.264   1.871  1.00  0.00     0.256 C 
HETATM    2  N   UNL     1      40.412 -13.586   1.225  1.00  0.00    -0.254 N 
HETATM    3  C   UNL     1      39.727 -13.860   0.049  1.00  0.00     0.330 C 
HETATM    4  O   UNL     1      39.898 -14.852  -0.662  1.00  0.00    -0.246 OA
HETATM    5  N   UNL     1      38.811 -12.956  -0.388  1.00  0.00    -0.308 N 
HETATM    6  C   UNL     1      38.476 -11.768   0.235  1.00  0.00     0.048 A 
HETATM    7  C   UNL     1      39.180 -11.381   1.364  1.00  0.00     0.034 A 
HETATM    8  C   UNL     1      37.451 -10.980  -0.294  1.00  0.00     0.030 A 
HETATM    9  C   UNL     1      37.115  -9.776   0.322  1.00  0.00     0.002 A 
HETATM   10  C   UNL     1      37.812  -9.362   1.452  1.00  0.00     0.001 A 
HETATM   11  C   UNL     1      38.843 -10.153   1.964  1.00  0.00     0.015 A 
HETATM   12  H   UNL     1      38.329 -13.236  -1.231  1.00  0.00     0.170 HD
ENDROOT
BRANCH   1  13
HETATM   13  C   UNL     1      40.105 -12.448   3.442  1.00  0.00     0.279 C 
HETATM   14  N   UNL     1      41.229 -12.089   4.178  1.00  0.00    -0.352 N 
HETATM   15  H   UNL     1      42.079 -11.915   3.650  1.00  0.00     0.162 HD
HETATM   16  O   UNL     1      39.062 -12.846   3.958  1.00  0.00    -0.268 OA
BRANCH  14  17
HETATM   17  C   UNL     1      41.312 -12.285   5.609  1.00  0.00     0.164 C 
BRANCH  17  18
HETATM   18  C   UNL     1      41.833 -13.644   6.029  1.00  0.00    -0.007 A 
HETATM   19  C   UNL     1      43.228 -13.855   6.053  1.00  0.00     0.076 A 
HETATM   20  C   UNL     1      43.741 -15.104   6.419  1.00  0.00     0.037 A 
HETATM   21  C   UNL     1      42.881 -16.150   6.755  1.00  0.00     0.003 A 
HETATM   22  C   UNL     1      41.505 -15.951   6.736  1.00  0.00     0.001 A 
HETATM   23  C   UNL     1      40.983 -14.708   6.378  1.00  0.00     0.011 A 
BRANCH  19  24
HETATM   24  O   UNL     1      43.999 -12.770   5.721  1.00  0.00    -0.355 OA
HETATM   25  C   UNL     1      44.763 -12.173   6.763  1.00  0.00     0.210 C 
ENDBRANCH  19  24
ENDBRANCH  17  18
ENDBRANCH  14  17
ENDBRANCH   1  13
BRANCH   1  26
HETATM   26  O   UNL     1      41.505 -11.552   1.559  1.00  0.00    -0.359 OA
HETATM   27  H   UNL     1      41.838 -12.017   0.772  1.00  0.00     0.213 HD
ENDBRANCH   1  26
BRANCH   2  28
HETATM   28  C   UNL     1      41.236 -14.616   1.830  1.00  0.00     0.043 A 
HETATM   29  C   UNL     1      40.690 -15.673   2.580  1.00  0.00     0.031 A 
HETATM   30  C   UNL     1      41.501 -16.680   3.123  1.00  0.00     0.026 A 
HETATM   31  C   UNL     1      42.875 -16.651   2.920  1.00  0.00     0.034 A 
HETATM   32 CL   UNL     1      43.867 -17.891   3.579  1.00  0.00    -0.084 Cl
HETATM   33  C   UNL     1      43.444 -15.623   2.182  1.00  0.00     0.026 A 
HETATM   34  C   UNL     1      42.630 -14.618   1.644  1.00  0.00     0.031 A 
ENDBRANCH   2  28
TORSDOF 6
ENDMDL
MODEL 6
REMARK VINA RESULT:      -8.4      2.871      7.549
REMARK  6 active torsions:
REMARK  status: ('A' for Active; 'I' for Inactive)
REMARK    1  A    between atoms: O_2  and  C_3 
REMARK    2  A    between atoms: C_4  and  C_5 
REMARK    3  A    between atoms: C_5  and  N_6 
REMARK       I    between atoms: N_6  and  C_7 
REMARK    4  A    between atoms: C_7  and  C_8 
REMARK    5  A    between atoms: C_8  and  O_9 
REMARK    6  A    between atoms: N_10  and  C_11 
ROOT
HETATM    1  C   UNL     1      41.367 -15.282   4.332  1.00  0.00     0.256 C 
HETATM    2  N   UNL     1      41.886 -15.569   2.981  1.00  0.00    -0.254 N 
HETATM    3  C   UNL     1      42.947 -16.444   2.799  1.00  0.00     0.330 C 
HETATM    4  O   UNL     1      43.325 -16.892   1.715  1.00  0.00    -0.246 OA
HETATM    5  N   UNL     1      43.618 -16.879   3.898  1.00  0.00    -0.308 N 
HETATM    6  C   UNL     1      43.353 -16.528   5.208  1.00  0.00     0.048 A 
HETATM    7  C   UNL     1      42.252 -15.731   5.479  1.00  0.00     0.034 A 
HETATM    8  C   UNL     1      44.186 -16.995   6.228  1.00  0.00     0.030 A 
HETATM    9  C   UNL     1      43.919 -16.653   7.551  1.00  0.00     0.002 A 
HETATM   10  C   UNL     1      42.815 -15.861   7.849  1.00  0.00     0.001 A 
HETATM   11  C   UNL     1      41.983 -15.410   6.823  1.00  0.00     0.015 A 
HETATM   12  H   UNL     1      44.398 -17.487   3.688  1.00  0.00     0.170 HD
ENDROOT
BRANCH   1  13
HETATM   13  C   UNL     1      41.121 -13.715   4.492  1.00  0.00     0.279 C 
HETATM   14  N   UNL     1      39.777 -13.366   4.435  1.00  0.00    -0.352 N 
HETATM   15  H   UNL     1      39.133 -14.094   4.142  1.00  0.00     0.162 HD
HETATM   16  O   UNL     1      42.021 -12.896   4.670  1.00  0.00    -0.268 OA
BRANCH  14  17
HETATM   17  C   UNL     1      39.333 -11.990   4.442  1.00  0.00     0.164 C 
BRANCH  17  18
HETATM   18  C   UNL     1      39.176 -11.373   3.068  1.00  0.00    -0.007 A 
HETATM   19  C   UNL     1      40.062 -10.344   2.685  1.00  0.00     0.076 A 
HETATM   20  C   UNL     1      39.933  -9.740   1.428  1.00  0.00     0.037 A 
HETATM   21  C   UNL     1      38.928 -10.145   0.551  1.00  0.00     0.003 A 
HETATM   22  C   UNL     1      38.051 -11.159   0.918  1.00  0.00     0.001 A 
HETATM   23  C   UNL     1      38.174 -11.771   2.166  1.00  0.00     0.011 A 
BRANCH  19  24
HETATM   24  O   UNL     1      41.028 -10.018   3.603  1.00  0.00    -0.355 OA
HETATM   25  C   UNL     1      41.069  -8.668   4.051  1.00  0.00     0.210 C 
ENDBRANCH  19  24
ENDBRANCH  17  18
ENDBRANCH  14  17
ENDBRANCH   1  13
BRANCH   1  26
HETATM   26  O   UNL     1      40.158 -16.034   4.479  1.00  0.00    -0.359 OA
HETATM   27  H   UNL     1      40.295 -16.509   5.318  1.00  0.00     0.213 HD
ENDBRANCH   1  26
BRANCH   2  28
HETATM   28  C   UNL     1      41.286 -14.921   1.829  1.00  0.00     0.043 A 
HETATM   29  C   UNL     1      41.743 -13.686   1.337  1.00  0.00     0.031 A 
HETATM   30  C   UNL     1      41.174 -13.097   0.198  1.00  0.00     0.026 A 
HETATM   31  C   UNL     1      40.141 -13.738  -0.474  1.00  0.00     0.034 A 
HETATM   32 CL   UNL     1      39.451 -13.018  -1.875  1.00  0.00    -0.084 Cl
HETATM   33  C   UNL     1      39.670 -14.959  -0.015  1.00  0.00     0.026 A 
HETATM   34  C   UNL     1      40.239 -15.542   1.124  1.00  0.00     0.031 A 
ENDBRANCH   2  28
TORSDOF 6
ENDMDL
MODEL 7
REMARK VINA RESULT:      -8.2      2.256      5.628
REMARK  6 active torsions:
REMARK  status: ('A' for Active; 'I' for Inactive)
REMARK    1  A    between atoms: O_2  and  C_3 
REMARK    2  A    between atoms: C_4  and  C_5 
REMARK    3  A    between atoms: C_5  and  N_6 
REMARK       I    between atoms: N_6  and  C_7 
REMARK    4  A    between atoms: C_7  and  C_8 
REMARK    5  A    between atoms: C_8  and  O_9 
REMARK    6  A    between atoms: N_10  and  C_11 
ROOT
HETATM    1  C   UNL     1      40.945 -14.435   5.160  1.00  0.00     0.256 C 
HETATM    2  N   UNL     1      42.228 -14.740   5.821  1.00  0.00    -0.254 N 
HETATM    3  C   UNL     1      42.900 -13.768   6.549  1.00  0.00     0.330 C 
HETATM    4  O   UNL     1      43.866 -13.970   7.287  1.00  0.00    -0.246 OA
HETATM    5  N   UNL     1      42.450 -12.487   6.481  1.00  0.00    -0.308 N 
HETATM    6  C   UNL     1      41.374 -12.039   5.739  1.00  0.00     0.048 A 
HETATM    7  C   UNL     1      40.598 -12.963   5.058  1.00  0.00     0.034 A 
HETATM    8  C   UNL     1      41.083 -10.672   5.705  1.00  0.00     0.030 A 
HETATM    9  C   UNL     1      39.994 -10.215   4.967  1.00  0.00     0.002 A 
HETATM   10  C   UNL     1      39.195 -11.123   4.282  1.00  0.00     0.001 A 
HETATM   11  C   UNL     1      39.488 -12.488   4.334  1.00  0.00     0.015 A 
HETATM   12  H   UNL     1      43.007 -11.828   7.010  1.00  0.00     0.170 HD
ENDROOT
BRANCH   1  13
HETATM   13  C   UNL     1      40.944 -15.039   3.685  1.00  0.00     0.279 C 
HETATM   14  N   UNL     1      41.785 -14.353   2.816  1.00  0.00    -0.352 N 
HETATM   15  H   UNL     1      42.165 -13.475   3.154  1.00  0.00     0.162 HD
HETATM   16  O   UNL     1      40.287 -16.023   3.349  1.00  0.00    -0.268 OA
BRANCH  14  17
HETATM   17  C   UNL     1      41.852 -14.657   1.403  1.00  0.00     0.164 C 
BRANCH  17  18
HETATM   18  C   UNL     1      40.856 -13.900   0.549  1.00  0.00    -0.007 A 
HETATM   19  C   UNL     1      40.797 -12.495   0.664  1.00  0.00     0.076 A 
HETATM   20  C   UNL     1      39.875 -11.768  -0.097  1.00  0.00     0.037 A 
HETATM   21  C   UNL     1      39.005 -12.424  -0.968  1.00  0.00     0.003 A 
HETATM   22  C   UNL     1      39.057 -13.808  -1.091  1.00  0.00     0.001 A 
HETATM   23  C   UNL     1      39.976 -14.541  -0.340  1.00  0.00     0.011 A 
BRANCH  19  24
HETATM   24  O   UNL     1      41.696 -11.932   1.534  1.00  0.00    -0.355 OA
HETATM   25  C   UNL     1      41.722 -10.511   1.611  1.00  0.00     0.210 C 
ENDBRANCH  19  24
ENDBRANCH  17  18
ENDBRANCH  14  17
ENDBRANCH   1  13
BRANCH   1  26
HETATM   26  O   UNL     1      39.915 -15.004   5.975  1.00  0.00    -0.359 OA
HETATM   27  H   UNL     1      40.382 -15.705   6.464  1.00  0.00     0.213 HD
ENDBRANCH   1  26
BRANCH   2  28
HETATM   28  C   UNL     1      42.801 -16.068   5.702  1.00  0.00     0.043 A 
HETATM   29  C   UNL     1      42.575 -17.074   6.658  1.00  0.00     0.031 A 
HETATM   30  C   UNL     1      43.106 -18.362   6.503  1.00  0.00     0.026 A 
HETATM   31  C   UNL     1      43.868 -18.670   5.383  1.00  0.00     0.034 A 
HETATM   32 CL   UNL     1      44.511 -20.254   5.190  1.00  0.00    -0.084 Cl
HETATM   33  C   UNL     1      44.107 -17.701   4.420  1.00  0.00     0.026 A 
HETATM   34  C   UNL     1      43.577 -16.414   4.581  1.00  0.00     0.031 A 
ENDBRANCH   2  28
TORSDOF 6
ENDMDL
MODEL 8
REMARK VINA RESULT:      -8.2      3.233      7.370
REMARK  6 active torsions:
REMARK  status: ('A' for Active; 'I' for Inactive)
REMARK    1  A    between atoms: O_2  and  C_3 
REMARK    2  A    between atoms: C_4  and  C_5 
REMARK    3  A    between atoms: C_5  and  N_6 
REMARK       I    between atoms: N_6  and  C_7 
REMARK    4  A    between atoms: C_7  and  C_8 
REMARK    5  A    between atoms: C_8  and  O_9 
REMARK    6  A    between atoms: N_10  and  C_11 
ROOT
HETATM    1  C   UNL     1      41.379 -15.227   4.301  1.00  0.00     0.256 C 
HETATM    2  N   UNL     1      41.896 -15.469   2.940  1.00  0.00    -0.254 N 
HETATM    3  C   UNL     1      42.956 -16.339   2.727  1.00  0.00     0.330 C 
HETATM    4  O   UNL     1      43.332 -16.750   1.628  1.00  0.00    -0.246 OA
HETATM    5  N   UNL     1      43.628 -16.813   3.810  1.00  0.00    -0.308 N 
HETATM    6  C   UNL     1      43.364 -16.506   5.132  1.00  0.00     0.048 A 
HETATM    7  C   UNL     1      42.265 -15.716   5.430  1.00  0.00     0.034 A 
HETATM    8  C   UNL     1      44.198 -17.008   6.134  1.00  0.00     0.030 A 
HETATM    9  C   UNL     1      43.932 -16.711   7.469  1.00  0.00     0.002 A 
HETATM   10  C   UNL     1      42.830 -15.928   7.795  1.00  0.00     0.001 A 
HETATM   11  C   UNL     1      41.997 -15.442   6.785  1.00  0.00     0.015 A 
HETATM   12  H   UNL     1      44.407 -17.414   3.578  1.00  0.00     0.170 HD
ENDROOT
BRANCH   1  13
HETATM   13  C   UNL     1      41.136 -13.667   4.514  1.00  0.00     0.279 C 
HETATM   14  N   UNL     1      42.312 -12.955   4.718  1.00  0.00    -0.352 N 
HETATM   15  H   UNL     1      43.152 -13.504   4.872  1.00  0.00     0.162 HD
HETATM   16  O   UNL     1      40.026 -13.137   4.480  1.00  0.00    -0.268 OA
BRANCH  14  17
HETATM   17  C   UNL     1      42.318 -11.546   5.047  1.00  0.00     0.164 C 
BRANCH  17  18
HETATM   18  C   UNL     1      43.387 -11.137   6.039  1.00  0.00    -0.007 A 
HETATM   19  C   UNL     1      43.048 -10.219   7.056  1.00  0.00     0.076 A 
HETATM   20  C   UNL     1      44.017  -9.806   7.978  1.00  0.00     0.037 A 
HETATM   21  C   UNL     1      45.322 -10.291   7.895  1.00  0.00     0.003 A 
HETATM   22  C   UNL     1      45.665 -11.198   6.898  1.00  0.00     0.001 A 
HETATM   23  C   UNL     1      44.706 -11.619   5.977  1.00  0.00     0.011 A 
BRANCH  19  24
HETATM   24  O   UNL     1      41.741  -9.804   7.070  1.00  0.00    -0.355 OA
HETATM   25  C   UNL     1      41.503  -8.404   6.970  1.00  0.00     0.210 C 
ENDBRANCH  19  24
ENDBRANCH  17  18
ENDBRANCH  14  17
ENDBRANCH   1  13
BRANCH   1  26
HETATM   26  O   UNL     1      40.170 -15.983   4.423  1.00  0.00    -0.359 OA
HETATM   27  H   UNL     1      40.432 -16.869   4.118  1.00  0.00     0.213 HD
ENDBRANCH   1  26
BRANCH   2  28
HETATM   28  C   UNL     1      41.296 -14.782   1.811  1.00  0.00     0.043 A 
HETATM   29  C   UNL     1      41.730 -13.515   1.384  1.00  0.00     0.031 A 
HETATM   30  C   UNL     1      41.162 -12.886   0.266  1.00  0.00     0.026 A 
HETATM   31  C   UNL     1      40.153 -13.518  -0.449  1.00  0.00     0.034 A 
HETATM   32 CL   UNL     1      39.464 -12.749  -1.825  1.00  0.00    -0.084 Cl
HETATM   33  C   UNL     1      39.705 -14.770  -0.055  1.00  0.00     0.026 A 
HETATM   34  C   UNL     1      40.272 -15.393   1.064  1.00  0.00     0.031 A 
ENDBRANCH   2  28
TORSDOF 6
ENDMDL
MODEL 9
REMARK VINA RESULT:      -8.1      3.287      7.013
REMARK  6 active torsions:
REMARK  status: ('A' for Active; 'I' for Inactive)
REMARK    1  A    between atoms: O_2  and  C_3 
REMARK    2  A    between atoms: C_4  and  C_5 
REMARK    3  A    between atoms: C_5  and  N_6 
REMARK       I    between atoms: N_6  and  C_7 
REMARK    4  A    between atoms: C_7  and  C_8 
REMARK    5  A    between atoms: C_8  and  O_9 
REMARK    6  A    between atoms: N_10  and  C_11 
ROOT
HETATM    1  C   UNL     1      41.712 -14.543   3.854  1.00  0.00     0.256 C 
HETATM    2  N   UNL     1      40.891 -14.581   2.628  1.00  0.00    -0.254 N 
HETATM    3  C   UNL     1      40.730 -15.762   1.918  1.00  0.00     0.330 C 
HETATM    4  O   UNL     1      39.923 -15.941   1.004  1.00  0.00    -0.246 OA
HETATM    5  N   UNL     1      41.494 -16.832   2.265  1.00  0.00    -0.308 N 
HETATM    6  C   UNL     1      42.442 -16.865   3.270  1.00  0.00     0.048 A 
HETATM    7  C   UNL     1      42.597 -15.753   4.083  1.00  0.00     0.034 A 
HETATM    8  C   UNL     1      43.209 -18.018   3.454  1.00  0.00     0.030 A 
HETATM    9  C   UNL     1      44.159 -18.062   4.472  1.00  0.00     0.002 A 
HETATM   10  C   UNL     1      44.328 -16.962   5.306  1.00  0.00     0.001 A 
HETATM   11  C   UNL     1      43.546 -15.820   5.120  1.00  0.00     0.015 A 
HETATM   12  H   UNL     1      41.346 -17.647   1.685  1.00  0.00     0.170 HD
ENDROOT
BRANCH   1  13
HETATM   13  C   UNL     1      42.648 -13.253   3.834  1.00  0.00     0.279 C 
HETATM   14  N   UNL     1      42.358 -12.355   4.854  1.00  0.00    -0.352 N 
HETATM   15  H   UNL     1      41.506 -12.526   5.380  1.00  0.00     0.162 HD
HETATM   16  O   UNL     1      43.550 -13.075   3.017  1.00  0.00    -0.268 OA
BRANCH  14  17
HETATM   17  C   UNL     1      43.004 -11.065   4.958  1.00  0.00     0.164 C 
BRANCH  17  18
HETATM   18  C   UNL     1      43.917 -10.913   6.157  1.00  0.00    -0.007 A 
HETATM   19  C   UNL     1      43.369 -10.440   7.367  1.00  0.00     0.076 A 
HETATM   20  C   UNL     1      44.189 -10.272   8.490  1.00  0.00     0.037 A 
HETATM   21  C   UNL     1      45.551 -10.564   8.418  1.00  0.00     0.003 A 
HETATM   22  C   UNL     1      46.101 -11.033   7.230  1.00  0.00     0.001 A 
HETATM   23  C   UNL     1      45.291 -11.209   6.108  1.00  0.00     0.011 A 
BRANCH  19  24
HETATM   24  O   UNL     1      42.020 -10.190   7.352  1.00  0.00    -0.355 OA
HETATM   25  C   UNL     1      41.600  -8.876   7.703  1.00  0.00     0.210 C 
ENDBRANCH  19  24
ENDBRANCH  17  18
ENDBRANCH  14  17
ENDBRANCH   1  13
BRANCH   1  26
HETATM   26  O   UNL     1      40.803 -14.532   4.959  1.00  0.00    -0.359 OA
HETATM   27  H   UNL     1      41.115 -13.782   5.494  1.00  0.00     0.213 HD
ENDBRANCH   1  26
BRANCH   2  28
HETATM   28  C   UNL     1      40.253 -13.367   2.153  1.00  0.00     0.043 A 
HETATM   29  C   UNL     1      40.747 -12.635   1.059  1.00  0.00     0.031 A 
HETATM   30  C   UNL     1      40.092 -11.486   0.592  1.00  0.00     0.026 A 
HETATM   31  C   UNL     1      38.925 -11.052   1.208  1.00  0.00     0.034 A 
HETATM   32 CL   UNL     1      38.119  -9.648   0.629  1.00  0.00    -0.084 Cl
HETATM   33  C   UNL     1      38.410 -11.755   2.288  1.00  0.00     0.026 A 
HETATM   34  C   UNL     1      39.070 -12.900   2.753  1.00  0.00     0.031 A 
ENDBRANCH   2  28
TORSDOF 6
ENDMDL
MODEL 10
REMARK VINA RESULT:      -8.0      4.108      7.357
REMARK  6 active torsions:
REMARK  status: ('A' for Active; 'I' for Inactive)
REMARK    1  A    between atoms: O_2  and  C_3 
REMARK    2  A    between atoms: C_4  and  C_5 
REMARK    3  A    between atoms: C_5  and  N_6 
REMARK       I    between atoms: N_6  and  C_7 
REMARK    4  A    between atoms: C_7  and  C_8 
REMARK    5  A    between atoms: C_8  and  O_9 
REMARK    6  A    between atoms: N_10  and  C_11 
ROOT
HETATM    1  C   UNL     1      41.734 -13.669   5.544  1.00  0.00     0.256 C 
HETATM    2  N   UNL     1      40.693 -12.928   4.807  1.00  0.00    -0.254 N 
HETATM    3  C   UNL     1      40.062 -13.494   3.708  1.00  0.00     0.330 C 
HETATM    4  O   UNL     1      39.061 -13.042   3.149  1.00  0.00    -0.246 OA
HETATM    5  N   UNL     1      40.555 -14.660   3.213  1.00  0.00    -0.308 N 
HETATM    6  C   UNL     1      41.648 -15.354   3.695  1.00  0.00     0.048 A 
HETATM    7  C   UNL     1      42.276 -14.901   4.845  1.00  0.00     0.034 A 
HETATM    8  C   UNL     1      42.086 -16.499   3.026  1.00  0.00     0.030 A 
HETATM    9  C   UNL     1      43.181 -17.209   3.513  1.00  0.00     0.002 A 
HETATM   10  C   UNL     1      43.823 -16.780   4.670  1.00  0.00     0.001 A 
HETATM   11  C   UNL     1      43.368 -15.640   5.337  1.00  0.00     0.015 A 
HETATM   12  H   UNL     1      40.066 -14.996   2.394  1.00  0.00     0.170 HD
ENDROOT
BRANCH   1  13
HETATM   13  C   UNL     1      42.964 -12.704   5.853  1.00  0.00     0.279 C 
HETATM   14  N   UNL     1      43.183 -12.518   7.213  1.00  0.00    -0.352 N 
HETATM   15  H   UNL     1      42.463 -12.866   7.839  1.00  0.00     0.162 HD
HETATM   16  O   UNL     1      43.666 -12.191   4.983  1.00  0.00    -0.268 OA
BRANCH  14  17
HETATM   17  C   UNL     1      44.172 -11.592   7.719  1.00  0.00     0.164 C 
BRANCH  17  18
HETATM   18  C   UNL     1      43.606 -10.282   8.225  1.00  0.00    -0.007 A 
HETATM   19  C   UNL     1      43.504 -10.083   9.618  1.00  0.00     0.076 A 
HETATM   20  C   UNL     1      42.968  -8.890  10.118  1.00  0.00     0.037 A 
HETATM   21  C   UNL     1      42.526  -7.895   9.247  1.00  0.00     0.003 A 
HETATM   22  C   UNL     1      42.624  -8.080   7.872  1.00  0.00     0.001 A 
HETATM   23  C   UNL     1      43.161  -9.263   7.364  1.00  0.00     0.011 A 
BRANCH  19  24
HETATM   24  O   UNL     1      43.973 -11.107  10.401  1.00  0.00    -0.355 OA
HETATM   25  C   UNL     1      43.687 -11.044  11.793  1.00  0.00     0.210 C 
ENDBRANCH  19  24
ENDBRANCH  17  18
ENDBRANCH  14  17
ENDBRANCH   1  13
BRANCH   1  26
HETATM   26  O   UNL     1      41.121 -14.161   6.741  1.00  0.00    -0.359 OA
HETATM   27  H   UNL     1      41.865 -14.203   7.368  1.00  0.00     0.213 HD
ENDBRANCH   1  26
BRANCH   2  28
HETATM   28  C   UNL     1      40.330 -11.587   5.229  1.00  0.00     0.043 A 
HETATM   29  C   UNL     1      39.648 -11.336   6.433  1.00  0.00     0.031 A 
HETATM   30  C   UNL     1      39.342 -10.030   6.840  1.00  0.00     0.026 A 
HETATM   31  C   UNL     1      39.719  -8.949   6.053  1.00  0.00     0.034 A 
HETATM   32 CL   UNL     1      39.350  -7.347   6.559  1.00  0.00    -0.084 Cl
HETATM   33  C   UNL     1      40.395  -9.164   4.861  1.00  0.00     0.026 A 
HETATM   34  C   UNL     1      40.696 -10.471   4.457  1.00  0.00     0.031 A 
ENDBRANCH   2  28
TORSDOF 6
ENDMDL
