MODEL 1
REMARK VINA RESULT:      -9.5      0.000      0.000
REMARK  8 active torsions:
REMARK  status: ('A' for Active; 'I' for Inactive)
REMARK    1  A    between atoms: O_2  and  C_3 
REMARK    2  A    between atoms: C_5  and  O_6 
REMARK    3  A    between atoms: C_9  and  C_10 
REMARK    4  A    between atoms: C_10  and  N_11 
REMARK    5  A    between atoms: C_20  and  C_21 
REMARK    6  A    between atoms: C_21  and  N_22 
REMARK    7  A    between atoms: C_26  and  O_27 
REMARK    8  A    between atoms: C_26  and  C_28 
ROOT
HETATM    1  N   UNL     1      41.140 -15.683   2.068  1.00  0.00    -0.061 N 
HETATM    2  H   UNL     1      40.732 -16.625   2.072  1.00  0.00     0.280 HD
HETATM    3  C   UNL     1      40.550 -14.987   3.276  1.00  0.00     0.276 C 
HETATM    4  C   UNL     1      41.205 -13.666   3.583  1.00  0.00     0.002 A 
HETATM    5  C   UNL     1      41.051 -12.606   2.690  1.00  0.00     0.076 A 
HETATM    6  O   UNL     1      40.310 -12.771   1.554  1.00  0.00    -0.349 OA
HETATM    7  C   UNL     1      41.011 -13.583   0.597  1.00  0.00     0.203 C 
HETATM    8  C   UNL     1      40.677 -15.074   0.750  1.00  0.00     0.262 C 
HETATM    9  C   UNL     1      42.040 -13.487   4.701  1.00  0.00     0.020 A 
HETATM   10  C   UNL     1      42.710 -12.266   4.922  1.00  0.00    -0.032 A 
HETATM   11  C   UNL     1      42.487 -11.205   4.030  1.00  0.00     0.011 A 
HETATM   12  C   UNL     1      41.646 -11.371   2.927  1.00  0.00     0.038 A 
ENDROOT
BRANCH  10  13
HETATM   13  C   UNL     1      43.726 -12.147   6.034  1.00  0.00     0.273 C 
BRANCH  13  14
HETATM   14  N   UNL     1      44.057 -10.745   6.500  1.00  0.00    -0.067 N 
HETATM   15  H   UNL     1      44.322 -10.201   5.666  1.00  0.00     0.280 HD
HETATM   16  C   UNL     1      42.878 -10.048   7.136  1.00  0.00     0.238 C 
HETATM   17  C   UNL     1      43.287  -8.658   7.589  1.00  0.00     0.071 C 
HETATM   18  C   UNL     1      44.432  -8.703   8.621  1.00  0.00     0.089 C 
HETATM   19  C   UNL     1      45.617  -9.404   7.930  1.00  0.00     0.071 C 
HETATM   20  C   UNL     1      45.270 -10.788   7.407  1.00  0.00     0.238 C 
BRANCH  18  21
HETATM   21  O   UNL     1      44.841  -7.350   8.829  1.00  0.00    -0.385 OA
HETATM   22  H   UNL     1      44.626  -7.070   9.740  1.00  0.00     0.211 HD
ENDBRANCH  18  21
BRANCH  18  23
HETATM   23  C   UNL     1      43.990  -9.279   9.960  1.00  0.00    -0.006 A 
HETATM   24  C   UNL     1      44.396 -10.525  10.436  1.00  0.00     0.126 A 
HETATM   25  N   UNL     1      43.956 -11.094  11.578  1.00  0.00    -0.272 NA
HETATM   26  C   UNL     1      43.131 -10.366  12.356  1.00  0.00     0.116 A 
HETATM   27  C   UNL     1      42.714  -9.093  12.025  1.00  0.00     0.020 A 
HETATM   28  C   UNL     1      43.151  -8.548  10.818  1.00  0.00     0.013 A 
ENDBRANCH  18  23
ENDBRANCH  13  14
ENDBRANCH  10  13
BRANCH   1  29
HETATM   29  C   UNL     1      42.632 -15.874   2.197  1.00  0.00     0.274 C 
BRANCH  29  30
HETATM   30  C   UNL     1      43.086 -16.913   3.177  1.00  0.00    -0.027 A 
HETATM   31  C   UNL     1      43.257 -18.238   2.752  1.00  0.00     0.045 A 
HETATM   32  C   UNL     1      43.825 -19.198   3.594  1.00  0.00     0.071 A 
HETATM   33  C   UNL     1      44.197 -18.850   4.893  1.00  0.00     0.073 A 
HETATM   34  C   UNL     1      44.031 -17.536   5.333  1.00  0.00     0.071 A 
HETATM   35  C   UNL     1      43.481 -16.575   4.477  1.00  0.00     0.045 A 
BRANCH  32  36
HETATM   36  O   UNL     1      43.966 -20.430   3.019  1.00  0.00    -0.356 OA
HETATM   37  C   UNL     1      43.587 -20.546   1.649  1.00  0.00     0.210 C 
ENDBRANCH  32  36
BRANCH  34  38
HETATM   38  O   UNL     1      44.373 -17.048   6.564  1.00  0.00    -0.356 OA
HETATM   39  C   UNL     1      43.635 -15.927   7.043  1.00  0.00     0.210 C 
ENDBRANCH  34  38
ENDBRANCH  29  30
ENDBRANCH   1  29
TORSDOF 8
ENDMDL
MODEL 2
REMARK VINA RESULT:      -9.2      0.869      2.233
REMARK  8 active torsions:
REMARK  status: ('A' for Active; 'I' for Inactive)
REMARK    1  A    between atoms: O_2  and  C_3 
REMARK    2  A    between atoms: C_5  and  O_6 
REMARK    3  A    between atoms: C_9  and  C_10 
REMARK    4  A    between atoms: C_10  and  N_11 
REMARK    5  A    between atoms: C_20  and  C_21 
REMARK    6  A    between atoms: C_21  and  N_22 
REMARK    7  A    between atoms: C_26  and  O_27 
REMARK    8  A    between atoms: C_26  and  C_28 
ROOT
HETATM    1  N   UNL     1      41.059 -15.375   1.553  1.00  0.00    -0.061 N 
HETATM    2  H   UNL     1      40.902 -16.358   1.305  1.00  0.00     0.280 HD
HETATM    3  C   UNL     1      40.197 -15.129   2.774  1.00  0.00     0.276 C 
HETATM    4  C   UNL     1      40.466 -13.805   3.437  1.00  0.00     0.002 A 
HETATM    5  C   UNL     1      40.138 -12.627   2.765  1.00  0.00     0.076 A 
HETATM    6  O   UNL     1      39.577 -12.684   1.519  1.00  0.00    -0.349 OA
HETATM    7  C   UNL     1      40.551 -13.072   0.536  1.00  0.00     0.203 C 
HETATM    8  C   UNL     1      40.588 -14.595   0.331  1.00  0.00     0.262 C 
HETATM    9  C   UNL     1      41.116 -13.709   4.681  1.00  0.00     0.020 A 
HETATM   10  C   UNL     1      41.432 -12.455   5.244  1.00  0.00    -0.032 A 
HETATM   11  C   UNL     1      41.038 -11.292   4.562  1.00  0.00     0.011 A 
HETATM   12  C   UNL     1      40.378 -11.381   3.333  1.00  0.00     0.038 A 
ENDROOT
BRANCH  10  13
HETATM   13  C   UNL     1      42.271 -12.375   6.498  1.00  0.00     0.273 C 
BRANCH  13  14
HETATM   14  N   UNL     1      43.058 -11.098   6.704  1.00  0.00    -0.067 N 
HETATM   15  H   UNL     1      43.366 -10.776   5.775  1.00  0.00     0.280 HD
HETATM   16  C   UNL     1      42.226  -9.991   7.310  1.00  0.00     0.238 C 
HETATM   17  C   UNL     1      43.082  -8.752   7.498  1.00  0.00     0.071 C 
HETATM   18  C   UNL     1      44.281  -9.017   8.432  1.00  0.00     0.089 C 
HETATM   19  C   UNL     1      45.110 -10.135   7.773  1.00  0.00     0.071 C 
HETATM   20  C   UNL     1      44.307 -11.398   7.508  1.00  0.00     0.238 C 
BRANCH  18  21
HETATM   21  O   UNL     1      45.095  -7.844   8.386  1.00  0.00    -0.385 OA
HETATM   22  H   UNL     1      45.211  -7.550   7.462  1.00  0.00     0.211 HD
ENDBRANCH  18  21
BRANCH  18  23
HETATM   23  C   UNL     1      43.857  -9.248   9.877  1.00  0.00    -0.006 A 
HETATM   24  C   UNL     1      44.019 -10.462  10.544  1.00  0.00     0.126 A 
HETATM   25  N   UNL     1      43.579 -10.718  11.793  1.00  0.00    -0.272 NA
HETATM   26  C   UNL     1      43.021  -9.699  12.476  1.00  0.00     0.116 A 
HETATM   27  C   UNL     1      42.869  -8.433  11.947  1.00  0.00     0.020 A 
HETATM   28  C   UNL     1      43.294  -8.210  10.638  1.00  0.00     0.013 A 
ENDBRANCH  18  23
ENDBRANCH  13  14
ENDBRANCH  10  13
BRANCH   1  29
HETATM   29  C   UNL     1      42.531 -15.252   1.865  1.00  0.00     0.274 C 
BRANCH  29  30
HETATM   30  C   UNL     1      43.123 -16.339   2.710  1.00  0.00    -0.027 A 
HETATM   31  C   UNL     1      43.530 -16.054   4.020  1.00  0.00     0.045 A 
HETATM   32  C   UNL     1      43.939 -17.072   4.886  1.00  0.00     0.071 A 
HETATM   33  C   UNL     1      43.983 -18.391   4.436  1.00  0.00     0.073 A 
HETATM   34  C   UNL     1      43.584 -18.693   3.132  1.00  0.00     0.071 A 
HETATM   35  C   UNL     1      43.154 -17.671   2.278  1.00  0.00     0.045 A 
BRANCH  32  36
HETATM   36  O   UNL     1      44.261 -16.638   6.142  1.00  0.00    -0.356 OA
HETATM   37  C   UNL     1      43.211 -16.631   7.106  1.00  0.00     0.210 C 
ENDBRANCH  32  36
BRANCH  34  38
HETATM   38  O   UNL     1      43.550 -19.937   2.567  1.00  0.00    -0.356 OA
HETATM   39  C   UNL     1      43.877 -21.040   3.408  1.00  0.00     0.210 C 
ENDBRANCH  34  38
ENDBRANCH  29  30
ENDBRANCH   1  29
TORSDOF 8
ENDMDL
MODEL 3
REMARK VINA RESULT:      -8.8      1.549      5.103
REMARK  8 active torsions:
REMARK  status: ('A' for Active; 'I' for Inactive)
REMARK    1  A    between atoms: O_2  and  C_3 
REMARK    2  A    between atoms: C_5  and  O_6 
REMARK    3  A    between atoms: C_9  and  C_10 
REMARK    4  A    between atoms: C_10  and  N_11 
REMARK    5  A    between atoms: C_20  and  C_21 
REMARK    6  A    between atoms: C_21  and  N_22 
REMARK    7  A    between atoms: C_26  and  O_27 
REMARK    8  A    between atoms: C_26  and  C_28 
ROOT
HETATM    1  N   UNL     1      42.216 -16.071   1.955  1.00  0.00    -0.061 N 
HETATM    2  H   UNL     1      42.232 -16.055   0.929  1.00  0.00     0.280 HD
HETATM    3  C   UNL     1      43.243 -15.045   2.387  1.00  0.00     0.276 C 
HETATM    4  C   UNL     1      43.204 -14.746   3.862  1.00  0.00     0.002 A 
HETATM    5  C   UNL     1      43.573 -15.741   4.768  1.00  0.00     0.076 A 
HETATM    6  O   UNL     1      43.967 -16.968   4.314  1.00  0.00    -0.349 OA
HETATM    7  C   UNL     1      42.844 -17.718   3.822  1.00  0.00     0.203 C 
HETATM    8  C   UNL     1      42.615 -17.496   2.319  1.00  0.00     0.262 C 
HETATM    9  C   UNL     1      42.726 -13.523   4.366  1.00  0.00     0.020 A 
HETATM   10  C   UNL     1      42.620 -13.298   5.754  1.00  0.00    -0.032 A 
HETATM   11  C   UNL     1      43.052 -14.303   6.634  1.00  0.00     0.011 A 
HETATM   12  C   UNL     1      43.543 -15.514   6.140  1.00  0.00     0.038 A 
ENDROOT
BRANCH  10  13
HETATM   13  C   UNL     1      41.955 -12.043   6.272  1.00  0.00     0.273 C 
BRANCH  13  14
HETATM   14  N   UNL     1      42.861 -10.864   6.551  1.00  0.00    -0.067 N 
HETATM   15  H   UNL     1      43.199 -10.516   5.643  1.00  0.00     0.280 HD
HETATM   16  C   UNL     1      42.141  -9.722   7.230  1.00  0.00     0.238 C 
HETATM   17  C   UNL     1      43.112  -8.585   7.490  1.00  0.00     0.071 C 
HETATM   18  C   UNL     1      44.280  -9.022   8.398  1.00  0.00     0.089 C 
HETATM   19  C   UNL     1      44.997 -10.172   7.666  1.00  0.00     0.071 C 
HETATM   20  C   UNL     1      44.075 -11.332   7.328  1.00  0.00     0.238 C 
BRANCH  18  21
HETATM   21  O   UNL     1      45.204  -7.933   8.420  1.00  0.00    -0.385 OA
HETATM   22  H   UNL     1      45.158  -7.471   9.279  1.00  0.00     0.211 HD
ENDBRANCH  18  21
BRANCH  18  23
HETATM   23  C   UNL     1      43.836  -9.301   9.828  1.00  0.00    -0.006 A 
HETATM   24  C   UNL     1      44.066 -10.508  10.486  1.00  0.00     0.126 A 
HETATM   25  N   UNL     1      43.612 -10.811  11.721  1.00  0.00    -0.272 NA
HETATM   26  C   UNL     1      42.966  -9.842  12.399  1.00  0.00     0.116 A 
HETATM   27  C   UNL     1      42.739  -8.584  11.879  1.00  0.00     0.020 A 
HETATM   28  C   UNL     1      43.181  -8.315  10.585  1.00  0.00     0.013 A 
ENDBRANCH  18  23
ENDBRANCH  13  14
ENDBRANCH  10  13
BRANCH   1  29
HETATM   29  C   UNL     1      40.816 -15.674   2.356  1.00  0.00     0.274 C 
BRANCH  29  30
HETATM   30  C   UNL     1      40.170 -14.599   1.536  1.00  0.00    -0.027 A 
HETATM   31  C   UNL     1      39.684 -13.445   2.166  1.00  0.00     0.045 A 
HETATM   32  C   UNL     1      39.219 -12.358   1.421  1.00  0.00     0.071 A 
HETATM   33  C   UNL     1      39.199 -12.428   0.028  1.00  0.00     0.073 A 
HETATM   34  C   UNL     1      39.676 -13.571  -0.616  1.00  0.00     0.071 A 
HETATM   35  C   UNL     1      40.160 -14.647   0.137  1.00  0.00     0.045 A 
BRANCH  32  36
HETATM   36  O   UNL     1      38.823 -11.291   2.179  1.00  0.00    -0.356 OA
HETATM   37  C   UNL     1      39.319 -11.234   3.515  1.00  0.00     0.210 C 
ENDBRANCH  32  36
BRANCH  34  38
HETATM   38  O   UNL     1      39.741 -13.769  -1.967  1.00  0.00    -0.356 OA
HETATM   39  C   UNL     1      38.946 -14.822  -2.506  1.00  0.00     0.210 C 
ENDBRANCH  34  38
ENDBRANCH  29  30
ENDBRANCH   1  29
TORSDOF 8
ENDMDL
MODEL 4
REMARK VINA RESULT:      -8.7      1.656      1.964
REMARK  8 active torsions:
REMARK  status: ('A' for Active; 'I' for Inactive)
REMARK    1  A    between atoms: O_2  and  C_3 
REMARK    2  A    between atoms: C_5  and  O_6 
REMARK    3  A    between atoms: C_9  and  C_10 
REMARK    4  A    between atoms: C_10  and  N_11 
REMARK    5  A    between atoms: C_20  and  C_21 
REMARK    6  A    between atoms: C_21  and  N_22 
REMARK    7  A    between atoms: C_26  and  O_27 
REMARK    8  A    between atoms: C_26  and  C_28 
ROOT
HETATM    1  N   UNL     1      40.975 -15.106   1.189  1.00  0.00    -0.061 N 
HETATM    2  H   UNL     1      41.046 -16.101   0.950  1.00  0.00     0.280 HD
HETATM    3  C   UNL     1      39.776 -15.000   2.108  1.00  0.00     0.276 C 
HETATM    4  C   UNL     1      39.642 -13.651   2.762  1.00  0.00     0.002 A 
HETATM    5  C   UNL     1      39.343 -12.539   1.974  1.00  0.00     0.076 A 
HETATM    6  O   UNL     1      39.173 -12.682   0.625  1.00  0.00    -0.349 OA
HETATM    7  C   UNL     1      40.432 -12.911  -0.029  1.00  0.00     0.203 C 
HETATM    8  C   UNL     1      40.757 -14.408  -0.148  1.00  0.00     0.262 C 
HETATM    9  C   UNL     1      39.891 -13.456   4.133  1.00  0.00     0.020 A 
HETATM   10  C   UNL     1      39.841 -12.168   4.706  1.00  0.00    -0.032 A 
HETATM   11  C   UNL     1      39.484 -11.081   3.891  1.00  0.00     0.011 A 
HETATM   12  C   UNL     1      39.220 -11.272   2.532  1.00  0.00     0.038 A 
ENDROOT
BRANCH  10  13
HETATM   13  C   UNL     1      40.269 -11.958   6.140  1.00  0.00     0.273 C 
BRANCH  13  14
HETATM   14  N   UNL     1      40.703 -10.557   6.517  1.00  0.00    -0.067 N 
HETATM   15  H   UNL     1      40.388  -9.927   5.766  1.00  0.00     0.280 HD
HETATM   16  C   UNL     1      40.072 -10.076   7.803  1.00  0.00     0.238 C 
HETATM   17  C   UNL     1      40.563  -8.676   8.122  1.00  0.00     0.071 C 
HETATM   18  C   UNL     1      42.095  -8.629   8.293  1.00  0.00     0.089 C 
HETATM   19  C   UNL     1      42.700  -9.109   6.961  1.00  0.00     0.071 C 
HETATM   20  C   UNL     1      42.217 -10.490   6.549  1.00  0.00     0.238 C 
BRANCH  18  21
HETATM   21  O   UNL     1      42.446  -7.250   8.411  1.00  0.00    -0.385 OA
HETATM   22  H   UNL     1      43.381  -7.162   8.680  1.00  0.00     0.211 HD
ENDBRANCH  18  21
BRANCH  18  23
HETATM   23  C   UNL     1      42.566  -9.351   9.550  1.00  0.00    -0.006 A 
HETATM   24  C   UNL     1      43.674 -10.196   9.587  1.00  0.00     0.126 A 
HETATM   25  N   UNL     1      44.063 -10.910  10.664  1.00  0.00    -0.272 NA
HETATM   26  C   UNL     1      43.381 -10.723  11.811  1.00  0.00     0.116 A 
HETATM   27  C   UNL     1      42.309  -9.860  11.917  1.00  0.00     0.020 A 
HETATM   28  C   UNL     1      41.904  -9.169  10.776  1.00  0.00     0.013 A 
ENDBRANCH  18  23
ENDBRANCH  13  14
ENDBRANCH  10  13
BRANCH   1  29
HETATM   29  C   UNL     1      42.262 -14.753   1.894  1.00  0.00     0.274 C 
BRANCH  29  30
HETATM   30  C   UNL     1      42.774 -15.757   2.882  1.00  0.00    -0.027 A 
HETATM   31  C   UNL     1      43.142 -17.036   2.442  1.00  0.00     0.045 A 
HETATM   32  C   UNL     1      43.767 -17.942   3.302  1.00  0.00     0.071 A 
HETATM   33  C   UNL     1      44.000 -17.592   4.632  1.00  0.00     0.073 A 
HETATM   34  C   UNL     1      43.637 -16.323   5.088  1.00  0.00     0.071 A 
HETATM   35  C   UNL     1      43.031 -15.413   4.214  1.00  0.00     0.045 A 
BRANCH  32  36
HETATM   36  O   UNL     1      44.104 -19.129   2.712  1.00  0.00    -0.356 OA
HETATM   37  C   UNL     1      43.055 -19.843   2.063  1.00  0.00     0.210 C 
ENDBRANCH  32  36
BRANCH  34  38
HETATM   38  O   UNL     1      43.827 -15.835   6.351  1.00  0.00    -0.356 OA
HETATM   39  C   UNL     1      43.437 -14.484   6.588  1.00  0.00     0.210 C 
ENDBRANCH  34  38
ENDBRANCH  29  30
ENDBRANCH   1  29
TORSDOF 8
ENDMDL
MODEL 5
REMARK VINA RESULT:      -8.7      3.192      9.143
REMARK  8 active torsions:
REMARK  status: ('A' for Active; 'I' for Inactive)
REMARK    1  A    between atoms: O_2  and  C_3 
REMARK    2  A    between atoms: C_5  and  O_6 
REMARK    3  A    between atoms: C_9  and  C_10 
REMARK    4  A    between atoms: C_10  and  N_11 
REMARK    5  A    between atoms: C_20  and  C_21 
REMARK    6  A    between atoms: C_21  and  N_22 
REMARK    7  A    between atoms: C_26  and  O_27 
REMARK    8  A    between atoms: C_26  and  C_28 
ROOT
HETATM    1  N   UNL     1      41.879 -15.657   6.722  1.00  0.00    -0.061 N 
HETATM    2  H   UNL     1      41.444 -15.856   7.630  1.00  0.00     0.280 HD
HETATM    3  C   UNL     1      41.234 -16.623   5.750  1.00  0.00     0.276 C 
HETATM    4  C   UNL     1      41.565 -16.332   4.311  1.00  0.00     0.002 A 
HETATM    5  C   UNL     1      42.876 -16.502   3.866  1.00  0.00     0.076 A 
HETATM    6  O   UNL     1      43.843 -16.931   4.733  1.00  0.00    -0.349 OA
HETATM    7  C   UNL     1      44.203 -15.889   5.656  1.00  0.00     0.203 C 
HETATM    8  C   UNL     1      43.360 -15.939   6.940  1.00  0.00     0.262 C 
HETATM    9  C   UNL     1      40.614 -15.812   3.414  1.00  0.00     0.020 A 
HETATM   10  C   UNL     1      40.969 -15.468   2.094  1.00  0.00    -0.032 A 
HETATM   11  C   UNL     1      42.287 -15.704   1.668  1.00  0.00     0.011 A 
HETATM   12  C   UNL     1      43.232 -16.236   2.548  1.00  0.00     0.038 A 
ENDROOT
BRANCH  10  13
HETATM   13  C   UNL     1      39.977 -14.762   1.199  1.00  0.00     0.273 C 
BRANCH  13  14
HETATM   14  N   UNL     1      40.506 -14.247  -0.123  1.00  0.00    -0.067 N 
HETATM   15  H   UNL     1      41.400 -14.724  -0.300  1.00  0.00     0.280 HD
HETATM   16  C   UNL     1      39.589 -14.563  -1.281  1.00  0.00     0.238 C 
HETATM   17  C   UNL     1      40.175 -14.007  -2.566  1.00  0.00     0.071 C 
HETATM   18  C   UNL     1      40.355 -12.476  -2.500  1.00  0.00     0.089 C 
HETATM   19  C   UNL     1      41.305 -12.196  -1.321  1.00  0.00     0.071 C 
HETATM   20  C   UNL     1      40.807 -12.766  -0.004  1.00  0.00     0.238 C 
BRANCH  18  21
HETATM   21  O   UNL     1      41.069 -12.103  -3.679  1.00  0.00    -0.385 OA
HETATM   22  H   UNL     1      40.692 -12.555  -4.459  1.00  0.00     0.211 HD
ENDBRANCH  18  21
BRANCH  18  23
HETATM   23  C   UNL     1      39.025 -11.731  -2.491  1.00  0.00    -0.006 A 
HETATM   24  C   UNL     1      38.902 -10.376  -2.191  1.00  0.00     0.126 A 
HETATM   25  N   UNL     1      37.731  -9.712  -2.095  1.00  0.00    -0.272 NA
HETATM   26  C   UNL     1      36.607 -10.390  -2.397  1.00  0.00     0.116 A 
HETATM   27  C   UNL     1      36.608 -11.717  -2.775  1.00  0.00     0.020 A 
HETATM   28  C   UNL     1      37.829 -12.388  -2.824  1.00  0.00     0.013 A 
ENDBRANCH  18  23
ENDBRANCH  13  14
ENDBRANCH  10  13
BRANCH   1  29
HETATM   29  C   UNL     1      41.539 -14.221   6.403  1.00  0.00     0.274 C 
BRANCH  29  30
HETATM   30  C   UNL     1      42.698 -13.303   6.161  1.00  0.00    -0.027 A 
HETATM   31  C   UNL     1      42.906 -12.771   4.881  1.00  0.00     0.045 A 
HETATM   32  C   UNL     1      43.879 -11.794   4.655  1.00  0.00     0.071 A 
HETATM   33  C   UNL     1      44.686 -11.360   5.707  1.00  0.00     0.073 A 
HETATM   34  C   UNL     1      44.495 -11.881   6.988  1.00  0.00     0.071 A 
HETATM   35  C   UNL     1      43.504 -12.843   7.211  1.00  0.00     0.045 A 
BRANCH  32  36
HETATM   36  O   UNL     1      43.928 -11.344   3.365  1.00  0.00    -0.356 OA
HETATM   37  C   UNL     1      42.678 -11.151   2.705  1.00  0.00     0.210 C 
ENDBRANCH  32  36
BRANCH  34  38
HETATM   38  O   UNL     1      45.189 -11.532   8.113  1.00  0.00    -0.356 OA
HETATM   39  C   UNL     1      44.851 -10.289   8.722  1.00  0.00     0.210 C 
ENDBRANCH  34  38
ENDBRANCH  29  30
ENDBRANCH   1  29
TORSDOF 8
ENDMDL
MODEL 6
REMARK VINA RESULT:      -8.6      3.156      9.648
REMARK  8 active torsions:
REMARK  status: ('A' for Active; 'I' for Inactive)
REMARK    1  A    between atoms: O_2  and  C_3 
REMARK    2  A    between atoms: C_5  and  O_6 
REMARK    3  A    between atoms: C_9  and  C_10 
REMARK    4  A    between atoms: C_10  and  N_11 
REMARK    5  A    between atoms: C_20  and  C_21 
REMARK    6  A    between atoms: C_21  and  N_22 
REMARK    7  A    between atoms: C_26  and  O_27 
REMARK    8  A    between atoms: C_26  and  C_28 
ROOT
HETATM    1  N   UNL     1      43.211 -15.069   6.512  1.00  0.00    -0.061 N 
HETATM    2  H   UNL     1      43.188 -14.778   7.496  1.00  0.00     0.280 HD
HETATM    3  C   UNL     1      41.805 -15.541   6.203  1.00  0.00     0.276 C 
HETATM    4  C   UNL     1      41.568 -15.791   4.737  1.00  0.00     0.002 A 
HETATM    5  C   UNL     1      42.237 -16.841   4.108  1.00  0.00     0.076 A 
HETATM    6  O   UNL     1      43.094 -17.631   4.822  1.00  0.00    -0.349 OA
HETATM    7  C   UNL     1      44.311 -16.927   5.123  1.00  0.00     0.203 C 
HETATM    8  C   UNL     1      44.235 -16.196   6.472  1.00  0.00     0.262 C 
HETATM    9  C   UNL     1      40.757 -14.947   3.956  1.00  0.00     0.020 A 
HETATM   10  C   UNL     1      40.617 -15.152   2.568  1.00  0.00    -0.032 A 
HETATM   11  C   UNL     1      41.264 -16.251   1.981  1.00  0.00     0.011 A 
HETATM   12  C   UNL     1      42.058 -17.102   2.754  1.00  0.00     0.038 A 
ENDROOT
BRANCH  10  13
HETATM   13  C   UNL     1      39.875 -14.143   1.722  1.00  0.00     0.273 C 
BRANCH  13  14
HETATM   14  N   UNL     1      40.431 -13.881   0.339  1.00  0.00    -0.067 N 
HETATM   15  H   UNL     1      41.365 -14.313   0.298  1.00  0.00     0.280 HD
HETATM   16  C   UNL     1      39.597 -14.510  -0.753  1.00  0.00     0.238 C 
HETATM   17  C   UNL     1      40.205 -14.196  -2.108  1.00  0.00     0.071 C 
HETATM   18  C   UNL     1      40.273 -12.677  -2.370  1.00  0.00     0.089 C 
HETATM   19  C   UNL     1      41.142 -12.077  -1.248  1.00  0.00     0.071 C 
HETATM   20  C   UNL     1      40.620 -12.391   0.144  1.00  0.00     0.238 C 
BRANCH  18  21
HETATM   21  O   UNL     1      41.016 -12.508  -3.577  1.00  0.00    -0.385 OA
HETATM   22  H   UNL     1      41.586 -13.286  -3.734  1.00  0.00     0.211 HD
ENDBRANCH  18  21
BRANCH  18  23
HETATM   23  C   UNL     1      38.896 -12.056  -2.566  1.00  0.00    -0.006 A 
HETATM   24  C   UNL     1      37.727 -12.800  -2.713  1.00  0.00     0.126 A 
HETATM   25  N   UNL     1      36.509 -12.279  -2.970  1.00  0.00    -0.272 NA
HETATM   26  C   UNL     1      36.402 -10.936  -2.999  1.00  0.00     0.116 A 
HETATM   27  C   UNL     1      37.476 -10.092  -2.798  1.00  0.00     0.020 A 
HETATM   28  C   UNL     1      38.729 -10.660  -2.577  1.00  0.00     0.013 A 
ENDBRANCH  18  23
ENDBRANCH  13  14
ENDBRANCH  10  13
BRANCH   1  29
HETATM   29  C   UNL     1      43.580 -13.837   5.721  1.00  0.00     0.274 C 
BRANCH  29  30
HETATM   30  C   UNL     1      43.445 -12.526   6.433  1.00  0.00    -0.027 A 
HETATM   31  C   UNL     1      44.530 -12.016   7.160  1.00  0.00     0.045 A 
HETATM   32  C   UNL     1      44.493 -10.730   7.704  1.00  0.00     0.071 A 
HETATM   33  C   UNL     1      43.348  -9.946   7.559  1.00  0.00     0.073 A 
HETATM   34  C   UNL     1      42.257 -10.439   6.841  1.00  0.00     0.071 A 
HETATM   35  C   UNL     1      42.310 -11.720   6.280  1.00  0.00     0.045 A 
BRANCH  32  36
HETATM   36  O   UNL     1      45.644 -10.363   8.344  1.00  0.00    -0.356 OA
HETATM   37  C   UNL     1      45.835  -8.968   8.570  1.00  0.00     0.210 C 
ENDBRANCH  32  36
BRANCH  34  38
HETATM   38  O   UNL     1      41.086  -9.776   6.597  1.00  0.00    -0.356 OA
HETATM   39  C   UNL     1      39.912 -10.571   6.447  1.00  0.00     0.210 C 
ENDBRANCH  34  38
ENDBRANCH  29  30
ENDBRANCH   1  29
TORSDOF 8
ENDMDL
MODEL 7
REMARK VINA RESULT:      -8.5      1.692      4.798
REMARK  8 active torsions:
REMARK  status: ('A' for Active; 'I' for Inactive)
REMARK    1  A    between atoms: O_2  and  C_3 
REMARK    2  A    between atoms: C_5  and  O_6 
REMARK    3  A    between atoms: C_9  and  C_10 
REMARK    4  A    between atoms: C_10  and  N_11 
REMARK    5  A    between atoms: C_20  and  C_21 
REMARK    6  A    between atoms: C_21  and  N_22 
REMARK    7  A    between atoms: C_26  and  O_27 
REMARK    8  A    between atoms: C_26  and  C_28 
ROOT
HETATM    1  N   UNL     1      42.282 -15.791   1.780  1.00  0.00    -0.061 N 
HETATM    2  H   UNL     1      42.390 -15.741   0.760  1.00  0.00     0.280 HD
HETATM    3  C   UNL     1      43.313 -14.832   2.338  1.00  0.00     0.276 C 
HETATM    4  C   UNL     1      43.157 -14.581   3.814  1.00  0.00     0.002 A 
HETATM    5  C   UNL     1      43.397 -15.621   4.711  1.00  0.00     0.076 A 
HETATM    6  O   UNL     1      43.773 -16.851   4.247  1.00  0.00    -0.349 OA
HETATM    7  C   UNL     1      42.664 -17.528   3.632  1.00  0.00     0.203 C 
HETATM    8  C   UNL     1      42.580 -17.245   2.124  1.00  0.00     0.262 C 
HETATM    9  C   UNL     1      42.693 -13.352   4.319  1.00  0.00     0.020 A 
HETATM   10  C   UNL     1      42.475 -13.168   5.700  1.00  0.00    -0.032 A 
HETATM   11  C   UNL     1      42.780 -14.222   6.576  1.00  0.00     0.011 A 
HETATM   12  C   UNL     1      43.256 -15.439   6.082  1.00  0.00     0.038 A 
ENDROOT
BRANCH  10  13
HETATM   13  C   UNL     1      41.825 -11.900   6.204  1.00  0.00     0.273 C 
BRANCH  13  14
HETATM   14  N   UNL     1      42.751 -10.740   6.506  1.00  0.00    -0.067 N 
HETATM   15  H   UNL     1      43.078 -10.368   5.603  1.00  0.00     0.280 HD
HETATM   16  C   UNL     1      42.055  -9.612   7.232  1.00  0.00     0.238 C 
HETATM   17  C   UNL     1      43.044  -8.496   7.511  1.00  0.00     0.071 C 
HETATM   18  C   UNL     1      44.221  -8.975   8.385  1.00  0.00     0.089 C 
HETATM   19  C   UNL     1      44.913 -10.109   7.606  1.00  0.00     0.071 C 
HETATM   20  C   UNL     1      43.971 -11.247   7.247  1.00  0.00     0.238 C 
BRANCH  18  21
HETATM   21  O   UNL     1      45.158  -7.898   8.427  1.00  0.00    -0.385 OA
HETATM   22  H   UNL     1      44.859  -7.215   9.058  1.00  0.00     0.211 HD
ENDBRANCH  18  21
BRANCH  18  23
HETATM   23  C   UNL     1      43.797  -9.294   9.813  1.00  0.00    -0.006 A 
HETATM   24  C   UNL     1      44.073 -10.504  10.449  1.00  0.00     0.126 A 
HETATM   25  N   UNL     1      43.639 -10.843  11.681  1.00  0.00    -0.272 NA
HETATM   26  C   UNL     1      42.964  -9.910  12.380  1.00  0.00     0.116 A 
HETATM   27  C   UNL     1      42.690  -8.651  11.884  1.00  0.00     0.020 A 
HETATM   28  C   UNL     1      43.114  -8.344  10.592  1.00  0.00     0.013 A 
ENDBRANCH  18  23
ENDBRANCH  13  14
ENDBRANCH  10  13
BRANCH   1  29
HETATM   29  C   UNL     1      40.872 -15.339   2.072  1.00  0.00     0.274 C 
BRANCH  29  30
HETATM   30  C   UNL     1      40.308 -14.293   1.159  1.00  0.00    -0.027 A 
HETATM   31  C   UNL     1      40.265 -14.528  -0.222  1.00  0.00     0.045 A 
HETATM   32  C   UNL     1      39.607 -13.647  -1.084  1.00  0.00     0.071 A 
HETATM   33  C   UNL     1      39.013 -12.491  -0.577  1.00  0.00     0.073 A 
HETATM   34  C   UNL     1      39.048 -12.239   0.796  1.00  0.00     0.071 A 
HETATM   35  C   UNL     1      39.690 -13.138   1.656  1.00  0.00     0.045 A 
BRANCH  32  36
HETATM   36  O   UNL     1      39.615 -14.039  -2.394  1.00  0.00    -0.356 OA
HETATM   37  C   UNL     1      38.738 -15.106  -2.749  1.00  0.00     0.210 C 
ENDBRANCH  32  36
BRANCH  34  38
HETATM   38  O   UNL     1      38.489 -11.168   1.434  1.00  0.00    -0.356 OA
HETATM   39  C   UNL     1      39.377 -10.152   1.895  1.00  0.00     0.210 C 
ENDBRANCH  34  38
ENDBRANCH  29  30
ENDBRANCH   1  29
TORSDOF 8
ENDMDL
MODEL 8
REMARK VINA RESULT:      -8.3      2.811      9.154
REMARK  8 active torsions:
REMARK  status: ('A' for Active; 'I' for Inactive)
REMARK    1  A    between atoms: O_2  and  C_3 
REMARK    2  A    between atoms: C_5  and  O_6 
REMARK    3  A    between atoms: C_9  and  C_10 
REMARK    4  A    between atoms: C_10  and  N_11 
REMARK    5  A    between atoms: C_20  and  C_21 
REMARK    6  A    between atoms: C_21  and  N_22 
REMARK    7  A    between atoms: C_26  and  O_27 
REMARK    8  A    between atoms: C_26  and  C_28 
ROOT
HETATM    1  N   UNL     1      41.608  -7.811   8.247  1.00  0.00    -0.061 N 
HETATM    2  H   UNL     1      40.636  -7.525   8.409  1.00  0.00     0.280 HD
HETATM    3  C   UNL     1      41.736  -9.174   8.895  1.00  0.00     0.276 C 
HETATM    4  C   UNL     1      43.028  -9.873   8.564  1.00  0.00     0.002 A 
HETATM    5  C   UNL     1      44.228  -9.349   9.044  1.00  0.00     0.076 A 
HETATM    6  O   UNL     1      44.223  -8.216   9.808  1.00  0.00    -0.349 OA
HETATM    7  C   UNL     1      43.943  -7.057   9.004  1.00  0.00     0.203 C 
HETATM    8  C   UNL     1      42.440  -6.744   8.948  1.00  0.00     0.262 C 
HETATM    9  C   UNL     1      43.076 -10.993   7.714  1.00  0.00     0.020 A 
HETATM   10  C   UNL     1      44.306 -11.580   7.351  1.00  0.00    -0.032 A 
HETATM   11  C   UNL     1      45.489 -11.057   7.898  1.00  0.00     0.011 A 
HETATM   12  C   UNL     1      45.446  -9.955   8.755  1.00  0.00     0.038 A 
ENDROOT
BRANCH  10  13
HETATM   13  C   UNL     1      44.347 -12.677   6.312  1.00  0.00     0.273 C 
BRANCH  13  14
HETATM   14  N   UNL     1      43.053 -13.421   6.063  1.00  0.00    -0.067 N 
HETATM   15  H   UNL     1      42.284 -12.810   6.375  1.00  0.00     0.280 HD
HETATM   16  C   UNL     1      42.824 -13.720   4.600  1.00  0.00     0.238 C 
HETATM   17  C   UNL     1      41.519 -14.476   4.429  1.00  0.00     0.071 C 
HETATM   18  C   UNL     1      41.525 -15.814   5.197  1.00  0.00     0.089 C 
HETATM   19  C   UNL     1      41.743 -15.466   6.682  1.00  0.00     0.071 C 
HETATM   20  C   UNL     1      43.011 -14.665   6.927  1.00  0.00     0.238 C 
BRANCH  18  21
HETATM   21  O   UNL     1      40.199 -16.338   5.106  1.00  0.00    -0.385 OA
HETATM   22  H   UNL     1      40.108 -17.126   5.676  1.00  0.00     0.211 HD
ENDBRANCH  18  21
BRANCH  18  23
HETATM   23  C   UNL     1      42.483 -16.832   4.591  1.00  0.00    -0.006 A 
HETATM   24  C   UNL     1      43.350 -17.620   5.345  1.00  0.00     0.126 A 
HETATM   25  N   UNL     1      44.266 -18.468   4.830  1.00  0.00    -0.272 NA
HETATM   26  C   UNL     1      44.279 -18.628   3.493  1.00  0.00     0.116 A 
HETATM   27  C   UNL     1      43.422 -17.955   2.646  1.00  0.00     0.020 A 
HETATM   28  C   UNL     1      42.517 -17.053   3.204  1.00  0.00     0.013 A 
ENDBRANCH  18  23
ENDBRANCH  13  14
ENDBRANCH  10  13
BRANCH   1  29
HETATM   29  C   UNL     1      41.780  -7.878   6.749  1.00  0.00     0.274 C 
BRANCH  29  30
HETATM   30  C   UNL     1      40.717  -8.615   5.992  1.00  0.00    -0.027 A 
HETATM   31  C   UNL     1      39.384  -8.193   6.081  1.00  0.00     0.045 A 
HETATM   32  C   UNL     1      38.394  -8.755   5.271  1.00  0.00     0.071 A 
HETATM   33  C   UNL     1      38.721  -9.779   4.382  1.00  0.00     0.073 A 
HETATM   34  C   UNL     1      40.044 -10.213   4.282  1.00  0.00     0.071 A 
HETATM   35  C   UNL     1      41.034  -9.630   5.081  1.00  0.00     0.045 A 
BRANCH  32  36
HETATM   36  O   UNL     1      37.154  -8.205   5.445  1.00  0.00    -0.356 OA
HETATM   37  C   UNL     1      37.094  -6.788   5.583  1.00  0.00     0.210 C 
ENDBRANCH  32  36
BRANCH  34  38
HETATM   38  O   UNL     1      40.513 -11.184   3.441  1.00  0.00    -0.356 OA
HETATM   39  C   UNL     1      41.563 -10.816   2.550  1.00  0.00     0.210 C 
ENDBRANCH  34  38
ENDBRANCH  29  30
ENDBRANCH   1  29
TORSDOF 8
ENDMDL
MODEL 9
REMARK VINA RESULT:      -8.3      3.467      9.395
REMARK  8 active torsions:
REMARK  status: ('A' for Active; 'I' for Inactive)
REMARK    1  A    between atoms: O_2  and  C_3 
REMARK    2  A    between atoms: C_5  and  O_6 
REMARK    3  A    between atoms: C_9  and  C_10 
REMARK    4  A    between atoms: C_10  and  N_11 
REMARK    5  A    between atoms: C_20  and  C_21 
REMARK    6  A    between atoms: C_21  and  N_22 
REMARK    7  A    between atoms: C_26  and  O_27 
REMARK    8  A    between atoms: C_26  and  C_28 
ROOT
HETATM    1  N   UNL     1      41.602 -13.967   6.446  1.00  0.00    -0.061 N 
HETATM    2  H   UNL     1      41.173 -13.535   7.272  1.00  0.00     0.280 HD
HETATM    3  C   UNL     1      40.646 -15.064   6.026  1.00  0.00     0.276 C 
HETATM    4  C   UNL     1      40.978 -15.666   4.687  1.00  0.00     0.002 A 
HETATM    5  C   UNL     1      42.151 -16.407   4.546  1.00  0.00     0.076 A 
HETATM    6  O   UNL     1      42.982 -16.584   5.618  1.00  0.00    -0.349 OA
HETATM    7  C   UNL     1      43.689 -15.370   5.924  1.00  0.00     0.203 C 
HETATM    8  C   UNL     1      42.936 -14.507   6.948  1.00  0.00     0.262 C 
HETATM    9  C   UNL     1      40.188 -15.435   3.546  1.00  0.00     0.020 A 
HETATM   10  C   UNL     1      40.565 -15.940   2.285  1.00  0.00    -0.032 A 
HETATM   11  C   UNL     1      41.725 -16.728   2.194  1.00  0.00     0.011 A 
HETATM   12  C   UNL     1      42.505 -16.973   3.326  1.00  0.00     0.038 A 
ENDROOT
BRANCH  10  13
HETATM   13  C   UNL     1      39.793 -15.547   1.047  1.00  0.00     0.273 C 
BRANCH  13  14
HETATM   14  N   UNL     1      40.468 -14.566   0.112  1.00  0.00    -0.067 N 
HETATM   15  H   UNL     1      41.438 -14.886  -0.018  1.00  0.00     0.280 HD
HETATM   16  C   UNL     1      39.821 -14.522  -1.253  1.00  0.00     0.238 C 
HETATM   17  C   UNL     1      40.540 -13.511  -2.128  1.00  0.00     0.071 C 
HETATM   18  C   UNL     1      40.489 -12.091  -1.526  1.00  0.00     0.089 C 
HETATM   19  C   UNL     1      41.170 -12.175  -0.147  1.00  0.00     0.071 C 
HETATM   20  C   UNL     1      40.533 -13.204   0.772  1.00  0.00     0.238 C 
BRANCH  18  21
HETATM   21  O   UNL     1      41.340 -11.279  -2.337  1.00  0.00    -0.385 OA
HETATM   22  H   UNL     1      41.380 -10.371  -1.979  1.00  0.00     0.211 HD
ENDBRANCH  18  21
BRANCH  18  23
HETATM   23  C   UNL     1      39.088 -11.493  -1.555  1.00  0.00    -0.006 A 
HETATM   24  C   UNL     1      38.576 -10.677  -0.548  1.00  0.00     0.126 A 
HETATM   25  N   UNL     1      37.313 -10.203  -0.509  1.00  0.00    -0.272 NA
HETATM   26  C   UNL     1      36.519 -10.466  -1.565  1.00  0.00     0.116 A 
HETATM   27  C   UNL     1      36.935 -11.204  -2.654  1.00  0.00     0.020 A 
HETATM   28  C   UNL     1      38.231 -11.717  -2.647  1.00  0.00     0.013 A 
ENDBRANCH  18  23
ENDBRANCH  13  14
ENDBRANCH  10  13
BRANCH   1  29
HETATM   29  C   UNL     1      41.702 -12.875   5.409  1.00  0.00     0.274 C 
BRANCH  29  30
HETATM   30  C   UNL     1      40.642 -11.816   5.456  1.00  0.00    -0.027 A 
HETATM   31  C   UNL     1      40.033 -11.391   4.267  1.00  0.00     0.045 A 
HETATM   32  C   UNL     1      38.938 -10.524   4.288  1.00  0.00     0.071 A 
HETATM   33  C   UNL     1      38.459 -10.037   5.505  1.00  0.00     0.073 A 
HETATM   34  C   UNL     1      39.056 -10.447   6.698  1.00  0.00     0.071 A 
HETATM   35  C   UNL     1      40.138 -11.334   6.670  1.00  0.00     0.045 A 
BRANCH  32  36
HETATM   36  O   UNL     1      38.429 -10.240   3.051  1.00  0.00    -0.356 OA
HETATM   37  C   UNL     1      37.997  -8.900   2.827  1.00  0.00     0.210 C 
ENDBRANCH  32  36
BRANCH  34  38
HETATM   38  O   UNL     1      38.678 -10.075   7.958  1.00  0.00    -0.356 OA
HETATM   39  C   UNL     1      39.620  -9.323   8.721  1.00  0.00     0.210 C 
ENDBRANCH  34  38
ENDBRANCH  29  30
ENDBRANCH   1  29
TORSDOF 8
ENDMDL
MODEL 10
REMARK VINA RESULT:      -8.2      2.800      9.125
REMARK  8 active torsions:
REMARK  status: ('A' for Active; 'I' for Inactive)
REMARK    1  A    between atoms: O_2  and  C_3 
REMARK    2  A    between atoms: C_5  and  O_6 
REMARK    3  A    between atoms: C_9  and  C_10 
REMARK    4  A    between atoms: C_10  and  N_11 
REMARK    5  A    between atoms: C_20  and  C_21 
REMARK    6  A    between atoms: C_21  and  N_22 
REMARK    7  A    between atoms: C_26  and  O_27 
REMARK    8  A    between atoms: C_26  and  C_28 
ROOT
HETATM    1  N   UNL     1      41.071  -7.710   7.743  1.00  0.00    -0.061 N 
HETATM    2  H   UNL     1      41.816  -7.158   8.184  1.00  0.00     0.280 HD
HETATM    3  C   UNL     1      41.625  -8.124   6.395  1.00  0.00     0.276 C 
HETATM    4  C   UNL     1      40.772  -9.142   5.687  1.00  0.00     0.002 A 
HETATM    5  C   UNL     1      39.503  -8.775   5.239  1.00  0.00     0.076 A 
HETATM    6  O   UNL     1      39.048  -7.502   5.441  1.00  0.00    -0.349 OA
HETATM    7  C   UNL     1      38.711  -7.291   6.823  1.00  0.00     0.203 C 
HETATM    8  C   UNL     1      39.899  -6.744   7.629  1.00  0.00     0.262 C 
HETATM    9  C   UNL     1      41.176 -10.481   5.535  1.00  0.00     0.020 A 
HETATM   10  C   UNL     1      40.325 -11.437   4.943  1.00  0.00    -0.032 A 
HETATM   11  C   UNL     1      39.077 -11.016   4.456  1.00  0.00     0.011 A 
HETATM   12  C   UNL     1      38.676  -9.685   4.589  1.00  0.00     0.038 A 
ENDROOT
BRANCH  10  13
HETATM   13  C   UNL     1      40.711 -12.898   4.936  1.00  0.00     0.273 C 
BRANCH  13  14
HETATM   14  N   UNL     1      41.295 -13.436   3.647  1.00  0.00    -0.067 N 
HETATM   15  H   UNL     1      41.080 -12.754   2.906  1.00  0.00     0.280 HD
HETATM   16  C   UNL     1      42.798 -13.582   3.703  1.00  0.00     0.238 C 
HETATM   17  C   UNL     1      43.308 -14.138   2.385  1.00  0.00     0.071 C 
HETATM   18  C   UNL     1      42.702 -15.521   2.071  1.00  0.00     0.089 C 
HETATM   19  C   UNL     1      41.176 -15.327   2.006  1.00  0.00     0.071 C 
HETATM   20  C   UNL     1      40.596 -14.729   3.277  1.00  0.00     0.238 C 
BRANCH  18  21
HETATM   21  O   UNL     1      43.114 -15.850   0.744  1.00  0.00    -0.385 OA
HETATM   22  H   UNL     1      43.496 -15.065   0.305  1.00  0.00     0.211 HD
ENDBRANCH  18  21
BRANCH  18  23
HETATM   23  C   UNL     1      43.209 -16.608   3.012  1.00  0.00    -0.006 A 
HETATM   24  C   UNL     1      43.520 -16.386   4.352  1.00  0.00     0.126 A 
HETATM   25  N   UNL     1      44.047 -17.309   5.184  1.00  0.00    -0.272 NA
HETATM   26  C   UNL     1      44.200 -18.559   4.705  1.00  0.00     0.116 A 
HETATM   27  C   UNL     1      43.863 -18.918   3.416  1.00  0.00     0.020 A 
HETATM   28  C   UNL     1      43.361 -17.933   2.567  1.00  0.00     0.013 A 
ENDBRANCH  18  23
ENDBRANCH  13  14
ENDBRANCH  10  13
BRANCH   1  29
HETATM   29  C   UNL     1      40.840  -8.896   8.648  1.00  0.00     0.274 C 
BRANCH  29  30
HETATM   30  C   UNL     1      42.017  -9.356   9.454  1.00  0.00    -0.027 A 
HETATM   31  C   UNL     1      41.908  -9.448  10.849  1.00  0.00     0.045 A 
HETATM   32  C   UNL     1      42.928 -10.018  11.615  1.00  0.00     0.071 A 
HETATM   33  C   UNL     1      44.092 -10.472  10.996  1.00  0.00     0.073 A 
HETATM   34  C   UNL     1      44.219 -10.385   9.608  1.00  0.00     0.071 A 
HETATM   35  C   UNL     1      43.184  -9.833   8.845  1.00  0.00     0.045 A 
BRANCH  32  36
HETATM   36  O   UNL     1      42.652 -10.076  12.953  1.00  0.00    -0.356 OA
HETATM   37  C   UNL     1      42.332  -8.844  13.596  1.00  0.00     0.210 C 
ENDBRANCH  32  36
BRANCH  34  38
HETATM   38  O   UNL     1      45.285 -10.811   8.867  1.00  0.00    -0.356 OA
HETATM   39  C   UNL     1      46.012  -9.818   8.148  1.00  0.00     0.210 C 
ENDBRANCH  34  38
ENDBRANCH  29  30
ENDBRANCH   1  29
TORSDOF 8
ENDMDL
