MODEL 1
REMARK VINA RESULT:      -7.6      0.000      0.000
REMARK  5 active torsions:
REMARK  status: ('A' for Active; 'I' for Inactive)
REMARK    1  A    between atoms: C_3  and  N_4 
REMARK       I    between atoms: N_4  and  C_5 
REMARK       I    between atoms: C_5  and  N_6 
REMARK    2  A    between atoms: N_6  and  C_7 
REMARK    3  A    between atoms: C_7  and  C_8 
REMARK    4  A    between atoms: C_8  and  O_9 
REMARK    5  A    between atoms: O_9  and  C_10 
ROOT
HETATM    1  N   UNL     1      43.568 -12.396   7.665  1.00  0.00    -0.307 N 
HETATM    2  C   UNL     1      42.670 -12.537   6.644  1.00  0.00     0.320 C 
HETATM    3  N   UNL     1      42.185 -13.801   6.470  1.00  0.00    -0.340 N 
HETATM    4  O   UNL     1      42.248 -11.651   5.912  1.00  0.00    -0.247 OA
HETATM    5  H   UNL     1      43.406 -13.042   8.420  1.00  0.00     0.170 HD
HETATM    6  H   UNL     1      41.625 -13.864   5.624  1.00  0.00     0.164 HD
ENDROOT
BRANCH   3   7
HETATM    7  C   UNL     1      42.692 -15.060   7.003  1.00  0.00     0.156 C 
BRANCH   7   8
HETATM    8  C   UNL     1      42.328 -16.269   6.124  1.00  0.00     0.142 C 
HETATM    9  C   UNL     1      41.029 -16.037   5.352  1.00  0.00     0.042 C 
BRANCH   8  10
HETATM   10  O   UNL     1      43.366 -16.480   5.157  1.00  0.00    -0.343 OA
BRANCH  10  11
HETATM   11  C   UNL     1      43.542 -17.745   4.665  1.00  0.00     0.086 A 
HETATM   12  C   UNL     1      43.471 -17.913   3.274  1.00  0.00     0.044 A 
HETATM   13 BR   UNL     1      43.095 -16.452   2.118  1.00  0.00    -0.048 Br
HETATM   14  C   UNL     1      43.664 -19.170   2.695  1.00  0.00     0.022 A 
HETATM   15  C   UNL     1      43.942 -20.271   3.502  1.00  0.00     0.002 A 
HETATM   16  C   UNL     1      44.038 -20.112   4.883  1.00  0.00     0.003 A 
HETATM   17  C   UNL     1      43.848 -18.854   5.462  1.00  0.00     0.038 A 
ENDBRANCH  10  11
ENDBRANCH   8  10
ENDBRANCH   7   8
ENDBRANCH   3   7
BRANCH   1  18
HETATM   18  C   UNL     1      44.320 -11.246   8.010  1.00  0.00     0.059 A 
HETATM   19  C   UNL     1      45.451 -10.745   7.349  1.00  0.00    -0.032 A 
HETATM   20  C   UNL     1      46.117 -11.387   6.167  1.00  0.00     0.050 C 
HETATM   21  C   UNL     1      46.031  -9.557   7.834  1.00  0.00     0.028 A 
HETATM   22  C   UNL     1      45.521  -8.954   8.972  1.00  0.00     0.117 A 
HETATM   23  N   UNL     1      44.481  -9.444   9.667  1.00  0.00    -0.271 NA
HETATM   24  C   UNL     1      43.914 -10.569   9.168  1.00  0.00     0.146 A 
ENDBRANCH   1  18
TORSDOF 5
ENDMDL
MODEL 2
REMARK VINA RESULT:      -7.4      1.513      1.916
REMARK  5 active torsions:
REMARK  status: ('A' for Active; 'I' for Inactive)
REMARK    1  A    between atoms: C_3  and  N_4 
REMARK       I    between atoms: N_4  and  C_5 
REMARK       I    between atoms: C_5  and  N_6 
REMARK    2  A    between atoms: N_6  and  C_7 
REMARK    3  A    between atoms: C_7  and  C_8 
REMARK    4  A    between atoms: C_8  and  O_9 
REMARK    5  A    between atoms: O_9  and  C_10 
ROOT
HETATM    1  N   UNL     1      43.015 -11.797   7.218  1.00  0.00    -0.307 N 
HETATM    2  C   UNL     1      42.160 -11.516   6.190  1.00  0.00     0.320 C 
HETATM    3  N   UNL     1      41.386 -12.563   5.777  1.00  0.00    -0.340 N 
HETATM    4  O   UNL     1      42.006 -10.433   5.640  1.00  0.00    -0.247 OA
HETATM    5  H   UNL     1      42.662 -12.510   7.836  1.00  0.00     0.170 HD
HETATM    6  H   UNL     1      40.869 -12.325   4.935  1.00  0.00     0.164 HD
ENDROOT
BRANCH   3   7
HETATM    7  C   UNL     1      41.539 -13.985   6.060  1.00  0.00     0.156 C 
BRANCH   7   8
HETATM    8  C   UNL     1      41.451 -14.857   4.796  1.00  0.00     0.142 C 
HETATM    9  C   UNL     1      40.623 -14.184   3.701  1.00  0.00     0.042 C 
BRANCH   8  10
HETATM   10  O   UNL     1      42.770 -15.059   4.269  1.00  0.00    -0.343 OA
BRANCH  10  11
HETATM   11  C   UNL     1      43.119 -16.320   3.868  1.00  0.00     0.086 A 
HETATM   12  C   UNL     1      43.899 -17.085   4.747  1.00  0.00     0.044 A 
HETATM   13 BR   UNL     1      44.491 -16.383   6.411  1.00  0.00    -0.048 Br
HETATM   14  C   UNL     1      44.275 -18.390   4.418  1.00  0.00     0.022 A 
HETATM   15  C   UNL     1      43.865 -18.947   3.209  1.00  0.00     0.002 A 
HETATM   16  C   UNL     1      43.071 -18.205   2.338  1.00  0.00     0.003 A 
HETATM   17  C   UNL     1      42.691 -16.901   2.668  1.00  0.00     0.038 A 
ENDBRANCH  10  11
ENDBRANCH   8  10
ENDBRANCH   7   8
ENDBRANCH   3   7
BRANCH   1  18
HETATM   18  C   UNL     1      44.010 -10.958   7.776  1.00  0.00     0.059 A 
HETATM   19  C   UNL     1      45.301 -10.729   7.277  1.00  0.00    -0.032 A 
HETATM   20  C   UNL     1      45.891 -11.394   6.067  1.00  0.00     0.050 C 
HETATM   21  C   UNL     1      46.127  -9.821   7.966  1.00  0.00     0.028 A 
HETATM   22  C   UNL     1      45.681  -9.233   9.138  1.00  0.00     0.117 A 
HETATM   23  N   UNL     1      44.476  -9.482   9.679  1.00  0.00    -0.271 NA
HETATM   24  C   UNL     1      43.681 -10.332   8.986  1.00  0.00     0.146 A 
ENDBRANCH   1  18
TORSDOF 5
ENDMDL
MODEL 3
REMARK VINA RESULT:      -7.4      2.188      3.197
REMARK  5 active torsions:
REMARK  status: ('A' for Active; 'I' for Inactive)
REMARK    1  A    between atoms: C_3  and  N_4 
REMARK       I    between atoms: N_4  and  C_5 
REMARK       I    between atoms: C_5  and  N_6 
REMARK    2  A    between atoms: N_6  and  C_7 
REMARK    3  A    between atoms: C_7  and  C_8 
REMARK    4  A    between atoms: C_8  and  O_9 
REMARK    5  A    between atoms: O_9  and  C_10 
ROOT
HETATM    1  N   UNL     1      41.844 -13.013   5.159  1.00  0.00    -0.307 N 
HETATM    2  C   UNL     1      40.660 -13.679   5.307  1.00  0.00     0.320 C 
HETATM    3  N   UNL     1      40.221 -14.335   4.192  1.00  0.00    -0.340 N 
HETATM    4  O   UNL     1      39.990 -13.765   6.327  1.00  0.00    -0.247 OA
HETATM    5  H   UNL     1      42.457 -13.449   4.490  1.00  0.00     0.170 HD
HETATM    6  H   UNL     1      39.283 -14.700   4.328  1.00  0.00     0.164 HD
ENDROOT
BRANCH   3   7
HETATM    7  C   UNL     1      40.664 -14.192   2.810  1.00  0.00     0.156 C 
BRANCH   7   8
HETATM    8  C   UNL     1      41.802 -15.161   2.445  1.00  0.00     0.142 C 
HETATM    9  C   UNL     1      43.054 -14.414   1.983  1.00  0.00     0.042 C 
BRANCH   8  10
HETATM   10  O   UNL     1      42.165 -15.922   3.605  1.00  0.00    -0.343 OA
BRANCH  10  11
HETATM   11  C   UNL     1      42.784 -17.128   3.418  1.00  0.00     0.086 A 
HETATM   12  C   UNL     1      43.672 -17.560   4.415  1.00  0.00     0.044 A 
HETATM   13 BR   UNL     1      44.040 -16.491   5.944  1.00  0.00    -0.048 Br
HETATM   14  C   UNL     1      44.324 -18.791   4.307  1.00  0.00     0.022 A 
HETATM   15  C   UNL     1      44.087 -19.608   3.204  1.00  0.00     0.002 A 
HETATM   16  C   UNL     1      43.190 -19.200   2.219  1.00  0.00     0.003 A 
HETATM   17  C   UNL     1      42.534 -17.971   2.329  1.00  0.00     0.038 A 
ENDBRANCH  10  11
ENDBRANCH   8  10
ENDBRANCH   7   8
ENDBRANCH   3   7
BRANCH   1  18
HETATM   18  C   UNL     1      42.484 -12.159   6.091  1.00  0.00     0.059 A 
HETATM   19  C   UNL     1      42.169 -10.821   6.367  1.00  0.00    -0.032 A 
HETATM   20  C   UNL     1      41.111 -10.018   5.664  1.00  0.00     0.050 C 
HETATM   21  C   UNL     1      42.907 -10.157   7.365  1.00  0.00     0.028 A 
HETATM   22  C   UNL     1      43.954 -10.807   7.997  1.00  0.00     0.117 A 
HETATM   23  N   UNL     1      44.325 -12.066   7.710  1.00  0.00    -0.271 NA
HETATM   24  C   UNL     1      43.583 -12.702   6.771  1.00  0.00     0.146 A 
ENDBRANCH   1  18
TORSDOF 5
ENDMDL
MODEL 4
REMARK VINA RESULT:      -7.3      2.641      3.626
REMARK  5 active torsions:
REMARK  status: ('A' for Active; 'I' for Inactive)
REMARK    1  A    between atoms: C_3  and  N_4 
REMARK       I    between atoms: N_4  and  C_5 
REMARK       I    between atoms: C_5  and  N_6 
REMARK    2  A    between atoms: N_6  and  C_7 
REMARK    3  A    between atoms: C_7  and  C_8 
REMARK    4  A    between atoms: C_8  and  O_9 
REMARK    5  A    between atoms: O_9  and  C_10 
ROOT
HETATM    1  N   UNL     1      41.848 -13.986   4.469  1.00  0.00    -0.307 N 
HETATM    2  C   UNL     1      41.091 -15.044   4.885  1.00  0.00     0.320 C 
HETATM    3  N   UNL     1      40.942 -16.046   3.969  1.00  0.00    -0.340 N 
HETATM    4  O   UNL     1      40.572 -15.187   5.985  1.00  0.00    -0.247 OA
HETATM    5  H   UNL     1      42.562 -14.251   3.810  1.00  0.00     0.170 HD
HETATM    6  H   UNL     1      40.271 -16.737   4.289  1.00  0.00     0.164 HD
ENDROOT
BRANCH   3   7
HETATM    7  C   UNL     1      41.216 -16.028   2.537  1.00  0.00     0.156 C 
BRANCH   7   8
HETATM    8  C   UNL     1      42.616 -16.563   2.191  1.00  0.00     0.142 C 
HETATM    9  C   UNL     1      43.468 -15.505   1.489  1.00  0.00     0.042 C 
BRANCH   8  10
HETATM   10  O   UNL     1      43.297 -16.924   3.401  1.00  0.00    -0.343 OA
BRANCH  10  11
HETATM   11  C   UNL     1      43.551 -18.250   3.627  1.00  0.00     0.086 A 
HETATM   12  C   UNL     1      43.781 -18.646   4.953  1.00  0.00     0.044 A 
HETATM   13 BR   UNL     1      43.788 -17.386   6.376  1.00  0.00    -0.048 Br
HETATM   14  C   UNL     1      44.024 -19.986   5.266  1.00  0.00     0.022 A 
HETATM   15  C   UNL     1      44.029 -20.946   4.256  1.00  0.00     0.002 A 
HETATM   16  C   UNL     1      43.780 -20.568   2.939  1.00  0.00     0.003 A 
HETATM   17  C   UNL     1      43.533 -19.228   2.625  1.00  0.00     0.038 A 
ENDBRANCH  10  11
ENDBRANCH   8  10
ENDBRANCH   7   8
ENDBRANCH   3   7
BRANCH   1  18
HETATM   18  C   UNL     1      42.081 -12.763   5.146  1.00  0.00     0.059 A 
HETATM   19  C   UNL     1      43.037 -12.517   6.143  1.00  0.00    -0.032 A 
HETATM   20  C   UNL     1      43.964 -13.545   6.725  1.00  0.00     0.050 C 
HETATM   21  C   UNL     1      43.133 -11.212   6.663  1.00  0.00     0.028 A 
HETATM   22  C   UNL     1      42.253 -10.232   6.235  1.00  0.00     0.117 A 
HETATM   23  N   UNL     1      41.283 -10.451   5.331  1.00  0.00    -0.271 NA
HETATM   24  C   UNL     1      41.226 -11.702   4.816  1.00  0.00     0.146 A 
ENDBRANCH   1  18
TORSDOF 5
ENDMDL
MODEL 5
REMARK VINA RESULT:      -7.2      2.760      8.440
REMARK  5 active torsions:
REMARK  status: ('A' for Active; 'I' for Inactive)
REMARK    1  A    between atoms: C_3  and  N_4 
REMARK       I    between atoms: N_4  and  C_5 
REMARK       I    between atoms: C_5  and  N_6 
REMARK    2  A    between atoms: N_6  and  C_7 
REMARK    3  A    between atoms: C_7  and  C_8 
REMARK    4  A    between atoms: C_8  and  O_9 
REMARK    5  A    between atoms: O_9  and  C_10 
ROOT
HETATM    1  N   UNL     1      43.414 -16.462   4.941  1.00  0.00    -0.307 N 
HETATM    2  C   UNL     1      42.273 -15.911   5.450  1.00  0.00     0.320 C 
HETATM    3  N   UNL     1      42.444 -14.722   6.102  1.00  0.00    -0.340 N 
HETATM    4  O   UNL     1      41.136 -16.355   5.352  1.00  0.00    -0.247 OA
HETATM    5  H   UNL     1      44.097 -15.772   4.674  1.00  0.00     0.170 HD
HETATM    6  H   UNL     1      41.587 -14.431   6.563  1.00  0.00     0.164 HD
ENDROOT
BRANCH   3   7
HETATM    7  C   UNL     1      43.676 -14.111   6.587  1.00  0.00     0.156 C 
BRANCH   7   8
HETATM    8  C   UNL     1      43.876 -12.678   6.064  1.00  0.00     0.142 C 
HETATM    9  C   UNL     1      43.207 -12.474   4.704  1.00  0.00     0.042 C 
BRANCH   8  10
HETATM   10  O   UNL     1      43.273 -11.753   6.979  1.00  0.00    -0.343 OA
BRANCH  10  11
HETATM   11  C   UNL     1      44.042 -10.730   7.464  1.00  0.00     0.086 A 
HETATM   12  C   UNL     1      43.379  -9.570   7.891  1.00  0.00     0.044 A 
HETATM   13 BR   UNL     1      41.490  -9.402   7.757  1.00  0.00    -0.048 Br
HETATM   14  C   UNL     1      44.094  -8.492   8.420  1.00  0.00     0.022 A 
HETATM   15  C   UNL     1      45.480  -8.569   8.537  1.00  0.00     0.002 A 
HETATM   16  C   UNL     1      46.147  -9.725   8.138  1.00  0.00     0.003 A 
HETATM   17  C   UNL     1      45.432 -10.804   7.612  1.00  0.00     0.038 A 
ENDBRANCH  10  11
ENDBRANCH   8  10
ENDBRANCH   7   8
ENDBRANCH   3   7
BRANCH   1  18
HETATM   18  C   UNL     1      43.568 -17.728   4.323  1.00  0.00     0.059 A 
HETATM   19  C   UNL     1      43.377 -18.036   2.968  1.00  0.00    -0.032 A 
HETATM   20  C   UNL     1      42.908 -17.069   1.919  1.00  0.00     0.050 C 
HETATM   21  C   UNL     1      43.622 -19.357   2.547  1.00  0.00     0.028 A 
HETATM   22  C   UNL     1      43.977 -20.323   3.474  1.00  0.00     0.117 A 
HETATM   23  N   UNL     1      44.102 -20.076   4.789  1.00  0.00    -0.271 NA
HETATM   24  C   UNL     1      43.896 -18.793   5.172  1.00  0.00     0.146 A 
ENDBRANCH   1  18
TORSDOF 5
ENDMDL
MODEL 6
REMARK VINA RESULT:      -7.1      3.583      7.506
REMARK  5 active torsions:
REMARK  status: ('A' for Active; 'I' for Inactive)
REMARK    1  A    between atoms: C_3  and  N_4 
REMARK       I    between atoms: N_4  and  C_5 
REMARK       I    between atoms: C_5  and  N_6 
REMARK    2  A    between atoms: N_6  and  C_7 
REMARK    3  A    between atoms: C_7  and  C_8 
REMARK    4  A    between atoms: C_8  and  O_9 
REMARK    5  A    between atoms: O_9  and  C_10 
ROOT
HETATM    1  N   UNL     1      42.426 -16.462   2.947  1.00  0.00    -0.307 N 
HETATM    2  C   UNL     1      42.832 -15.490   2.077  1.00  0.00     0.320 C 
HETATM    3  N   UNL     1      41.989 -14.420   1.968  1.00  0.00    -0.340 N 
HETATM    4  O   UNL     1      43.869 -15.474   1.427  1.00  0.00    -0.247 OA
HETATM    5  H   UNL     1      41.882 -16.099   3.713  1.00  0.00     0.170 HD
HETATM    6  H   UNL     1      42.281 -13.800   1.219  1.00  0.00     0.164 HD
ENDROOT
BRANCH   3   7
HETATM    7  C   UNL     1      40.604 -14.296   2.406  1.00  0.00     0.156 C 
BRANCH   7   8
HETATM    8  C   UNL     1      40.349 -13.016   3.221  1.00  0.00     0.142 C 
HETATM    9  C   UNL     1      39.009 -12.375   2.862  1.00  0.00     0.042 C 
BRANCH   8  10
HETATM   10  O   UNL     1      40.303 -13.346   4.616  1.00  0.00    -0.343 OA
BRANCH  10  11
HETATM   11  C   UNL     1      41.455 -13.230   5.345  1.00  0.00     0.086 A 
HETATM   12  C   UNL     1      41.800 -14.302   6.182  1.00  0.00     0.044 A 
HETATM   13 BR   UNL     1      40.688 -15.835   6.338  1.00  0.00    -0.048 Br
HETATM   14  C   UNL     1      42.974 -14.267   6.940  1.00  0.00     0.022 A 
HETATM   15  C   UNL     1      43.821 -13.164   6.859  1.00  0.00     0.002 A 
HETATM   16  C   UNL     1      43.501 -12.105   6.014  1.00  0.00     0.003 A 
HETATM   17  C   UNL     1      42.328 -12.140   5.253  1.00  0.00     0.038 A 
ENDBRANCH  10  11
ENDBRANCH   8  10
ENDBRANCH   7   8
ENDBRANCH   3   7
BRANCH   1  18
HETATM   18  C   UNL     1      43.025 -17.724   3.183  1.00  0.00     0.059 A 
HETATM   19  C   UNL     1      43.868 -18.075   4.247  1.00  0.00    -0.032 A 
HETATM   20  C   UNL     1      44.345 -17.137   5.318  1.00  0.00     0.050 C 
HETATM   21  C   UNL     1      44.329 -19.403   4.319  1.00  0.00     0.028 A 
HETATM   22  C   UNL     1      43.998 -20.304   3.319  1.00  0.00     0.117 A 
HETATM   23  N   UNL     1      43.248 -19.982   2.252  1.00  0.00    -0.271 NA
HETATM   24  C   UNL     1      42.786 -18.710   2.215  1.00  0.00     0.146 A 
ENDBRANCH   1  18
TORSDOF 5
ENDMDL
MODEL 7
REMARK VINA RESULT:      -7.1      4.105      6.525
REMARK  5 active torsions:
REMARK  status: ('A' for Active; 'I' for Inactive)
REMARK    1  A    between atoms: C_3  and  N_4 
REMARK       I    between atoms: N_4  and  C_5 
REMARK       I    between atoms: C_5  and  N_6 
REMARK    2  A    between atoms: N_6  and  C_7 
REMARK    3  A    between atoms: C_7  and  C_8 
REMARK    4  A    between atoms: C_8  and  O_9 
REMARK    5  A    between atoms: O_9  and  C_10 
ROOT
HETATM    1  N   UNL     1      41.239 -12.997   2.028  1.00  0.00    -0.307 N 
HETATM    2  C   UNL     1      40.613 -12.246   2.983  1.00  0.00     0.320 C 
HETATM    3  N   UNL     1      41.291 -12.127   4.163  1.00  0.00    -0.340 N 
HETATM    4  O   UNL     1      39.544 -11.660   2.871  1.00  0.00    -0.247 OA
HETATM    5  H   UNL     1      42.243 -12.955   2.095  1.00  0.00     0.170 HD
HETATM    6  H   UNL     1      40.721 -11.668   4.868  1.00  0.00     0.164 HD
ENDROOT
BRANCH   3   7
HETATM    7  C   UNL     1      42.420 -12.907   4.655  1.00  0.00     0.156 C 
BRANCH   7   8
HETATM    8  C   UNL     1      41.988 -14.220   5.332  1.00  0.00     0.142 C 
HETATM    9  C   UNL     1      40.608 -14.094   5.979  1.00  0.00     0.042 C 
BRANCH   8  10
HETATM   10  O   UNL     1      41.902 -15.256   4.344  1.00  0.00    -0.343 OA
BRANCH  10  11
HETATM   11  C   UNL     1      42.590 -16.418   4.565  1.00  0.00     0.086 A 
HETATM   12  C   UNL     1      43.332 -16.943   3.497  1.00  0.00     0.044 A 
HETATM   13 BR   UNL     1      43.345 -16.101   1.792  1.00  0.00    -0.048 Br
HETATM   14  C   UNL     1      44.080 -18.113   3.653  1.00  0.00     0.022 A 
HETATM   15  C   UNL     1      44.100 -18.765   4.884  1.00  0.00     0.002 A 
HETATM   16  C   UNL     1      43.385 -18.241   5.958  1.00  0.00     0.003 A 
HETATM   17  C   UNL     1      42.641 -17.068   5.804  1.00  0.00     0.038 A 
ENDBRANCH  10  11
ENDBRANCH   8  10
ENDBRANCH   7   8
ENDBRANCH   3   7
BRANCH   1  18
HETATM   18  C   UNL     1      40.736 -13.389   0.763  1.00  0.00     0.059 A 
HETATM   19  C   UNL     1      40.089 -14.592   0.446  1.00  0.00    -0.032 A 
HETATM   20  C   UNL     1      39.862 -15.730   1.400  1.00  0.00     0.050 C 
HETATM   21  C   UNL     1      39.629 -14.771  -0.872  1.00  0.00     0.028 A 
HETATM   22  C   UNL     1      39.878 -13.801  -1.828  1.00  0.00     0.117 A 
HETATM   23  N   UNL     1      40.552 -12.667  -1.574  1.00  0.00    -0.271 NA
HETATM   24  C   UNL     1      40.959 -12.495  -0.293  1.00  0.00     0.146 A 
ENDBRANCH   1  18
TORSDOF 5
ENDMDL
MODEL 8
REMARK VINA RESULT:      -7.0      1.896      2.564
REMARK  5 active torsions:
REMARK  status: ('A' for Active; 'I' for Inactive)
REMARK    1  A    between atoms: C_3  and  N_4 
REMARK       I    between atoms: N_4  and  C_5 
REMARK       I    between atoms: C_5  and  N_6 
REMARK    2  A    between atoms: N_6  and  C_7 
REMARK    3  A    between atoms: C_7  and  C_8 
REMARK    4  A    between atoms: C_8  and  O_9 
REMARK    5  A    between atoms: O_9  and  C_10 
ROOT
HETATM    1  N   UNL     1      43.439 -11.241   7.816  1.00  0.00    -0.307 N 
HETATM    2  C   UNL     1      44.445 -11.837   7.110  1.00  0.00     0.320 C 
HETATM    3  N   UNL     1      44.212 -13.136   6.754  1.00  0.00    -0.340 N 
HETATM    4  O   UNL     1      45.494 -11.320   6.749  1.00  0.00    -0.247 OA
HETATM    5  H   UNL     1      42.529 -11.601   7.580  1.00  0.00     0.170 HD
HETATM    6  H   UNL     1      45.042 -13.557   6.347  1.00  0.00     0.164 HD
ENDROOT
BRANCH   3   7
HETATM    7  C   UNL     1      43.201 -14.058   7.257  1.00  0.00     0.156 C 
BRANCH   7   8
HETATM    8  C   UNL     1      42.291 -14.608   6.146  1.00  0.00     0.142 C 
HETATM    9  C   UNL     1      41.028 -13.762   5.979  1.00  0.00     0.042 C 
BRANCH   8  10
HETATM   10  O   UNL     1      42.995 -14.573   4.897  1.00  0.00    -0.343 OA
BRANCH  10  11
HETATM   11  C   UNL     1      43.178 -15.752   4.226  1.00  0.00     0.086 A 
HETATM   12  C   UNL     1      43.014 -15.734   2.833  1.00  0.00     0.044 A 
HETATM   13 BR   UNL     1      42.509 -14.149   1.915  1.00  0.00    -0.048 Br
HETATM   14  C   UNL     1      43.208 -16.893   2.076  1.00  0.00     0.022 A 
HETATM   15  C   UNL     1      43.579 -18.080   2.705  1.00  0.00     0.002 A 
HETATM   16  C   UNL     1      43.767 -18.103   4.085  1.00  0.00     0.003 A 
HETATM   17  C   UNL     1      43.577 -16.944   4.842  1.00  0.00     0.038 A 
ENDBRANCH  10  11
ENDBRANCH   8  10
ENDBRANCH   7   8
ENDBRANCH   3   7
BRANCH   1  18
HETATM   18  C   UNL     1      43.439  -9.956   8.414  1.00  0.00     0.059 A 
HETATM   19  C   UNL     1      43.668  -9.652   9.763  1.00  0.00    -0.032 A 
HETATM   20  C   UNL     1      43.901 -10.661  10.851  1.00  0.00     0.050 C 
HETATM   21  C   UNL     1      43.663  -8.298  10.149  1.00  0.00     0.028 A 
HETATM   22  C   UNL     1      43.372  -7.316   9.216  1.00  0.00     0.117 A 
HETATM   23  N   UNL     1      43.082  -7.578   7.931  1.00  0.00    -0.271 NA
HETATM   24  C   UNL     1      43.124  -8.883   7.569  1.00  0.00     0.146 A 
ENDBRANCH   1  18
TORSDOF 5
ENDMDL
MODEL 9
REMARK VINA RESULT:      -7.0      1.925      2.707
REMARK  5 active torsions:
REMARK  status: ('A' for Active; 'I' for Inactive)
REMARK    1  A    between atoms: C_3  and  N_4 
REMARK       I    between atoms: N_4  and  C_5 
REMARK       I    between atoms: C_5  and  N_6 
REMARK    2  A    between atoms: N_6  and  C_7 
REMARK    3  A    between atoms: C_7  and  C_8 
REMARK    4  A    between atoms: C_8  and  O_9 
REMARK    5  A    between atoms: O_9  and  C_10 
ROOT
HETATM    1  N   UNL     1      43.507 -10.960   8.358  1.00  0.00    -0.307 N 
HETATM    2  C   UNL     1      44.625 -11.486   7.774  1.00  0.00     0.320 C 
HETATM    3  N   UNL     1      44.387 -12.408   6.795  1.00  0.00    -0.340 N 
HETATM    4  O   UNL     1      45.787 -11.192   8.019  1.00  0.00    -0.247 OA
HETATM    5  H   UNL     1      42.720 -10.919   7.731  1.00  0.00     0.170 HD
HETATM    6  H   UNL     1      45.250 -12.850   6.492  1.00  0.00     0.164 HD
ENDROOT
BRANCH   3   7
HETATM    7  C   UNL     1      43.154 -13.123   6.487  1.00  0.00     0.156 C 
BRANCH   7   8
HETATM    8  C   UNL     1      43.348 -14.648   6.429  1.00  0.00     0.142 C 
HETATM    9  C   UNL     1      42.920 -15.323   7.732  1.00  0.00     0.042 C 
BRANCH   8  10
HETATM   10  O   UNL     1      42.531 -15.188   5.381  1.00  0.00    -0.343 OA
BRANCH  10  11
HETATM   11  C   UNL     1      42.991 -16.285   4.704  1.00  0.00     0.086 A 
HETATM   12  C   UNL     1      42.341 -16.625   3.508  1.00  0.00     0.044 A 
HETATM   13 BR   UNL     1      40.849 -15.632   2.874  1.00  0.00    -0.048 Br
HETATM   14  C   UNL     1      42.768 -17.717   2.748  1.00  0.00     0.022 A 
HETATM   15  C   UNL     1      43.858 -18.475   3.172  1.00  0.00     0.002 A 
HETATM   16  C   UNL     1      44.525 -18.133   4.346  1.00  0.00     0.003 A 
HETATM   17  C   UNL     1      44.100 -17.038   5.105  1.00  0.00     0.038 A 
ENDBRANCH  10  11
ENDBRANCH   8  10
ENDBRANCH   7   8
ENDBRANCH   3   7
BRANCH   1  18
HETATM   18  C   UNL     1      43.437 -10.079   9.466  1.00  0.00     0.059 A 
HETATM   19  C   UNL     1      43.320  -8.682   9.430  1.00  0.00    -0.032 A 
HETATM   20  C   UNL     1      43.307  -7.847   8.182  1.00  0.00     0.050 C 
HETATM   21  C   UNL     1      43.226  -7.992  10.654  1.00  0.00     0.028 A 
HETATM   22  C   UNL     1      43.315  -8.689  11.848  1.00  0.00     0.117 A 
HETATM   23  N   UNL     1      43.494 -10.018  11.917  1.00  0.00    -0.271 NA
HETATM   24  C   UNL     1      43.550 -10.671  10.732  1.00  0.00     0.146 A 
ENDBRANCH   1  18
TORSDOF 5
ENDMDL
MODEL 10
REMARK VINA RESULT:      -6.9      5.210      7.588
REMARK  5 active torsions:
REMARK  status: ('A' for Active; 'I' for Inactive)
REMARK    1  A    between atoms: C_3  and  N_4 
REMARK       I    between atoms: N_4  and  C_5 
REMARK       I    between atoms: C_5  and  N_6 
REMARK    2  A    between atoms: N_6  and  C_7 
REMARK    3  A    between atoms: C_7  and  C_8 
REMARK    4  A    between atoms: C_8  and  O_9 
REMARK    5  A    between atoms: O_9  and  C_10 
ROOT
HETATM    1  N   UNL     1      40.312 -12.964   0.878  1.00  0.00    -0.307 N 
HETATM    2  C   UNL     1      39.948 -13.077   2.190  1.00  0.00     0.320 C 
HETATM    3  N   UNL     1      40.971 -12.961   3.087  1.00  0.00    -0.340 N 
HETATM    4  O   UNL     1      38.815 -13.237   2.626  1.00  0.00    -0.247 OA
HETATM    5  H   UNL     1      41.107 -12.362   0.743  1.00  0.00     0.170 HD
HETATM    6  H   UNL     1      40.658 -13.179   4.029  1.00  0.00     0.164 HD
ENDROOT
BRANCH   3   7
HETATM    7  C   UNL     1      42.409 -13.031   2.853  1.00  0.00     0.156 C 
BRANCH   7   8
HETATM    8  C   UNL     1      43.168 -13.714   4.003  1.00  0.00     0.142 C 
HETATM    9  C   UNL     1      43.258 -12.814   5.235  1.00  0.00     0.042 C 
BRANCH   8  10
HETATM   10  O   UNL     1      42.463 -14.901   4.395  1.00  0.00    -0.343 OA
BRANCH  10  11
HETATM   11  C   UNL     1      42.907 -16.103   3.914  1.00  0.00     0.086 A 
HETATM   12  C   UNL     1      43.723 -16.874   4.755  1.00  0.00     0.044 A 
HETATM   13 BR   UNL     1      44.235 -16.254   6.478  1.00  0.00    -0.048 Br
HETATM   14  C   UNL     1      44.196 -18.123   4.344  1.00  0.00     0.022 A 
HETATM   15  C   UNL     1      43.847 -18.619   3.090  1.00  0.00     0.002 A 
HETATM   16  C   UNL     1      43.019 -17.873   2.255  1.00  0.00     0.003 A 
HETATM   17  C   UNL     1      42.543 -16.625   2.667  1.00  0.00     0.038 A 
ENDBRANCH  10  11
ENDBRANCH   8  10
ENDBRANCH   7   8
ENDBRANCH   3   7
BRANCH   1  18
HETATM   18  C   UNL     1      39.501 -13.152  -0.269  1.00  0.00     0.059 A 
HETATM   19  C   UNL     1      38.545 -12.265  -0.783  1.00  0.00    -0.032 A 
HETATM   20  C   UNL     1      38.159 -10.953  -0.162  1.00  0.00     0.050 C 
HETATM   21  C   UNL     1      37.870 -12.628  -1.965  1.00  0.00     0.028 A 
HETATM   22  C   UNL     1      38.113 -13.861  -2.548  1.00  0.00     0.117 A 
HETATM   23  N   UNL     1      38.974 -14.761  -2.043  1.00  0.00    -0.271 NA
HETATM   24  C   UNL     1      39.638 -14.383  -0.926  1.00  0.00     0.146 A 
ENDBRANCH   1  18
TORSDOF 5
ENDMDL
