MODEL 1
REMARK VINA RESULT:      -8.6      0.000      0.000
REMARK  3 active torsions:
REMARK  status: ('A' for Active; 'I' for Inactive)
REMARK    1  A    between atoms: C_3  and  N_4 
REMARK       I    between atoms: N_4  and  C_5 
REMARK    2  A    between atoms: C_5  and  C_6 
REMARK    3  A    between atoms: C_7  and  C_8 
ROOT
HETATM    1  C   UNL     1      41.473 -14.409   5.504  1.00  0.00     0.063 A 
HETATM    2  C   UNL     1      40.516 -13.667   4.579  1.00  0.00     0.216 A 
HETATM    3  N   UNL     1      40.650 -12.221   4.717  1.00  0.00    -0.091 N 
HETATM    4  C   UNL     1      41.453 -11.605   5.636  1.00  0.00     0.735 A 
HETATM    5  N   UNL     1      42.223 -12.358   6.445  1.00  0.00    -0.191 N 
HETATM    6  N   UNL     1      39.910 -11.309   4.066  1.00  0.00     0.012 NA
HETATM    7  N   UNL     1      40.320 -10.140   4.550  1.00  0.00     0.033 NA
HETATM    8  N   UNL     1      41.278 -10.311   5.530  1.00  0.00     0.030 NA
HETATM    9  C   UNL     1      42.269 -13.747   6.380  1.00  0.00     0.037 A 
HETATM   10  C   UNL     1      43.228 -14.415   7.335  1.00  0.00     0.070 C 
HETATM   11  H   UNL     1      42.843 -11.898   7.108  1.00  0.00     0.184 HD
ENDROOT
BRANCH   1  12
HETATM   12  C   UNL     1      41.607 -15.883   5.322  1.00  0.00     0.256 C 
HETATM   13  N   UNL     1      42.818 -16.264   4.788  1.00  0.00    -0.323 N 
HETATM   14  H   UNL     1      43.484 -15.537   4.579  1.00  0.00     0.169 HD
HETATM   15  O   UNL     1      40.671 -16.604   5.646  1.00  0.00    -0.267 OA
BRANCH  13  16
HETATM   16  C   UNL     1      43.275 -17.584   4.540  1.00  0.00     0.041 A 
HETATM   17  C   UNL     1      43.407 -18.016   3.200  1.00  0.00    -0.035 A 
HETATM   18  C   UNL     1      43.087 -17.128   2.028  1.00  0.00     0.050 C 
HETATM   19  C   UNL     1      43.866 -19.320   2.936  1.00  0.00     0.009 A 
HETATM   20  C   UNL     1      44.189 -20.189   3.975  1.00  0.00     0.001 A 
HETATM   21  C   UNL     1      44.059 -19.765   5.291  1.00  0.00     0.002 A 
HETATM   22  C   UNL     1      43.605 -18.472   5.570  1.00  0.00     0.030 A 
ENDBRANCH  13  16
ENDBRANCH   1  12
BRANCH   2  23
HETATM   23  C   UNL     1      40.634 -14.095   3.128  1.00  0.00     0.064 A 
HETATM   24  N   UNL     1      41.586 -13.452   2.398  1.00  0.00    -0.263 NA
HETATM   25  C   UNL     1      41.683 -13.762   1.086  1.00  0.00     0.117 A 
HETATM   26  C   UNL     1      40.871 -14.683   0.452  1.00  0.00     0.019 A 
HETATM   27  C   UNL     1      39.897 -15.327   1.204  1.00  0.00     0.003 A 
HETATM   28  C   UNL     1      39.769 -15.031   2.558  1.00  0.00     0.030 A 
ENDBRANCH   2  23
TORSDOF 3
ENDMDL
MODEL 2
REMARK VINA RESULT:      -8.5      1.681      3.935
REMARK  3 active torsions:
REMARK  status: ('A' for Active; 'I' for Inactive)
REMARK    1  A    between atoms: C_3  and  N_4 
REMARK       I    between atoms: N_4  and  C_5 
REMARK    2  A    between atoms: C_5  and  C_6 
REMARK    3  A    between atoms: C_7  and  C_8 
ROOT
HETATM    1  C   UNL     1      41.531 -14.452   2.609  1.00  0.00     0.063 A 
HETATM    2  C   UNL     1      41.735 -13.449   3.739  1.00  0.00     0.216 A 
HETATM    3  N   UNL     1      40.579 -12.572   3.892  1.00  0.00    -0.091 N 
HETATM    4  C   UNL     1      39.495 -12.573   3.060  1.00  0.00     0.735 A 
HETATM    5  N   UNL     1      39.438 -13.469   2.056  1.00  0.00    -0.191 N 
HETATM    6  N   UNL     1      40.485 -11.562   4.772  1.00  0.00     0.012 NA
HETATM    7  N   UNL     1      39.309 -11.000   4.509  1.00  0.00     0.033 NA
HETATM    8  N   UNL     1      38.684 -11.618   3.443  1.00  0.00     0.030 NA
HETATM    9  C   UNL     1      40.422 -14.426   1.830  1.00  0.00     0.037 A 
HETATM   10  C   UNL     1      40.160 -15.375   0.685  1.00  0.00     0.070 C 
HETATM   11  H   UNL     1      38.616 -13.489   1.456  1.00  0.00     0.184 HD
ENDROOT
BRANCH   1  12
HETATM   12  C   UNL     1      42.528 -15.552   2.472  1.00  0.00     0.256 C 
HETATM   13  N   UNL     1      42.103 -16.750   3.001  1.00  0.00    -0.323 N 
HETATM   14  H   UNL     1      41.185 -16.776   3.416  1.00  0.00     0.169 HD
HETATM   15  O   UNL     1      43.598 -15.311   1.926  1.00  0.00    -0.267 OA
BRANCH  13  16
HETATM   16  C   UNL     1      42.789 -17.991   2.987  1.00  0.00     0.041 A 
HETATM   17  C   UNL     1      43.768 -18.237   3.978  1.00  0.00    -0.035 A 
HETATM   18  C   UNL     1      44.107 -17.234   5.048  1.00  0.00     0.050 C 
HETATM   19  C   UNL     1      44.453 -19.466   3.983  1.00  0.00     0.009 A 
HETATM   20  C   UNL     1      44.181 -20.441   3.027  1.00  0.00     0.001 A 
HETATM   21  C   UNL     1      43.220 -20.200   2.055  1.00  0.00     0.002 A 
HETATM   22  C   UNL     1      42.530 -18.984   2.035  1.00  0.00     0.030 A 
ENDBRANCH  13  16
ENDBRANCH   1  12
BRANCH   2  23
HETATM   23  C   UNL     1      42.110 -14.101   5.057  1.00  0.00     0.064 A 
HETATM   24  N   UNL     1      41.212 -15.000   5.548  1.00  0.00    -0.263 NA
HETATM   25  C   UNL     1      41.480 -15.558   6.749  1.00  0.00     0.117 A 
HETATM   26  C   UNL     1      42.603 -15.264   7.499  1.00  0.00     0.019 A 
HETATM   27  C   UNL     1      43.508 -14.340   6.993  1.00  0.00     0.003 A 
HETATM   28  C   UNL     1      43.262 -13.744   5.759  1.00  0.00     0.030 A 
ENDBRANCH   2  23
TORSDOF 3
ENDMDL
MODEL 3
REMARK VINA RESULT:      -8.2      2.095      4.157
REMARK  3 active torsions:
REMARK  status: ('A' for Active; 'I' for Inactive)
REMARK    1  A    between atoms: C_3  and  N_4 
REMARK       I    between atoms: N_4  and  C_5 
REMARK    2  A    between atoms: C_5  and  C_6 
REMARK    3  A    between atoms: C_7  and  C_8 
ROOT
HETATM    1  C   UNL     1      41.482 -13.843   1.838  1.00  0.00     0.063 A 
HETATM    2  C   UNL     1      41.747 -12.402   2.258  1.00  0.00     0.216 A 
HETATM    3  N   UNL     1      40.544 -11.584   2.154  1.00  0.00    -0.091 N 
HETATM    4  C   UNL     1      39.355 -12.022   1.643  1.00  0.00     0.735 A 
HETATM    5  N   UNL     1      39.241 -13.305   1.250  1.00  0.00    -0.191 N 
HETATM    6  N   UNL     1      40.479 -10.268   2.411  1.00  0.00     0.012 NA
HETATM    7  N   UNL     1      39.227  -9.932   2.116  1.00  0.00     0.033 NA
HETATM    8  N   UNL     1      38.518 -11.014   1.633  1.00  0.00     0.030 NA
HETATM    9  C   UNL     1      40.273 -14.232   1.362  1.00  0.00     0.037 A 
HETATM   10  C   UNL     1      39.942 -15.635   0.914  1.00  0.00     0.070 C 
HETATM   11  H   UNL     1      38.346 -13.638   0.898  1.00  0.00     0.184 HD
ENDROOT
BRANCH   1  12
HETATM   12  C   UNL     1      42.553 -14.848   2.095  1.00  0.00     0.256 C 
HETATM   13  N   UNL     1      42.156 -15.881   2.914  1.00  0.00    -0.323 N 
HETATM   14  H   UNL     1      41.206 -15.868   3.252  1.00  0.00     0.169 HD
HETATM   15  O   UNL     1      43.653 -14.679   1.582  1.00  0.00    -0.267 OA
BRANCH  13  16
HETATM   16  C   UNL     1      42.915 -17.012   3.307  1.00  0.00     0.041 A 
HETATM   17  C   UNL     1      43.553 -16.997   4.569  1.00  0.00    -0.035 A 
HETATM   18  C   UNL     1      43.453 -15.828   5.512  1.00  0.00     0.050 C 
HETATM   19  C   UNL     1      44.305 -18.114   4.978  1.00  0.00     0.009 A 
HETATM   20  C   UNL     1      44.430 -19.232   4.157  1.00  0.00     0.001 A 
HETATM   21  C   UNL     1      43.803 -19.247   2.918  1.00  0.00     0.002 A 
HETATM   22  C   UNL     1      43.052 -18.145   2.497  1.00  0.00     0.030 A 
ENDBRANCH  13  16
ENDBRANCH   1  12
BRANCH   2  23
HETATM   23  C   UNL     1      42.376 -12.287   3.634  1.00  0.00     0.064 A 
HETATM   24  N   UNL     1      41.571 -12.621   4.681  1.00  0.00    -0.263 NA
HETATM   25  C   UNL     1      42.073 -12.473   5.927  1.00  0.00     0.117 A 
HETATM   26  C   UNL     1      43.345 -12.002   6.192  1.00  0.00     0.019 A 
HETATM   27  C   UNL     1      44.155 -11.656   5.117  1.00  0.00     0.003 A 
HETATM   28  C   UNL     1      43.668 -11.793   3.820  1.00  0.00     0.030 A 
ENDBRANCH   2  23
TORSDOF 3
ENDMDL
MODEL 4
REMARK VINA RESULT:      -8.1      0.970      1.721
REMARK  3 active torsions:
REMARK  status: ('A' for Active; 'I' for Inactive)
REMARK    1  A    between atoms: C_3  and  N_4 
REMARK       I    between atoms: N_4  and  C_5 
REMARK    2  A    between atoms: C_5  and  C_6 
REMARK    3  A    between atoms: C_7  and  C_8 
ROOT
HETATM    1  C   UNL     1      41.510 -13.768   5.212  1.00  0.00     0.063 A 
HETATM    2  C   UNL     1      40.448 -13.101   4.347  1.00  0.00     0.216 A 
HETATM    3  N   UNL     1      40.512 -11.647   4.447  1.00  0.00    -0.091 N 
HETATM    4  C   UNL     1      41.344 -10.967   5.291  1.00  0.00     0.735 A 
HETATM    5  N   UNL     1      42.212 -11.658   6.055  1.00  0.00    -0.191 N 
HETATM    6  N   UNL     1      39.676 -10.792   3.835  1.00  0.00     0.012 NA
HETATM    7  N   UNL     1      40.055  -9.591   4.265  1.00  0.00     0.033 NA
HETATM    8  N   UNL     1      41.090  -9.687   5.174  1.00  0.00     0.030 NA
HETATM    9  C   UNL     1      42.331 -13.044   6.013  1.00  0.00     0.037 A 
HETATM   10  C   UNL     1      43.392 -13.637   6.908  1.00  0.00     0.070 C 
HETATM   11  H   UNL     1      42.853 -11.150   6.661  1.00  0.00     0.184 HD
ENDROOT
BRANCH   1  12
HETATM   12  C   UNL     1      41.713 -15.237   5.050  1.00  0.00     0.256 C 
HETATM   13  N   UNL     1      42.622 -15.562   4.069  1.00  0.00    -0.323 N 
HETATM   14  H   UNL     1      43.058 -14.804   3.568  1.00  0.00     0.169 HD
HETATM   15  O   UNL     1      41.080 -16.001   5.770  1.00  0.00    -0.267 OA
BRANCH  13  16
HETATM   16  C   UNL     1      43.071 -16.857   3.703  1.00  0.00     0.041 A 
HETATM   17  C   UNL     1      44.018 -17.506   4.529  1.00  0.00    -0.035 A 
HETATM   18  C   UNL     1      44.563 -16.877   5.783  1.00  0.00     0.050 C 
HETATM   19  C   UNL     1      44.468 -18.794   4.185  1.00  0.00     0.009 A 
HETATM   20  C   UNL     1      43.995 -19.436   3.043  1.00  0.00     0.001 A 
HETATM   21  C   UNL     1      43.066 -18.799   2.233  1.00  0.00     0.002 A 
HETATM   22  C   UNL     1      42.608 -17.520   2.560  1.00  0.00     0.030 A 
ENDBRANCH  13  16
ENDBRANCH   1  12
BRANCH   2  23
HETATM   23  C   UNL     1      40.483 -13.556   2.900  1.00  0.00     0.064 A 
HETATM   24  N   UNL     1      39.809 -14.707   2.627  1.00  0.00    -0.263 NA
HETATM   25  C   UNL     1      39.867 -15.180   1.362  1.00  0.00     0.117 A 
HETATM   26  C   UNL     1      40.570 -14.565   0.343  1.00  0.00     0.019 A 
HETATM   27  C   UNL     1      41.261 -13.395   0.635  1.00  0.00     0.003 A 
HETATM   28  C   UNL     1      41.225 -12.883   1.928  1.00  0.00     0.030 A 
ENDBRANCH   2  23
TORSDOF 3
ENDMDL
MODEL 5
REMARK VINA RESULT:      -8.0      2.178      6.044
REMARK  3 active torsions:
REMARK  status: ('A' for Active; 'I' for Inactive)
REMARK    1  A    between atoms: C_3  and  N_4 
REMARK       I    between atoms: N_4  and  C_5 
REMARK    2  A    between atoms: C_5  and  C_6 
REMARK    3  A    between atoms: C_7  and  C_8 
ROOT
HETATM    1  C   UNL     1      42.996 -15.172   5.184  1.00  0.00     0.063 A 
HETATM    2  C   UNL     1      43.235 -15.844   3.838  1.00  0.00     0.216 A 
HETATM    3  N   UNL     1      43.533 -17.264   3.993  1.00  0.00    -0.091 N 
HETATM    4  C   UNL     1      43.688 -17.892   5.197  1.00  0.00     0.735 A 
HETATM    5  N   UNL     1      43.505 -17.191   6.332  1.00  0.00    -0.191 N 
HETATM    6  N   UNL     1      43.832 -18.106   2.991  1.00  0.00     0.012 NA
HETATM    7  N   UNL     1      44.101 -19.260   3.594  1.00  0.00     0.033 NA
HETATM    8  N   UNL     1      44.017 -19.139   4.968  1.00  0.00     0.030 NA
HETATM    9  C   UNL     1      43.136 -15.850   6.350  1.00  0.00     0.037 A 
HETATM   10  C   UNL     1      42.931 -15.246   7.719  1.00  0.00     0.070 C 
HETATM   11  H   UNL     1      43.590 -17.668   7.227  1.00  0.00     0.184 HD
ENDROOT
BRANCH   1  12
HETATM   12  C   UNL     1      42.469 -13.777   5.177  1.00  0.00     0.256 C 
HETATM   13  N   UNL     1      41.094 -13.707   5.220  1.00  0.00    -0.323 N 
HETATM   14  H   UNL     1      40.585 -14.577   5.256  1.00  0.00     0.169 HD
HETATM   15  O   UNL     1      43.265 -12.847   5.134  1.00  0.00    -0.267 OA
BRANCH  13  16
HETATM   16  C   UNL     1      40.290 -12.540   5.276  1.00  0.00     0.041 A 
HETATM   17  C   UNL     1      40.088 -11.798   4.090  1.00  0.00    -0.035 A 
HETATM   18  C   UNL     1      40.687 -12.202   2.770  1.00  0.00     0.050 C 
HETATM   19  C   UNL     1      39.287 -10.642   4.125  1.00  0.00     0.009 A 
HETATM   20  C   UNL     1      38.694 -10.218   5.312  1.00  0.00     0.001 A 
HETATM   21  C   UNL     1      38.893 -10.946   6.477  1.00  0.00     0.002 A 
HETATM   22  C   UNL     1      39.686 -12.098   6.459  1.00  0.00     0.030 A 
ENDBRANCH  13  16
ENDBRANCH   1  12
BRANCH   2  23
HETATM   23  C   UNL     1      42.104 -15.623   2.850  1.00  0.00     0.064 A 
HETATM   24  N   UNL     1      40.869 -16.012   3.270  1.00  0.00    -0.263 NA
HETATM   25  C   UNL     1      39.844 -15.888   2.397  1.00  0.00     0.117 A 
HETATM   26  C   UNL     1      39.985 -15.398   1.112  1.00  0.00     0.019 A 
HETATM   27  C   UNL     1      41.251 -15.012   0.692  1.00  0.00     0.003 A 
HETATM   28  C   UNL     1      42.329 -15.129   1.564  1.00  0.00     0.030 A 
ENDBRANCH   2  23
TORSDOF 3
ENDMDL
MODEL 6
REMARK VINA RESULT:      -7.9      2.632      5.586
REMARK  3 active torsions:
REMARK  status: ('A' for Active; 'I' for Inactive)
REMARK    1  A    between atoms: C_3  and  N_4 
REMARK       I    between atoms: N_4  and  C_5 
REMARK    2  A    between atoms: C_5  and  C_6 
REMARK    3  A    between atoms: C_7  and  C_8 
ROOT
HETATM    1  C   UNL     1      40.229 -12.707   2.138  1.00  0.00     0.063 A 
HETATM    2  C   UNL     1      40.037 -14.075   1.494  1.00  0.00     0.216 A 
HETATM    3  N   UNL     1      39.784 -13.963   0.062  1.00  0.00    -0.091 N 
HETATM    4  C   UNL     1      39.629 -12.779  -0.604  1.00  0.00     0.735 A 
HETATM    5  N   UNL     1      39.767 -11.623   0.072  1.00  0.00    -0.191 N 
HETATM    6  N   UNL     1      39.533 -14.992  -0.763  1.00  0.00     0.012 NA
HETATM    7  N   UNL     1      39.293 -14.425  -1.941  1.00  0.00     0.033 NA
HETATM    8  N   UNL     1      39.347 -13.047  -1.854  1.00  0.00     0.030 NA
HETATM    9  C   UNL     1      40.090 -11.562   1.425  1.00  0.00     0.037 A 
HETATM   10  C   UNL     1      40.249 -10.175   1.997  1.00  0.00     0.070 C 
HETATM   11  H   UNL     1      39.682 -10.742  -0.431  1.00  0.00     0.184 HD
ENDROOT
BRANCH   1  12
HETATM   12  C   UNL     1      40.708 -12.667   3.549  1.00  0.00     0.256 C 
HETATM   13  N   UNL     1      42.062 -12.444   3.665  1.00  0.00    -0.323 N 
HETATM   14  H   UNL     1      42.589 -12.327   2.814  1.00  0.00     0.169 HD
HETATM   15  O   UNL     1      39.895 -12.831   4.451  1.00  0.00    -0.267 OA
BRANCH  13  16
HETATM   16  C   UNL     1      42.814 -12.302   4.859  1.00  0.00     0.041 A 
HETATM   17  C   UNL     1      43.145 -13.463   5.595  1.00  0.00    -0.035 A 
HETATM   18  C   UNL     1      42.735 -14.843   5.158  1.00  0.00     0.050 C 
HETATM   19  C   UNL     1      43.897 -13.341   6.778  1.00  0.00     0.009 A 
HETATM   20  C   UNL     1      44.318 -12.093   7.234  1.00  0.00     0.001 A 
HETATM   21  C   UNL     1      43.992 -10.954   6.511  1.00  0.00     0.002 A 
HETATM   22  C   UNL     1      43.246 -11.058   5.333  1.00  0.00     0.030 A 
ENDBRANCH  13  16
ENDBRANCH   1  12
BRANCH   2  23
HETATM   23  C   UNL     1      41.177 -15.035   1.779  1.00  0.00     0.064 A 
HETATM   24  N   UNL     1      42.420 -14.591   1.445  1.00  0.00    -0.263 NA
HETATM   25  C   UNL     1      43.456 -15.440   1.626  1.00  0.00     0.117 A 
HETATM   26  C   UNL     1      43.321 -16.722   2.124  1.00  0.00     0.019 A 
HETATM   27  C   UNL     1      42.048 -17.167   2.455  1.00  0.00     0.003 A 
HETATM   28  C   UNL     1      40.958 -16.320   2.278  1.00  0.00     0.030 A 
ENDBRANCH   2  23
TORSDOF 3
ENDMDL
MODEL 7
REMARK VINA RESULT:      -7.7      2.029      5.859
REMARK  3 active torsions:
REMARK  status: ('A' for Active; 'I' for Inactive)
REMARK    1  A    between atoms: C_3  and  N_4 
REMARK       I    between atoms: N_4  and  C_5 
REMARK    2  A    between atoms: C_5  and  C_6 
REMARK    3  A    between atoms: C_7  and  C_8 
ROOT
HETATM    1  C   UNL     1      41.645 -15.953   3.833  1.00  0.00     0.063 A 
HETATM    2  C   UNL     1      41.376 -15.466   5.251  1.00  0.00     0.216 A 
HETATM    3  N   UNL     1      42.420 -15.898   6.173  1.00  0.00    -0.091 N 
HETATM    4  C   UNL     1      43.454 -16.726   5.835  1.00  0.00     0.735 A 
HETATM    5  N   UNL     1      43.571 -17.144   4.561  1.00  0.00    -0.191 N 
HETATM    6  N   UNL     1      42.433 -15.660   7.495  1.00  0.00     0.012 NA
HETATM    7  N   UNL     1      43.516 -16.292   7.937  1.00  0.00     0.033 NA
HETATM    8  N   UNL     1      44.158 -16.963   6.914  1.00  0.00     0.030 NA
HETATM    9  C   UNL     1      42.702 -16.753   3.546  1.00  0.00     0.037 A 
HETATM   10  C   UNL     1      43.022 -17.286   2.170  1.00  0.00     0.070 C 
HETATM   11  H   UNL     1      44.358 -17.735   4.303  1.00  0.00     0.184 HD
ENDROOT
BRANCH   1  12
HETATM   12  C   UNL     1      40.786 -15.413   2.740  1.00  0.00     0.256 C 
HETATM   13  N   UNL     1      41.426 -14.494   1.939  1.00  0.00    -0.323 N 
HETATM   14  H   UNL     1      42.387 -14.280   2.153  1.00  0.00     0.169 HD
HETATM   15  O   UNL     1      39.630 -15.811   2.649  1.00  0.00    -0.267 OA
BRANCH  13  16
HETATM   16  C   UNL     1      40.907 -13.838   0.794  1.00  0.00     0.041 A 
HETATM   17  C   UNL     1      41.042 -12.434   0.697  1.00  0.00    -0.035 A 
HETATM   18  C   UNL     1      41.720 -11.610   1.758  1.00  0.00     0.050 C 
HETATM   19  C   UNL     1      40.539 -11.768  -0.436  1.00  0.00     0.009 A 
HETATM   20  C   UNL     1      39.910 -12.471  -1.460  1.00  0.00     0.001 A 
HETATM   21  C   UNL     1      39.777 -13.850  -1.364  1.00  0.00     0.002 A 
HETATM   22  C   UNL     1      40.271 -14.527  -0.246  1.00  0.00     0.030 A 
ENDBRANCH  13  16
ENDBRANCH   1  12
BRANCH   2  23
HETATM   23  C   UNL     1      41.150 -13.968   5.336  1.00  0.00     0.064 A 
HETATM   24  N   UNL     1      42.231 -13.191   5.049  1.00  0.00    -0.263 NA
HETATM   25  C   UNL     1      42.089 -11.852   5.171  1.00  0.00     0.117 A 
HETATM   26  C   UNL     1      40.918 -11.238   5.574  1.00  0.00     0.019 A 
HETATM   27  C   UNL     1      39.824 -12.041   5.873  1.00  0.00     0.003 A 
HETATM   28  C   UNL     1      39.937 -13.423   5.759  1.00  0.00     0.030 A 
ENDBRANCH   2  23
TORSDOF 3
ENDMDL
MODEL 8
REMARK VINA RESULT:      -7.5      2.114      4.294
REMARK  3 active torsions:
REMARK  status: ('A' for Active; 'I' for Inactive)
REMARK    1  A    between atoms: C_3  and  N_4 
REMARK       I    between atoms: N_4  and  C_5 
REMARK    2  A    between atoms: C_5  and  C_6 
REMARK    3  A    between atoms: C_7  and  C_8 
ROOT
HETATM    1  C   UNL     1      41.237 -13.801   1.827  1.00  0.00     0.063 A 
HETATM    2  C   UNL     1      41.848 -12.439   2.136  1.00  0.00     0.216 A 
HETATM    3  N   UNL     1      41.523 -11.460   1.104  1.00  0.00    -0.091 N 
HETATM    4  C   UNL     1      40.849 -11.750  -0.049  1.00  0.00     0.735 A 
HETATM    5  N   UNL     1      40.396 -13.002  -0.249  1.00  0.00    -0.191 N 
HETATM    6  N   UNL     1      41.957 -10.190   1.078  1.00  0.00     0.012 NA
HETATM    7  N   UNL     1      41.483  -9.699  -0.063  1.00  0.00     0.033 NA
HETATM    8  N   UNL     1      40.795 -10.661  -0.776  1.00  0.00     0.030 NA
HETATM    9  C   UNL     1      40.553 -14.028   0.679  1.00  0.00     0.037 A 
HETATM   10  C   UNL     1      39.936 -15.352   0.300  1.00  0.00     0.070 C 
HETATM   11  H   UNL     1      39.868 -13.209  -1.094  1.00  0.00     0.184 HD
ENDROOT
BRANCH   1  12
HETATM   12  C   UNL     1      41.297 -14.843   2.892  1.00  0.00     0.256 C 
HETATM   13  N   UNL     1      42.580 -15.203   3.239  1.00  0.00    -0.323 N 
HETATM   14  H   UNL     1      43.339 -14.742   2.761  1.00  0.00     0.169 HD
HETATM   15  O   UNL     1      40.247 -15.278   3.349  1.00  0.00    -0.267 OA
BRANCH  13  16
HETATM   16  C   UNL     1      42.977 -16.123   4.243  1.00  0.00     0.041 A 
HETATM   17  C   UNL     1      43.323 -17.439   3.860  1.00  0.00    -0.035 A 
HETATM   18  C   UNL     1      43.293 -17.899   2.427  1.00  0.00     0.050 C 
HETATM   19  C   UNL     1      43.726 -18.362   4.842  1.00  0.00     0.009 A 
HETATM   20  C   UNL     1      43.786 -17.998   6.185  1.00  0.00     0.001 A 
HETATM   21  C   UNL     1      43.445 -16.706   6.562  1.00  0.00     0.002 A 
HETATM   22  C   UNL     1      43.044 -15.776   5.598  1.00  0.00     0.030 A 
ENDBRANCH  13  16
ENDBRANCH   1  12
BRANCH   2  23
HETATM   23  C   UNL     1      41.490 -11.923   3.517  1.00  0.00     0.064 A 
HETATM   24  N   UNL     1      42.480 -11.997   4.449  1.00  0.00    -0.263 NA
HETATM   25  C   UNL     1      42.184 -11.604   5.708  1.00  0.00     0.117 A 
HETATM   26  C   UNL     1      40.941 -11.140   6.096  1.00  0.00     0.019 A 
HETATM   27  C   UNL     1      39.936 -11.076   5.138  1.00  0.00     0.003 A 
HETATM   28  C   UNL     1      40.206 -11.475   3.833  1.00  0.00     0.030 A 
ENDBRANCH   2  23
TORSDOF 3
ENDMDL
MODEL 9
REMARK VINA RESULT:      -7.5     15.368     17.020
REMARK  3 active torsions:
REMARK  status: ('A' for Active; 'I' for Inactive)
REMARK    1  A    between atoms: C_3  and  N_4 
REMARK       I    between atoms: N_4  and  C_5 
REMARK    2  A    between atoms: C_5  and  C_6 
REMARK    3  A    between atoms: C_7  and  C_8 
ROOT
HETATM    1  C   UNL     1      48.045 -29.595   1.140  1.00  0.00     0.063 A 
HETATM    2  C   UNL     1      48.449 -29.148  -0.260  1.00  0.00     0.216 A 
HETATM    3  N   UNL     1      49.674 -29.806  -0.700  1.00  0.00    -0.091 N 
HETATM    4  C   UNL     1      50.428 -30.634   0.082  1.00  0.00     0.735 A 
HETATM    5  N   UNL     1      50.008 -30.924   1.328  1.00  0.00    -0.191 N 
HETATM    6  N   UNL     1      50.297 -29.580  -1.868  1.00  0.00     0.012 NA
HETATM    7  N   UNL     1      51.394 -30.329  -1.811  1.00  0.00     0.033 NA
HETATM    8  N   UNL     1      51.489 -30.988  -0.601  1.00  0.00     0.030 NA
HETATM    9  C   UNL     1      48.818 -30.442   1.864  1.00  0.00     0.037 A 
HETATM   10  C   UNL     1      48.491 -30.914   3.260  1.00  0.00     0.070 C 
HETATM   11  H   UNL     1      50.555 -31.566   1.899  1.00  0.00     0.184 HD
ENDROOT
BRANCH   1  12
HETATM   12  C   UNL     1      46.704 -29.178   1.640  1.00  0.00     0.256 C 
HETATM   13  N   UNL     1      45.716 -30.110   1.410  1.00  0.00    -0.323 N 
HETATM   14  H   UNL     1      45.981 -30.963   0.943  1.00  0.00     0.169 HD
HETATM   15  O   UNL     1      46.593 -28.088   2.190  1.00  0.00    -0.267 OA
BRANCH  13  16
HETATM   16  C   UNL     1      44.355 -30.040   1.803  1.00  0.00     0.041 A 
HETATM   17  C   UNL     1      43.943 -30.754   2.951  1.00  0.00    -0.035 A 
HETATM   18  C   UNL     1      44.893 -31.581   3.776  1.00  0.00     0.050 C 
HETATM   19  C   UNL     1      42.598 -30.690   3.359  1.00  0.00     0.009 A 
HETATM   20  C   UNL     1      41.669 -29.935   2.648  1.00  0.00     0.001 A 
HETATM   21  C   UNL     1      42.074 -29.234   1.520  1.00  0.00     0.002 A 
HETATM   22  C   UNL     1      43.407 -29.287   1.101  1.00  0.00     0.030 A 
ENDBRANCH  13  16
ENDBRANCH   1  12
BRANCH   2  23
HETATM   23  C   UNL     1      47.338 -29.310  -1.282  1.00  0.00     0.064 A 
HETATM   24  N   UNL     1      46.968 -30.592  -1.553  1.00  0.00    -0.263 NA
HETATM   25  C   UNL     1      46.024 -30.782  -2.502  1.00  0.00     0.117 A 
HETATM   26  C   UNL     1      45.426 -29.755  -3.207  1.00  0.00     0.019 A 
HETATM   27  C   UNL     1      45.818 -28.452  -2.928  1.00  0.00     0.003 A 
HETATM   28  C   UNL     1      46.789 -28.220  -1.959  1.00  0.00     0.030 A 
ENDBRANCH   2  23
TORSDOF 3
ENDMDL
MODEL 10
REMARK VINA RESULT:      -7.4     14.883     16.747
REMARK  3 active torsions:
REMARK  status: ('A' for Active; 'I' for Inactive)
REMARK    1  A    between atoms: C_3  and  N_4 
REMARK       I    between atoms: N_4  and  C_5 
REMARK    2  A    between atoms: C_5  and  C_6 
REMARK    3  A    between atoms: C_7  and  C_8 
ROOT
HETATM    1  C   UNL     1      46.588 -29.534   0.616  1.00  0.00     0.063 A 
HETATM    2  C   UNL     1      45.340 -30.059  -0.085  1.00  0.00     0.216 A 
HETATM    3  N   UNL     1      44.135 -29.782   0.688  1.00  0.00    -0.091 N 
HETATM    4  C   UNL     1      44.129 -29.222   1.934  1.00  0.00     0.735 A 
HETATM    5  N   UNL     1      45.296 -28.840   2.488  1.00  0.00    -0.191 N 
HETATM    6  N   UNL     1      42.893 -30.163   0.348  1.00  0.00     0.012 NA
HETATM    7  N   UNL     1      42.133 -29.768   1.365  1.00  0.00     0.033 NA
HETATM    8  N   UNL     1      42.891 -29.184   2.361  1.00  0.00     0.030 NA
HETATM    9  C   UNL     1      46.523 -28.960   1.843  1.00  0.00     0.037 A 
HETATM   10  C   UNL     1      47.716 -28.433   2.603  1.00  0.00     0.070 C 
HETATM   11  H   UNL     1      45.288 -28.394   3.403  1.00  0.00     0.184 HD
ENDROOT
BRANCH   1  12
HETATM   12  C   UNL     1      47.869 -29.547  -0.148  1.00  0.00     0.256 C 
HETATM   13  N   UNL     1      48.422 -30.801  -0.274  1.00  0.00    -0.323 N 
HETATM   14  H   UNL     1      47.927 -31.573   0.144  1.00  0.00     0.169 HD
HETATM   15  O   UNL     1      48.306 -28.488  -0.580  1.00  0.00    -0.267 OA
BRANCH  13  16
HETATM   16  C   UNL     1      49.601 -31.158  -0.978  1.00  0.00     0.041 A 
HETATM   17  C   UNL     1      50.826 -31.200  -0.274  1.00  0.00    -0.035 A 
HETATM   18  C   UNL     1      50.927 -30.885   1.195  1.00  0.00     0.050 C 
HETATM   19  C   UNL     1      52.004 -31.558  -0.956  1.00  0.00     0.009 A 
HETATM   20  C   UNL     1      51.978 -31.871  -2.313  1.00  0.00     0.001 A 
HETATM   21  C   UNL     1      50.775 -31.830  -3.004  1.00  0.00     0.002 A 
HETATM   22  C   UNL     1      49.596 -31.476  -2.341  1.00  0.00     0.030 A 
ENDBRANCH  13  16
ENDBRANCH   1  12
BRANCH   2  23
HETATM   23  C   UNL     1      45.205 -29.565  -1.513  1.00  0.00     0.064 A 
HETATM   24  N   UNL     1      45.277 -30.522  -2.479  1.00  0.00    -0.263 NA
HETATM   25  C   UNL     1      45.222 -30.116  -3.767  1.00  0.00     0.117 A 
HETATM   26  C   UNL     1      45.102 -28.794  -4.151  1.00  0.00     0.019 A 
HETATM   27  C   UNL     1      45.038 -27.825  -3.158  1.00  0.00     0.003 A 
HETATM   28  C   UNL     1      45.094 -28.208  -1.821  1.00  0.00     0.030 A 
ENDBRANCH   2  23
TORSDOF 3
ENDMDL
