MODEL 1
REMARK VINA RESULT:      -7.9      0.000      0.000
REMARK  5 active torsions:
REMARK  status: ('A' for Active; 'I' for Inactive)
REMARK    1  A    between atoms: C_3  and  C_4 
REMARK    2  A    between atoms: C_4  and  C_5 
REMARK    3  A    between atoms: C_5  and  N_6 
REMARK       I    between atoms: N_6  and  C_7 
REMARK       I    between atoms: C_7  and  N_8 
REMARK    4  A    between atoms: N_8  and  C_9 
REMARK    5  A    between atoms: N_11  and  C_12 
ROOT
HETATM    1  C   UNL     1      42.765 -14.770   2.511  1.00  0.00     0.159 A 
HETATM    2  N   UNL     1      43.485 -15.792   2.973  1.00  0.00    -0.149 NA
HETATM    3  N   UNL     1      42.727 -16.898   2.812  1.00  0.00    -0.241 N 
HETATM    4  C   UNL     1      41.498 -16.558   2.275  1.00  0.00     0.129 A 
HETATM    5  C   UNL     1      41.493 -15.197   2.062  1.00  0.00     0.003 A 
HETATM    6  C   UNL     1      40.396 -14.380   1.493  1.00  0.00     0.054 C 
ENDROOT
BRANCH   1   7
HETATM    7  N   UNL     1      43.201 -13.465   2.473  1.00  0.00    -0.291 N 
HETATM    8  C   UNL     1      43.371 -12.584   3.496  1.00  0.00     0.321 C 
HETATM    9  N   UNL     1      43.036 -13.001   4.743  1.00  0.00    -0.343 N 
HETATM   10  O   UNL     1      43.813 -11.461   3.256  1.00  0.00    -0.247 OA
HETATM   11  H   UNL     1      42.660 -13.946   4.819  1.00  0.00     0.164 HD
HETATM   12  H   UNL     1      43.461 -13.084   1.575  1.00  0.00     0.172 HD
BRANCH   9  13
HETATM   13  C   UNL     1      43.180 -12.180   5.925  1.00  0.00     0.128 C 
BRANCH  13  14
HETATM   14  C   UNL     1      44.505 -12.424   6.651  1.00  0.00     0.046 C 
BRANCH  14  15
HETATM   15  C   UNL     1      45.314 -11.159   6.766  1.00  0.00    -0.029 C 
HETATM   16  C   UNL     1      45.612 -10.557   7.927  1.00  0.00    -0.035 C 
HETATM   17  C   UNL     1      46.408  -9.297   8.032  1.00  0.00     0.036 C 
ENDBRANCH  14  15
ENDBRANCH  13  14
ENDBRANCH   9  13
ENDBRANCH   1   7
BRANCH   3  18
HETATM   18  C   UNL     1      43.196 -18.210   3.140  1.00  0.00     0.079 A 
HETATM   19  C   UNL     1      43.762 -18.546   4.387  1.00  0.00     0.062 A 
HETATM   20 CL   UNL     1      43.925 -17.487   5.747  1.00  0.00    -0.082 Cl
HETATM   21  C   UNL     1      44.219 -19.855   4.618  1.00  0.00     0.026 A 
HETATM   22  C   UNL     1      44.122 -20.837   3.636  1.00  0.00     0.002 A 
HETATM   23  C   UNL     1      43.562 -20.521   2.407  1.00  0.00     0.002 A 
HETATM   24  C   UNL     1      43.103 -19.224   2.160  1.00  0.00     0.033 A 
ENDBRANCH   3  18
TORSDOF 5
ENDMDL
MODEL 2
REMARK VINA RESULT:      -7.5      1.126      1.174
REMARK  5 active torsions:
REMARK  status: ('A' for Active; 'I' for Inactive)
REMARK    1  A    between atoms: C_3  and  C_4 
REMARK    2  A    between atoms: C_4  and  C_5 
REMARK    3  A    between atoms: C_5  and  N_6 
REMARK       I    between atoms: N_6  and  C_7 
REMARK       I    between atoms: C_7  and  N_8 
REMARK    4  A    between atoms: N_8  and  C_9 
REMARK    5  A    between atoms: N_11  and  C_12 
ROOT
HETATM    1  C   UNL     1      42.136 -13.914   3.212  1.00  0.00     0.159 A 
HETATM    2  N   UNL     1      43.000 -14.912   3.387  1.00  0.00    -0.149 NA
HETATM    3  N   UNL     1      42.298 -16.057   3.236  1.00  0.00    -0.241 N 
HETATM    4  C   UNL     1      40.965 -15.769   3.000  1.00  0.00     0.129 A 
HETATM    5  C   UNL     1      40.829 -14.399   2.971  1.00  0.00     0.003 A 
HETATM    6  C   UNL     1      39.587 -13.623   2.739  1.00  0.00     0.054 C 
ENDROOT
BRANCH   1   7
HETATM    7  N   UNL     1      42.469 -12.578   3.258  1.00  0.00    -0.291 N 
HETATM    8  C   UNL     1      42.935 -11.843   4.305  1.00  0.00     0.321 C 
HETATM    9  N   UNL     1      43.064 -12.471   5.502  1.00  0.00    -0.343 N 
HETATM   10  O   UNL     1      43.214 -10.658   4.131  1.00  0.00    -0.247 OA
HETATM   11  H   UNL     1      42.782 -13.450   5.532  1.00  0.00     0.164 HD
HETATM   12  H   UNL     1      42.389 -12.046   2.405  1.00  0.00     0.172 HD
BRANCH   9  13
HETATM   13  C   UNL     1      43.562 -11.821   6.694  1.00  0.00     0.128 C 
BRANCH  13  14
HETATM   14  C   UNL     1      45.087 -11.884   6.803  1.00  0.00     0.046 C 
BRANCH  14  15
HETATM   15  C   UNL     1      45.612 -10.887   7.803  1.00  0.00    -0.029 C 
HETATM   16  C   UNL     1      44.945 -10.497   8.899  1.00  0.00    -0.035 C 
HETATM   17  C   UNL     1      45.469  -9.501   9.883  1.00  0.00     0.036 C 
ENDBRANCH  14  15
ENDBRANCH  13  14
ENDBRANCH   9  13
ENDBRANCH   1   7
BRANCH   3  18
HETATM   18  C   UNL     1      42.908 -17.350   3.293  1.00  0.00     0.079 A 
HETATM   19  C   UNL     1      43.739 -17.774   4.350  1.00  0.00     0.062 A 
HETATM   20 CL   UNL     1      44.110 -16.867   5.778  1.00  0.00    -0.082 Cl
HETATM   21  C   UNL     1      44.318 -19.055   4.315  1.00  0.00     0.026 A 
HETATM   22  C   UNL     1      44.085 -19.923   3.251  1.00  0.00     0.002 A 
HETATM   23  C   UNL     1      43.264 -19.520   2.208  1.00  0.00     0.002 A 
HETATM   24  C   UNL     1      42.681 -18.249   2.227  1.00  0.00     0.033 A 
ENDBRANCH   3  18
TORSDOF 5
ENDMDL
MODEL 3
REMARK VINA RESULT:      -7.4      2.598      5.865
REMARK  5 active torsions:
REMARK  status: ('A' for Active; 'I' for Inactive)
REMARK    1  A    between atoms: C_3  and  C_4 
REMARK    2  A    between atoms: C_4  and  C_5 
REMARK    3  A    between atoms: C_5  and  N_6 
REMARK       I    between atoms: N_6  and  C_7 
REMARK       I    between atoms: C_7  and  N_8 
REMARK    4  A    between atoms: N_8  and  C_9 
REMARK    5  A    between atoms: N_11  and  C_12 
ROOT
HETATM    1  C   UNL     1      41.943 -15.006   5.017  1.00  0.00     0.159 A 
HETATM    2  N   UNL     1      41.985 -16.224   4.480  1.00  0.00    -0.149 NA
HETATM    3  N   UNL     1      43.087 -16.825   4.981  1.00  0.00    -0.241 N 
HETATM    4  C   UNL     1      43.764 -15.956   5.817  1.00  0.00     0.129 A 
HETATM    5  C   UNL     1      43.051 -14.778   5.868  1.00  0.00     0.003 A 
HETATM    6  C   UNL     1      43.382 -13.559   6.641  1.00  0.00     0.054 C 
ENDROOT
BRANCH   1   7
HETATM    7  N   UNL     1      40.949 -14.083   4.778  1.00  0.00    -0.291 N 
HETATM    8  C   UNL     1      40.502 -13.589   3.592  1.00  0.00     0.321 C 
HETATM    9  N   UNL     1      41.126 -14.010   2.463  1.00  0.00    -0.343 N 
HETATM   10  O   UNL     1      39.566 -12.790   3.588  1.00  0.00    -0.247 OA
HETATM   11  H   UNL     1      41.903 -14.657   2.590  1.00  0.00     0.164 HD
HETATM   12  H   UNL     1      40.447 -13.720   5.574  1.00  0.00     0.172 HD
BRANCH   9  13
HETATM   13  C   UNL     1      40.747 -13.583   1.134  1.00  0.00     0.128 C 
BRANCH  13  14
HETATM   14  C   UNL     1      40.128 -14.714   0.308  1.00  0.00     0.046 C 
BRANCH  14  15
HETATM   15  C   UNL     1      39.544 -14.201  -0.981  1.00  0.00    -0.029 C 
HETATM   16  C   UNL     1      39.069 -14.987  -1.959  1.00  0.00    -0.035 C 
HETATM   17  C   UNL     1      38.498 -14.471  -3.240  1.00  0.00     0.036 C 
ENDBRANCH  14  15
ENDBRANCH  13  14
ENDBRANCH   9  13
ENDBRANCH   1   7
BRANCH   3  18
HETATM   18  C   UNL     1      43.432 -18.181   4.678  1.00  0.00     0.079 A 
HETATM   19  C   UNL     1      43.518 -18.688   3.365  1.00  0.00     0.062 A 
HETATM   20 CL   UNL     1      43.303 -17.777   1.908  1.00  0.00    -0.082 Cl
HETATM   21  C   UNL     1      43.841 -20.040   3.157  1.00  0.00     0.026 A 
HETATM   22  C   UNL     1      44.083 -20.898   4.228  1.00  0.00     0.002 A 
HETATM   23  C   UNL     1      44.007 -20.410   5.524  1.00  0.00     0.002 A 
HETATM   24  C   UNL     1      43.686 -19.068   5.749  1.00  0.00     0.033 A 
ENDBRANCH   3  18
TORSDOF 5
ENDMDL
MODEL 4
REMARK VINA RESULT:      -7.3      2.899      5.605
REMARK  5 active torsions:
REMARK  status: ('A' for Active; 'I' for Inactive)
REMARK    1  A    between atoms: C_3  and  C_4 
REMARK    2  A    between atoms: C_4  and  C_5 
REMARK    3  A    between atoms: C_5  and  N_6 
REMARK       I    between atoms: N_6  and  C_7 
REMARK       I    between atoms: C_7  and  N_8 
REMARK    4  A    between atoms: N_8  and  C_9 
REMARK    5  A    between atoms: N_11  and  C_12 
ROOT
HETATM    1  C   UNL     1      42.357 -13.270   3.430  1.00  0.00     0.159 A 
HETATM    2  N   UNL     1      43.031 -14.346   3.027  1.00  0.00    -0.149 NA
HETATM    3  N   UNL     1      42.612 -15.372   3.800  1.00  0.00    -0.241 N 
HETATM    4  C   UNL     1      41.688 -14.922   4.726  1.00  0.00     0.129 A 
HETATM    5  C   UNL     1      41.496 -13.576   4.511  1.00  0.00     0.003 A 
HETATM    6  C   UNL     1      40.590 -12.667   5.251  1.00  0.00     0.054 C 
ENDROOT
BRANCH   1   7
HETATM    7  N   UNL     1      42.479 -12.019   2.868  1.00  0.00    -0.291 N 
HETATM    8  C   UNL     1      41.870 -11.508   1.764  1.00  0.00     0.321 C 
HETATM    9  N   UNL     1      41.047 -12.330   1.066  1.00  0.00    -0.343 N 
HETATM   10  O   UNL     1      42.086 -10.339   1.444  1.00  0.00    -0.247 OA
HETATM   11  H   UNL     1      40.960 -13.285   1.414  1.00  0.00     0.164 HD
HETATM   12  H   UNL     1      43.084 -11.356   3.331  1.00  0.00     0.172 HD
BRANCH   9  13
HETATM   13  C   UNL     1      40.321 -11.918  -0.114  1.00  0.00     0.128 C 
BRANCH  13  14
HETATM   14  C   UNL     1      41.037 -12.308  -1.410  1.00  0.00     0.046 C 
BRANCH  14  15
HETATM   15  C   UNL     1      40.133 -13.085  -2.330  1.00  0.00    -0.029 C 
HETATM   16  C   UNL     1      39.542 -14.244  -2.004  1.00  0.00    -0.035 C 
HETATM   17  C   UNL     1      38.653 -15.014  -2.926  1.00  0.00     0.036 C 
ENDBRANCH  14  15
ENDBRANCH  13  14
ENDBRANCH   9  13
ENDBRANCH   1   7
BRANCH   3  18
HETATM   18  C   UNL     1      43.073 -16.715   3.616  1.00  0.00     0.079 A 
HETATM   19  C   UNL     1      43.963 -17.360   4.499  1.00  0.00     0.062 A 
HETATM   20 CL   UNL     1      44.593 -16.699   5.970  1.00  0.00    -0.082 Cl
HETATM   21  C   UNL     1      44.384 -18.675   4.231  1.00  0.00     0.026 A 
HETATM   22  C   UNL     1      43.935 -19.361   3.105  1.00  0.00     0.002 A 
HETATM   23  C   UNL     1      43.054 -18.739   2.233  1.00  0.00     0.002 A 
HETATM   24  C   UNL     1      42.626 -17.432   2.484  1.00  0.00     0.033 A 
ENDBRANCH   3  18
TORSDOF 5
ENDMDL
MODEL 5
REMARK VINA RESULT:      -7.3      2.661      5.774
REMARK  5 active torsions:
REMARK  status: ('A' for Active; 'I' for Inactive)
REMARK    1  A    between atoms: C_3  and  C_4 
REMARK    2  A    between atoms: C_4  and  C_5 
REMARK    3  A    between atoms: C_5  and  N_6 
REMARK       I    between atoms: N_6  and  C_7 
REMARK       I    between atoms: C_7  and  N_8 
REMARK    4  A    between atoms: N_8  and  C_9 
REMARK    5  A    between atoms: N_11  and  C_12 
ROOT
HETATM    1  C   UNL     1      41.423 -15.218   3.920  1.00  0.00     0.159 A 
HETATM    2  N   UNL     1      41.501 -16.483   3.509  1.00  0.00    -0.149 NA
HETATM    3  N   UNL     1      42.723 -16.928   3.873  1.00  0.00    -0.241 N 
HETATM    4  C   UNL     1      43.434 -15.914   4.489  1.00  0.00     0.129 A 
HETATM    5  C   UNL     1      42.623 -14.802   4.541  1.00  0.00     0.003 A 
HETATM    6  C   UNL     1      42.949 -13.478   5.120  1.00  0.00     0.054 C 
ENDROOT
BRANCH   1   7
HETATM    7  N   UNL     1      40.315 -14.416   3.761  1.00  0.00    -0.291 N 
HETATM    8  C   UNL     1      39.840 -13.816   2.636  1.00  0.00     0.321 C 
HETATM    9  N   UNL     1      40.555 -13.975   1.493  1.00  0.00    -0.343 N 
HETATM   10  O   UNL     1      38.800 -13.162   2.696  1.00  0.00    -0.247 OA
HETATM   11  H   UNL     1      41.413 -14.521   1.568  1.00  0.00     0.164 HD
HETATM   12  H   UNL     1      39.740 -14.247   4.573  1.00  0.00     0.172 HD
BRANCH   9  13
HETATM   13  C   UNL     1      40.162 -13.411   0.221  1.00  0.00     0.128 C 
BRANCH  13  14
HETATM   14  C   UNL     1      39.696 -14.476  -0.775  1.00  0.00     0.046 C 
BRANCH  14  15
HETATM   15  C   UNL     1      38.730 -13.909  -1.781  1.00  0.00    -0.029 C 
HETATM   16  C   UNL     1      38.091 -12.738  -1.636  1.00  0.00    -0.035 C 
HETATM   17  C   UNL     1      37.127 -12.186  -2.635  1.00  0.00     0.036 C 
ENDBRANCH  14  15
ENDBRANCH  13  14
ENDBRANCH   9  13
ENDBRANCH   1   7
BRANCH   3  18
HETATM   18  C   UNL     1      43.151 -18.277   3.653  1.00  0.00     0.079 A 
HETATM   19  C   UNL     1      43.578 -19.136   4.687  1.00  0.00     0.062 A 
HETATM   20 CL   UNL     1      43.595 -18.763   6.377  1.00  0.00    -0.082 Cl
HETATM   21  C   UNL     1      44.005 -20.440   4.380  1.00  0.00     0.026 A 
HETATM   22  C   UNL     1      44.013 -20.907   3.068  1.00  0.00     0.002 A 
HETATM   23  C   UNL     1      43.590 -20.073   2.043  1.00  0.00     0.002 A 
HETATM   24  C   UNL     1      43.163 -18.773   2.331  1.00  0.00     0.033 A 
ENDBRANCH   3  18
TORSDOF 5
ENDMDL
MODEL 6
REMARK VINA RESULT:      -6.8      1.767      2.948
REMARK  5 active torsions:
REMARK  status: ('A' for Active; 'I' for Inactive)
REMARK    1  A    between atoms: C_3  and  C_4 
REMARK    2  A    between atoms: C_4  and  C_5 
REMARK    3  A    between atoms: C_5  and  N_6 
REMARK       I    between atoms: N_6  and  C_7 
REMARK       I    between atoms: C_7  and  N_8 
REMARK    4  A    between atoms: N_8  and  C_9 
REMARK    5  A    between atoms: N_11  and  C_12 
ROOT
HETATM    1  C   UNL     1      42.739 -14.729   2.360  1.00  0.00     0.159 A 
HETATM    2  N   UNL     1      43.446 -15.719   2.902  1.00  0.00    -0.149 NA
HETATM    3  N   UNL     1      42.729 -16.849   2.712  1.00  0.00    -0.241 N 
HETATM    4  C   UNL     1      41.538 -16.554   2.073  1.00  0.00     0.129 A 
HETATM    5  C   UNL     1      41.516 -15.199   1.826  1.00  0.00     0.003 A 
HETATM    6  C   UNL     1      40.447 -14.425   1.153  1.00  0.00     0.054 C 
ENDROOT
BRANCH   1   7
HETATM    7  N   UNL     1      43.145 -13.413   2.322  1.00  0.00    -0.291 N 
HETATM    8  C   UNL     1      43.045 -12.454   3.281  1.00  0.00     0.321 C 
HETATM    9  N   UNL     1      42.428 -12.791   4.442  1.00  0.00    -0.343 N 
HETATM   10  O   UNL     1      43.509 -11.335   3.064  1.00  0.00    -0.247 OA
HETATM   11  H   UNL     1      42.064 -13.742   4.502  1.00  0.00     0.164 HD
HETATM   12  H   UNL     1      43.605 -13.090   1.484  1.00  0.00     0.172 HD
BRANCH   9  13
HETATM   13  C   UNL     1      42.266 -11.881   5.553  1.00  0.00     0.128 C 
BRANCH  13  14
HETATM   14  C   UNL     1      40.800 -11.700   5.955  1.00  0.00     0.046 C 
BRANCH  14  15
HETATM   15  C   UNL     1      40.073 -10.786   5.004  1.00  0.00    -0.029 C 
HETATM   16  C   UNL     1      39.247 -11.209   4.035  1.00  0.00    -0.035 C 
HETATM   17  C   UNL     1      38.536 -10.297   3.089  1.00  0.00     0.036 C 
ENDBRANCH  14  15
ENDBRANCH  13  14
ENDBRANCH   9  13
ENDBRANCH   1   7
BRANCH   3  18
HETATM   18  C   UNL     1      43.203 -18.140   3.109  1.00  0.00     0.079 A 
HETATM   19  C   UNL     1      43.763 -18.409   4.375  1.00  0.00     0.062 A 
HETATM   20 CL   UNL     1      43.913 -17.281   5.680  1.00  0.00    -0.082 Cl
HETATM   21  C   UNL     1      44.226 -19.702   4.674  1.00  0.00     0.026 A 
HETATM   22  C   UNL     1      44.141 -20.733   3.742  1.00  0.00     0.002 A 
HETATM   23  C   UNL     1      43.587 -20.483   2.496  1.00  0.00     0.002 A 
HETATM   24  C   UNL     1      43.122 -19.202   2.181  1.00  0.00     0.033 A 
ENDBRANCH   3  18
TORSDOF 5
ENDMDL
MODEL 7
REMARK VINA RESULT:      -6.8      4.085      6.169
REMARK  5 active torsions:
REMARK  status: ('A' for Active; 'I' for Inactive)
REMARK    1  A    between atoms: C_3  and  C_4 
REMARK    2  A    between atoms: C_4  and  C_5 
REMARK    3  A    between atoms: C_5  and  N_6 
REMARK       I    between atoms: N_6  and  C_7 
REMARK       I    between atoms: C_7  and  N_8 
REMARK    4  A    between atoms: N_8  and  C_9 
REMARK    5  A    between atoms: N_11  and  C_12 
ROOT
HETATM    1  C   UNL     1      43.267 -10.846   6.955  1.00  0.00     0.159 A 
HETATM    2  N   UNL     1      42.327 -11.674   6.502  1.00  0.00    -0.149 NA
HETATM    3  N   UNL     1      42.939 -12.855   6.263  1.00  0.00    -0.241 N 
HETATM    4  C   UNL     1      44.291 -12.752   6.536  1.00  0.00     0.129 A 
HETATM    5  C   UNL     1      44.534 -11.475   6.990  1.00  0.00     0.003 A 
HETATM    6  C   UNL     1      45.834 -10.903   7.415  1.00  0.00     0.054 C 
ENDROOT
BRANCH   1   7
HETATM    7  N   UNL     1      43.038  -9.545   7.341  1.00  0.00    -0.291 N 
HETATM    8  C   UNL     1      42.764  -9.049   8.578  1.00  0.00     0.321 C 
HETATM    9  N   UNL     1      42.652  -9.938   9.597  1.00  0.00    -0.343 N 
HETATM   10  O   UNL     1      42.627  -7.835   8.723  1.00  0.00    -0.247 OA
HETATM   11  H   UNL     1      42.764 -10.922   9.354  1.00  0.00     0.164 HD
HETATM   12  H   UNL     1      43.096  -8.829   6.631  1.00  0.00     0.172 HD
BRANCH   9  13
HETATM   13  C   UNL     1      42.381  -9.555  10.965  1.00  0.00     0.128 C 
BRANCH  13  14
HETATM   14  C   UNL     1      43.644  -9.122  11.714  1.00  0.00     0.046 C 
BRANCH  14  15
HETATM   15  C   UNL     1      43.331  -8.119  12.793  1.00  0.00    -0.029 C 
HETATM   16  C   UNL     1      42.530  -8.363  13.841  1.00  0.00    -0.035 C 
HETATM   17  C   UNL     1      42.218  -7.360  14.903  1.00  0.00     0.036 C 
ENDBRANCH  14  15
ENDBRANCH  13  14
ENDBRANCH   9  13
ENDBRANCH   1   7
BRANCH   3  18
HETATM   18  C   UNL     1      42.229 -14.017   5.821  1.00  0.00     0.079 A 
HETATM   19  C   UNL     1      42.203 -15.232   6.537  1.00  0.00     0.062 A 
HETATM   20 CL   UNL     1      42.939 -15.520   8.078  1.00  0.00    -0.082 Cl
HETATM   21  C   UNL     1      41.500 -16.334   6.019  1.00  0.00     0.026 A 
HETATM   22  C   UNL     1      40.821 -16.251   4.806  1.00  0.00     0.002 A 
HETATM   23  C   UNL     1      40.835 -15.060   4.095  1.00  0.00     0.002 A 
HETATM   24  C   UNL     1      41.530 -13.955   4.596  1.00  0.00     0.033 A 
ENDBRANCH   3  18
TORSDOF 5
ENDMDL
MODEL 8
REMARK VINA RESULT:      -6.7     14.932     15.805
REMARK  5 active torsions:
REMARK  status: ('A' for Active; 'I' for Inactive)
REMARK    1  A    between atoms: C_3  and  C_4 
REMARK    2  A    between atoms: C_4  and  C_5 
REMARK    3  A    between atoms: C_5  and  N_6 
REMARK       I    between atoms: N_6  and  C_7 
REMARK       I    between atoms: C_7  and  N_8 
REMARK    4  A    between atoms: N_8  and  C_9 
REMARK    5  A    between atoms: N_11  and  C_12 
ROOT
HETATM    1  C   UNL     1      44.608 -30.123   2.165  1.00  0.00     0.159 A 
HETATM    2  N   UNL     1      45.232 -29.960   0.999  1.00  0.00    -0.149 NA
HETATM    3  N   UNL     1      44.300 -29.526   0.123  1.00  0.00    -0.241 N 
HETATM    4  C   UNL     1      43.065 -29.451   0.742  1.00  0.00     0.129 A 
HETATM    5  C   UNL     1      43.230 -29.821   2.059  1.00  0.00     0.003 A 
HETATM    6  C   UNL     1      42.190 -29.886   3.112  1.00  0.00     0.054 C 
ENDROOT
BRANCH   1   7
HETATM    7  N   UNL     1      45.223 -30.531   3.327  1.00  0.00    -0.291 N 
HETATM    8  C   UNL     1      46.442 -30.183   3.824  1.00  0.00     0.321 C 
HETATM    9  N   UNL     1      47.207 -29.348   3.077  1.00  0.00    -0.343 N 
HETATM   10  O   UNL     1      46.799 -30.633   4.912  1.00  0.00    -0.247 OA
HETATM   11  H   UNL     1      46.816 -29.055   2.182  1.00  0.00     0.164 HD
HETATM   12  H   UNL     1      44.715 -31.161   3.929  1.00  0.00     0.172 HD
BRANCH   9  13
HETATM   13  C   UNL     1      48.513 -28.881   3.486  1.00  0.00     0.128 C 
BRANCH  13  14
HETATM   14  C   UNL     1      49.609 -29.923   3.253  1.00  0.00     0.046 C 
BRANCH  14  15
HETATM   15  C   UNL     1      50.255 -30.345   4.546  1.00  0.00    -0.029 C 
HETATM   16  C   UNL     1      51.411 -31.021   4.626  1.00  0.00    -0.035 C 
HETATM   17  C   UNL     1      52.042 -31.443   5.913  1.00  0.00     0.036 C 
ENDBRANCH  14  15
ENDBRANCH  13  14
ENDBRANCH   9  13
ENDBRANCH   1   7
BRANCH   3  18
HETATM   18  C   UNL     1      44.613 -29.179  -1.230  1.00  0.00     0.079 A 
HETATM   19  C   UNL     1      45.717 -28.382  -1.593  1.00  0.00     0.062 A 
HETATM   20 CL   UNL     1      46.914 -27.749  -0.514  1.00  0.00    -0.082 Cl
HETATM   21  C   UNL     1      45.938 -28.069  -2.946  1.00  0.00     0.026 A 
HETATM   22  C   UNL     1      45.086 -28.535  -3.944  1.00  0.00     0.002 A 
HETATM   23  C   UNL     1      44.000 -29.326  -3.600  1.00  0.00     0.002 A 
HETATM   24  C   UNL     1      43.764 -29.646  -2.259  1.00  0.00     0.033 A 
ENDBRANCH   3  18
TORSDOF 5
ENDMDL
MODEL 9
REMARK VINA RESULT:      -6.7      2.668      7.297
REMARK  5 active torsions:
REMARK  status: ('A' for Active; 'I' for Inactive)
REMARK    1  A    between atoms: C_3  and  C_4 
REMARK    2  A    between atoms: C_4  and  C_5 
REMARK    3  A    between atoms: C_5  and  N_6 
REMARK       I    between atoms: N_6  and  C_7 
REMARK       I    between atoms: C_7  and  N_8 
REMARK    4  A    between atoms: N_8  and  C_9 
REMARK    5  A    between atoms: N_11  and  C_12 
ROOT
HETATM    1  C   UNL     1      42.225 -12.450   4.299  1.00  0.00     0.159 A 
HETATM    2  N   UNL     1      43.062 -11.505   4.725  1.00  0.00    -0.149 NA
HETATM    3  N   UNL     1      43.245 -11.723   6.045  1.00  0.00    -0.241 N 
HETATM    4  C   UNL     1      42.481 -12.800   6.460  1.00  0.00     0.129 A 
HETATM    5  C   UNL     1      41.818 -13.295   5.359  1.00  0.00     0.003 A 
HETATM    6  C   UNL     1      40.892 -14.450   5.311  1.00  0.00     0.054 C 
ENDROOT
BRANCH   1   7
HETATM    7  N   UNL     1      41.808 -12.590   2.994  1.00  0.00    -0.291 N 
HETATM    8  C   UNL     1      42.171 -13.520   2.069  1.00  0.00     0.321 C 
HETATM    9  N   UNL     1      43.106 -14.434   2.434  1.00  0.00    -0.343 N 
HETATM   10  O   UNL     1      41.649 -13.497   0.956  1.00  0.00    -0.247 OA
HETATM   11  H   UNL     1      43.484 -14.343   3.377  1.00  0.00     0.164 HD
HETATM   12  H   UNL     1      41.118 -11.938   2.651  1.00  0.00     0.172 HD
BRANCH   9  13
HETATM   13  C   UNL     1      43.574 -15.489   1.563  1.00  0.00     0.128 C 
BRANCH  13  14
HETATM   14  C   UNL     1      43.064 -16.869   1.986  1.00  0.00     0.046 C 
BRANCH  14  15
HETATM   15  C   UNL     1      42.930 -16.975   3.482  1.00  0.00    -0.029 C 
HETATM   16  C   UNL     1      43.823 -17.583   4.277  1.00  0.00    -0.035 C 
HETATM   17  C   UNL     1      43.679 -17.691   5.761  1.00  0.00     0.036 C 
ENDBRANCH  14  15
ENDBRANCH  13  14
ENDBRANCH   9  13
ENDBRANCH   1   7
BRANCH   3  18
HETATM   18  C   UNL     1      44.139 -10.938   6.841  1.00  0.00     0.079 A 
HETATM   19  C   UNL     1      43.726  -9.836   7.619  1.00  0.00     0.062 A 
HETATM   20 CL   UNL     1      42.097  -9.284   7.814  1.00  0.00    -0.082 Cl
HETATM   21  C   UNL     1      44.675  -9.104   8.353  1.00  0.00     0.026 A 
HETATM   22  C   UNL     1      46.025  -9.446   8.333  1.00  0.00     0.002 A 
HETATM   23  C   UNL     1      46.443 -10.531   7.576  1.00  0.00     0.002 A 
HETATM   24  C   UNL     1      45.512 -11.270   6.839  1.00  0.00     0.033 A 
ENDBRANCH   3  18
TORSDOF 5
ENDMDL
MODEL 10
REMARK VINA RESULT:      -6.5      3.434      4.762
REMARK  5 active torsions:
REMARK  status: ('A' for Active; 'I' for Inactive)
REMARK    1  A    between atoms: C_3  and  C_4 
REMARK    2  A    between atoms: C_4  and  C_5 
REMARK    3  A    between atoms: C_5  and  N_6 
REMARK       I    between atoms: N_6  and  C_7 
REMARK       I    between atoms: C_7  and  N_8 
REMARK    4  A    between atoms: N_8  and  C_9 
REMARK    5  A    between atoms: N_11  and  C_12 
ROOT
HETATM    1  C   UNL     1      41.778 -11.729   6.172  1.00  0.00     0.159 A 
HETATM    2  N   UNL     1      42.754 -12.630   6.069  1.00  0.00    -0.149 NA
HETATM    3  N   UNL     1      42.161 -13.801   5.750  1.00  0.00    -0.241 N 
HETATM    4  C   UNL     1      40.789 -13.638   5.689  1.00  0.00     0.129 A 
HETATM    5  C   UNL     1      40.509 -12.314   5.949  1.00  0.00     0.003 A 
HETATM    6  C   UNL     1      39.177 -11.666   5.983  1.00  0.00     0.054 C 
ENDROOT
BRANCH   1   7
HETATM    7  N   UNL     1      41.975 -10.397   6.459  1.00  0.00    -0.291 N 
HETATM    8  C   UNL     1      42.737  -9.830   7.434  1.00  0.00     0.321 C 
HETATM    9  N   UNL     1      43.377 -10.664   8.293  1.00  0.00    -0.343 N 
HETATM   10  O   UNL     1      42.813  -8.604   7.502  1.00  0.00    -0.247 OA
HETATM   11  H   UNL     1      43.223 -11.663   8.153  1.00  0.00     0.164 HD
HETATM   12  H   UNL     1      41.522  -9.718   5.866  1.00  0.00     0.172 HD
BRANCH   9  13
HETATM   13  C   UNL     1      44.232 -10.204   9.364  1.00  0.00     0.128 C 
BRANCH  13  14
HETATM   14  C   UNL     1      43.665 -10.528  10.748  1.00  0.00     0.046 C 
BRANCH  14  15
HETATM   15  C   UNL     1      42.968  -9.338  11.353  1.00  0.00    -0.029 C 
HETATM   16  C   UNL     1      43.466  -8.603  12.359  1.00  0.00    -0.035 C 
HETATM   17  C   UNL     1      42.765  -7.428  12.959  1.00  0.00     0.036 C 
ENDBRANCH  14  15
ENDBRANCH  13  14
ENDBRANCH   9  13
ENDBRANCH   1   7
BRANCH   3  18
HETATM   18  C   UNL     1      42.903 -14.998   5.493  1.00  0.00     0.079 A 
HETATM   19  C   UNL     1      42.800 -15.736   4.296  1.00  0.00     0.062 A 
HETATM   20 CL   UNL     1      41.841 -15.311   2.919  1.00  0.00    -0.082 Cl
HETATM   21  C   UNL     1      43.548 -16.916   4.135  1.00  0.00     0.026 A 
HETATM   22  C   UNL     1      44.400 -17.373   5.138  1.00  0.00     0.002 A 
HETATM   23  C   UNL     1      44.515 -16.652   6.318  1.00  0.00     0.002 A 
HETATM   24  C   UNL     1      43.776 -15.478   6.495  1.00  0.00     0.033 A 
ENDBRANCH   3  18
TORSDOF 5
ENDMDL
