MODEL 1
REMARK VINA RESULT:     -10.5      0.000      0.000
REMARK  4 active torsions:
REMARK  status: ('A' for Active; 'I' for Inactive)
REMARK    1  A    between atoms: C_2  and  C_3 
REMARK    2  A    between atoms: N_16  and  C_17 
REMARK    3  A    between atoms: C_17  and  C_18 
REMARK       I    between atoms: C_18  and  N_19 
REMARK    4  A    between atoms: N_19  and  C_20 
ROOT
HETATM    1  C   UNL     1      43.880 -14.119   6.396  1.00  0.00     0.054 C 
HETATM    2  C   UNL     1      42.749 -14.391   5.401  1.00  0.00     0.140 A 
HETATM    3  N   UNL     1      41.484 -14.381   6.110  1.00  0.00    -0.321 N 
HETATM    4  C   UNL     1      40.625 -13.411   5.654  1.00  0.00     0.326 A 
HETATM    5  O   UNL     1      39.472 -13.297   6.025  1.00  0.00    -0.247 OA
HETATM    6  N   UNL     1      41.271 -12.668   4.716  1.00  0.00    -0.259 N 
HETATM    7  C   UNL     1      42.544 -13.129   4.526  1.00  0.00     0.261 A 
HETATM    8  O   UNL     1      43.373 -12.594   3.797  1.00  0.00    -0.270 OA
HETATM    9  H   UNL     1      41.158 -15.112   6.729  1.00  0.00     0.165 HD
ENDROOT
BRANCH   6  10
HETATM   10  C   UNL     1      40.676 -11.557   4.006  1.00  0.00     0.240 C 
BRANCH  10  11
HETATM   11  C   UNL     1      39.972 -12.048   2.744  1.00  0.00     0.240 C 
HETATM   12  N   UNL     1      40.838 -12.605   1.810  1.00  0.00    -0.325 N 
HETATM   13  H   UNL     1      41.803 -12.714   2.108  1.00  0.00     0.169 HD
HETATM   14  O   UNL     1      38.748 -12.010   2.659  1.00  0.00    -0.271 OA
BRANCH  12  15
HETATM   15  C   UNL     1      40.490 -13.139   0.538  1.00  0.00     0.047 A 
HETATM   16  C   UNL     1      40.644 -12.340  -0.639  1.00  0.00     0.019 A 
HETATM   17  C   UNL     1      40.287 -12.886  -1.897  1.00  0.00     0.069 A 
HETATM   18  C   UNL     1      41.166 -11.024  -0.671  1.00  0.00     0.017 A 
HETATM   19  N   UNL     1      40.415 -12.222  -3.059  1.00  0.00    -0.260 NA
HETATM   20  C   UNL     1      39.782 -14.174  -1.960  1.00  0.00     0.032 A 
HETATM   21  C   UNL     1      40.921 -10.974  -3.031  1.00  0.00     0.117 A 
HETATM   22  C   UNL     1      41.308 -10.337  -1.874  1.00  0.00     0.020 A 
HETATM   23  C   UNL     1      39.621 -14.951  -0.819  1.00  0.00     0.005 A 
HETATM   24  C   UNL     1      39.973 -14.435   0.423  1.00  0.00     0.030 A 
ENDBRANCH  12  15
ENDBRANCH  10  11
ENDBRANCH   6  10
BRANCH   2  25
HETATM   25  C   UNL     1      42.878 -15.660   4.558  1.00  0.00    -0.020 A 
HETATM   26  C   UNL     1      43.320 -16.867   5.146  1.00  0.00     0.022 A 
HETATM   27  C   UNL     1      43.489 -18.049   4.400  1.00  0.00    -0.025 A 
HETATM   28  C   UNL     1      43.199 -18.040   3.022  1.00  0.00    -0.026 A 
HETATM   29  C   UNL     1      43.950 -19.234   4.998  1.00  0.00     0.012 A 
HETATM   30  C   UNL     1      42.743 -16.853   2.432  1.00  0.00     0.013 A 
HETATM   31  C   UNL     1      43.377 -19.216   2.273  1.00  0.00     0.012 A 
HETATM   32  C   UNL     1      42.584 -15.685   3.186  1.00  0.00     0.011 A 
HETATM   33  C   UNL     1      43.837 -20.386   2.881  1.00  0.00     0.001 A 
HETATM   34  C   UNL     1      44.123 -20.394   4.243  1.00  0.00     0.001 A 
ENDBRANCH   2  25
TORSDOF 4
ENDMDL
MODEL 2
REMARK VINA RESULT:     -10.4      3.619      7.438
REMARK  4 active torsions:
REMARK  status: ('A' for Active; 'I' for Inactive)
REMARK    1  A    between atoms: C_2  and  C_3 
REMARK    2  A    between atoms: N_16  and  C_17 
REMARK    3  A    between atoms: C_17  and  C_18 
REMARK       I    between atoms: C_18  and  N_19 
REMARK    4  A    between atoms: N_19  and  C_20 
ROOT
HETATM    1  C   UNL     1      41.549 -14.475   1.291  1.00  0.00     0.054 C 
HETATM    2  C   UNL     1      42.332 -14.362   2.601  1.00  0.00     0.140 A 
HETATM    3  N   UNL     1      43.429 -13.430   2.417  1.00  0.00    -0.321 N 
HETATM    4  C   UNL     1      43.351 -12.345   3.256  1.00  0.00     0.326 A 
HETATM    5  O   UNL     1      44.222 -11.500   3.354  1.00  0.00    -0.247 OA
HETATM    6  N   UNL     1      42.190 -12.423   3.959  1.00  0.00    -0.259 N 
HETATM    7  C   UNL     1      41.491 -13.546   3.615  1.00  0.00     0.261 A 
HETATM    8  O   UNL     1      40.372 -13.822   4.034  1.00  0.00    -0.270 OA
HETATM    9  H   UNL     1      44.272 -13.620   1.892  1.00  0.00     0.165 HD
ENDROOT
BRANCH   6  10
HETATM   10  C   UNL     1      41.771 -11.456   4.948  1.00  0.00     0.240 C 
BRANCH  10  11
HETATM   11  C   UNL     1      42.622 -11.580   6.209  1.00  0.00     0.240 C 
HETATM   12  N   UNL     1      42.957 -10.355   6.773  1.00  0.00    -0.325 N 
HETATM   13  H   UNL     1      42.523  -9.539   6.352  1.00  0.00     0.169 HD
HETATM   14  O   UNL     1      42.875 -12.685   6.682  1.00  0.00    -0.271 OA
BRANCH  12  15
HETATM   15  C   UNL     1      43.742 -10.140   7.939  1.00  0.00     0.047 A 
HETATM   16  C   UNL     1      43.141  -9.587   9.113  1.00  0.00     0.019 A 
HETATM   17  C   UNL     1      43.939  -9.374  10.264  1.00  0.00     0.069 A 
HETATM   18  C   UNL     1      41.772  -9.248   9.249  1.00  0.00     0.017 A 
HETATM   19  N   UNL     1      43.461  -8.879  11.419  1.00  0.00    -0.260 NA
HETATM   20  C   UNL     1      45.286  -9.691  10.225  1.00  0.00     0.032 A 
HETATM   21  C   UNL     1      42.151  -8.578  11.494  1.00  0.00     0.117 A 
HETATM   22  C   UNL     1      41.273  -8.744  10.447  1.00  0.00     0.020 A 
HETATM   23  C   UNL     1      45.878 -10.220   9.084  1.00  0.00     0.005 A 
HETATM   24  C   UNL     1      45.109 -10.443   7.948  1.00  0.00     0.030 A 
ENDBRANCH  12  15
ENDBRANCH  10  11
ENDBRANCH   6  10
BRANCH   2  25
HETATM   25  C   UNL     1      42.843 -15.673   3.201  1.00  0.00    -0.020 A 
HETATM   26  C   UNL     1      42.843 -16.859   2.433  1.00  0.00     0.022 A 
HETATM   27  C   UNL     1      43.267 -18.094   2.958  1.00  0.00    -0.025 A 
HETATM   28  C   UNL     1      43.721 -18.157   4.289  1.00  0.00    -0.026 A 
HETATM   29  C   UNL     1      43.240 -19.268   2.184  1.00  0.00     0.012 A 
HETATM   30  C   UNL     1      43.743 -16.983   5.055  1.00  0.00     0.013 A 
HETATM   31  C   UNL     1      44.136 -19.392   4.818  1.00  0.00     0.012 A 
HETATM   32  C   UNL     1      43.313 -15.763   4.521  1.00  0.00     0.011 A 
HETATM   33  C   UNL     1      44.102 -20.549   4.039  1.00  0.00     0.001 A 
HETATM   34  C   UNL     1      43.654 -20.487   2.723  1.00  0.00     0.001 A 
ENDBRANCH   2  25
TORSDOF 4
ENDMDL
MODEL 3
REMARK VINA RESULT:      -9.9      3.559      6.354
REMARK  4 active torsions:
REMARK  status: ('A' for Active; 'I' for Inactive)
REMARK    1  A    between atoms: C_2  and  C_3 
REMARK    2  A    between atoms: N_16  and  C_17 
REMARK    3  A    between atoms: C_17  and  C_18 
REMARK       I    between atoms: C_18  and  N_19 
REMARK    4  A    between atoms: N_19  and  C_20 
ROOT
HETATM    1  C   UNL     1      43.920 -14.328   6.766  1.00  0.00     0.054 C 
HETATM    2  C   UNL     1      42.770 -14.527   5.777  1.00  0.00     0.140 A 
HETATM    3  N   UNL     1      41.518 -14.559   6.509  1.00  0.00    -0.321 N 
HETATM    4  C   UNL     1      40.657 -13.556   6.136  1.00  0.00     0.326 A 
HETATM    5  O   UNL     1      39.511 -13.462   6.536  1.00  0.00    -0.247 OA
HETATM    6  N   UNL     1      41.289 -12.755   5.238  1.00  0.00    -0.259 N 
HETATM    7  C   UNL     1      42.555 -13.207   4.993  1.00  0.00     0.261 A 
HETATM    8  O   UNL     1      43.374 -12.628   4.287  1.00  0.00    -0.270 OA
HETATM    9  H   UNL     1      41.199 -15.329   7.083  1.00  0.00     0.165 HD
ENDROOT
BRANCH   6  10
HETATM   10  C   UNL     1      40.687 -11.595   4.617  1.00  0.00     0.240 C 
BRANCH  10  11
HETATM   11  C   UNL     1      41.354 -10.317   5.119  1.00  0.00     0.240 C 
HETATM   12  N   UNL     1      41.544 -10.296   6.495  1.00  0.00    -0.325 N 
HETATM   13  H   UNL     1      41.318 -11.155   6.988  1.00  0.00     0.169 HD
HETATM   14  O   UNL     1      41.745  -9.466   4.324  1.00  0.00    -0.271 OA
BRANCH  12  15
HETATM   15  C   UNL     1      42.127  -9.248   7.258  1.00  0.00     0.047 A 
HETATM   16  C   UNL     1      43.517  -9.298   7.597  1.00  0.00     0.019 A 
HETATM   17  C   UNL     1      44.080  -8.248   8.363  1.00  0.00     0.069 A 
HETATM   18  C   UNL     1      44.419 -10.316   7.200  1.00  0.00     0.017 A 
HETATM   19  N   UNL     1      45.378  -8.196   8.713  1.00  0.00    -0.260 NA
HETATM   20  C   UNL     1      43.274  -7.203   8.781  1.00  0.00     0.032 A 
HETATM   21  C   UNL     1      46.191  -9.188   8.304  1.00  0.00     0.117 A 
HETATM   22  C   UNL     1      45.764 -10.260   7.553  1.00  0.00     0.020 A 
HETATM   23  C   UNL     1      41.921  -7.154   8.464  1.00  0.00     0.005 A 
HETATM   24  C   UNL     1      41.352  -8.171   7.706  1.00  0.00     0.030 A 
ENDBRANCH  12  15
ENDBRANCH  10  11
ENDBRANCH   6  10
BRANCH   2  25
HETATM   25  C   UNL     1      42.875 -15.736   4.847  1.00  0.00    -0.020 A 
HETATM   26  C   UNL     1      43.350 -16.974   5.336  1.00  0.00     0.022 A 
HETATM   27  C   UNL     1      43.499 -18.102   4.508  1.00  0.00    -0.025 A 
HETATM   28  C   UNL     1      43.154 -18.007   3.146  1.00  0.00    -0.026 A 
HETATM   29  C   UNL     1      43.994 -19.319   5.008  1.00  0.00     0.012 A 
HETATM   30  C   UNL     1      42.664 -16.789   2.654  1.00  0.00     0.013 A 
HETATM   31  C   UNL     1      43.311 -19.129   2.314  1.00  0.00     0.012 A 
HETATM   32  C   UNL     1      42.526 -15.674   3.490  1.00  0.00     0.011 A 
HETATM   33  C   UNL     1      43.805 -20.331   2.825  1.00  0.00     0.001 A 
HETATM   34  C   UNL     1      44.146 -20.425   4.171  1.00  0.00     0.001 A 
ENDBRANCH   2  25
TORSDOF 4
ENDMDL
MODEL 4
REMARK VINA RESULT:      -9.9      1.468      2.677
REMARK  4 active torsions:
REMARK  status: ('A' for Active; 'I' for Inactive)
REMARK    1  A    between atoms: C_2  and  C_3 
REMARK    2  A    between atoms: N_16  and  C_17 
REMARK    3  A    between atoms: C_17  and  C_18 
REMARK       I    between atoms: C_18  and  N_19 
REMARK    4  A    between atoms: N_19  and  C_20 
ROOT
HETATM    1  C   UNL     1      40.451 -13.845   6.356  1.00  0.00     0.054 C 
HETATM    2  C   UNL     1      40.604 -13.758   4.836  1.00  0.00     0.140 A 
HETATM    3  N   UNL     1      39.312 -13.458   4.249  1.00  0.00    -0.321 N 
HETATM    4  C   UNL     1      39.306 -12.273   3.552  1.00  0.00     0.326 A 
HETATM    5  O   UNL     1      38.365 -11.883   2.885  1.00  0.00    -0.247 OA
HETATM    6  N   UNL     1      40.517 -11.674   3.707  1.00  0.00    -0.259 N 
HETATM    7  C   UNL     1      41.339 -12.440   4.485  1.00  0.00     0.261 A 
HETATM    8  O   UNL     1      42.459 -12.101   4.853  1.00  0.00    -0.270 OA
HETATM    9  H   UNL     1      38.544 -14.111   4.166  1.00  0.00     0.165 HD
ENDROOT
BRANCH   6  10
HETATM   10  C   UNL     1      40.882 -10.410   3.108  1.00  0.00     0.240 C 
BRANCH  10  11
HETATM   11  C   UNL     1      41.357 -10.618   1.673  1.00  0.00     0.240 C 
HETATM   12  N   UNL     1      40.328 -10.583   0.739  1.00  0.00    -0.325 N 
HETATM   13  H   UNL     1      39.413 -10.326   1.096  1.00  0.00     0.169 HD
HETATM   14  O   UNL     1      42.556 -10.710   1.422  1.00  0.00    -0.271 OA
BRANCH  12  15
HETATM   15  C   UNL     1      40.449 -10.751  -0.668  1.00  0.00     0.047 A 
HETATM   16  C   UNL     1      40.170 -12.024  -1.261  1.00  0.00     0.019 A 
HETATM   17  C   UNL     1      40.301 -12.176  -2.664  1.00  0.00     0.069 A 
HETATM   18  C   UNL     1      39.732 -13.174  -0.560  1.00  0.00     0.017 A 
HETATM   19  N   UNL     1      40.042 -13.324  -3.314  1.00  0.00    -0.260 NA
HETATM   20  C   UNL     1      40.710 -11.097  -3.429  1.00  0.00     0.032 A 
HETATM   21  C   UNL     1      39.624 -14.385  -2.599  1.00  0.00     0.117 A 
HETATM   22  C   UNL     1      39.455 -14.361  -1.232  1.00  0.00     0.020 A 
HETATM   23  C   UNL     1      40.992  -9.862  -2.857  1.00  0.00     0.005 A 
HETATM   24  C   UNL     1      40.861  -9.691  -1.484  1.00  0.00     0.030 A 
ENDBRANCH  12  15
ENDBRANCH  10  11
ENDBRANCH   6  10
BRANCH   2  25
HETATM   25  C   UNL     1      41.233 -14.969   4.147  1.00  0.00    -0.020 A 
HETATM   26  C   UNL     1      42.249 -15.711   4.791  1.00  0.00     0.022 A 
HETATM   27  C   UNL     1      42.883 -16.808   4.178  1.00  0.00    -0.025 A 
HETATM   28  C   UNL     1      42.489 -17.195   2.883  1.00  0.00    -0.026 A 
HETATM   29  C   UNL     1      43.905 -17.520   4.827  1.00  0.00     0.012 A 
HETATM   30  C   UNL     1      41.469 -16.478   2.241  1.00  0.00     0.013 A 
HETATM   31  C   UNL     1      43.126 -18.284   2.265  1.00  0.00     0.012 A 
HETATM   32  C   UNL     1      40.852 -15.385   2.862  1.00  0.00     0.011 A 
HETATM   33  C   UNL     1      44.142 -18.982   2.921  1.00  0.00     0.001 A 
HETATM   34  C   UNL     1      44.531 -18.599   4.201  1.00  0.00     0.001 A 
ENDBRANCH   2  25
TORSDOF 4
ENDMDL
MODEL 5
REMARK VINA RESULT:      -9.8      2.817      6.456
REMARK  4 active torsions:
REMARK  status: ('A' for Active; 'I' for Inactive)
REMARK    1  A    between atoms: C_2  and  C_3 
REMARK    2  A    between atoms: N_16  and  C_17 
REMARK    3  A    between atoms: C_17  and  C_18 
REMARK       I    between atoms: C_18  and  N_19 
REMARK    4  A    between atoms: N_19  and  C_20 
ROOT
HETATM    1  C   UNL     1      41.752 -14.950   0.685  1.00  0.00     0.054 C 
HETATM    2  C   UNL     1      42.114 -14.594   2.128  1.00  0.00     0.140 A 
HETATM    3  N   UNL     1      43.049 -13.485   2.120  1.00  0.00    -0.321 N 
HETATM    4  C   UNL     1      42.567 -12.376   2.771  1.00  0.00     0.326 A 
HETATM    5  O   UNL     1      43.225 -11.375   2.985  1.00  0.00    -0.247 OA
HETATM    6  N   UNL     1      41.286 -12.623   3.155  1.00  0.00    -0.259 N 
HETATM    7  C   UNL     1      40.903 -13.881   2.783  1.00  0.00     0.261 A 
HETATM    8  O   UNL     1      39.773 -14.334   2.930  1.00  0.00    -0.270 OA
HETATM    9  H   UNL     1      44.024 -13.548   1.857  1.00  0.00     0.165 HD
ENDROOT
BRANCH   6  10
HETATM   10  C   UNL     1      40.457 -11.683   3.876  1.00  0.00     0.240 C 
BRANCH  10  11
HETATM   11  C   UNL     1      40.891 -11.603   5.337  1.00  0.00     0.240 C 
HETATM   12  N   UNL     1      41.563 -10.427   5.650  1.00  0.00    -0.325 N 
HETATM   13  H   UNL     1      41.599  -9.726   4.916  1.00  0.00     0.169 HD
HETATM   14  O   UNL     1      40.567 -12.481   6.132  1.00  0.00    -0.271 OA
BRANCH  12  15
HETATM   15  C   UNL     1      42.097 -10.063   6.917  1.00  0.00     0.047 A 
HETATM   16  C   UNL     1      43.459 -10.368   7.232  1.00  0.00     0.019 A 
HETATM   17  C   UNL     1      43.973 -10.003   8.502  1.00  0.00     0.069 A 
HETATM   18  C   UNL     1      44.381 -10.993   6.357  1.00  0.00     0.017 A 
HETATM   19  N   UNL     1      45.243 -10.228   8.882  1.00  0.00    -0.260 NA
HETATM   20  C   UNL     1      43.145  -9.373   9.415  1.00  0.00     0.032 A 
HETATM   21  C   UNL     1      46.078 -10.822   8.008  1.00  0.00     0.117 A 
HETATM   22  C   UNL     1      45.699 -11.220   6.745  1.00  0.00     0.020 A 
HETATM   23  C   UNL     1      41.819  -9.082   9.117  1.00  0.00     0.005 A 
HETATM   24  C   UNL     1      41.299  -9.426   7.875  1.00  0.00     0.030 A 
ENDBRANCH  12  15
ENDBRANCH  10  11
ENDBRANCH   6  10
BRANCH   2  25
HETATM   25  C   UNL     1      42.647 -15.734   2.995  1.00  0.00    -0.020 A 
HETATM   26  C   UNL     1      42.869 -17.014   2.438  1.00  0.00     0.022 A 
HETATM   27  C   UNL     1      43.322 -18.101   3.207  1.00  0.00    -0.025 A 
HETATM   28  C   UNL     1      43.578 -17.915   4.579  1.00  0.00    -0.026 A 
HETATM   29  C   UNL     1      43.516 -19.372   2.639  1.00  0.00     0.012 A 
HETATM   30  C   UNL     1      43.380 -16.645   5.140  1.00  0.00     0.013 A 
HETATM   31  C   UNL     1      44.021 -19.002   5.352  1.00  0.00     0.012 A 
HETATM   32  C   UNL     1      42.923 -15.574   4.362  1.00  0.00     0.011 A 
HETATM   33  C   UNL     1      44.208 -20.258   4.774  1.00  0.00     0.001 A 
HETATM   34  C   UNL     1      43.956 -20.443   3.418  1.00  0.00     0.001 A 
ENDBRANCH   2  25
TORSDOF 4
ENDMDL
MODEL 6
REMARK VINA RESULT:      -9.5      1.339      2.260
REMARK  4 active torsions:
REMARK  status: ('A' for Active; 'I' for Inactive)
REMARK    1  A    between atoms: C_2  and  C_3 
REMARK    2  A    between atoms: N_16  and  C_17 
REMARK    3  A    between atoms: C_17  and  C_18 
REMARK       I    between atoms: C_18  and  N_19 
REMARK    4  A    between atoms: N_19  and  C_20 
ROOT
HETATM    1  C   UNL     1      43.374 -11.296   6.895  1.00  0.00     0.054 C 
HETATM    2  C   UNL     1      42.434 -12.009   5.921  1.00  0.00     0.140 A 
HETATM    3  N   UNL     1      41.088 -11.983   6.459  1.00  0.00    -0.321 N 
HETATM    4  C   UNL     1      40.201 -11.325   5.642  1.00  0.00     0.326 A 
HETATM    5  O   UNL     1      39.000 -11.281   5.840  1.00  0.00    -0.247 OA
HETATM    6  N   UNL     1      40.887 -10.799   4.593  1.00  0.00    -0.259 N 
HETATM    7  C   UNL     1      42.217 -11.100   4.685  1.00  0.00     0.261 A 
HETATM    8  O   UNL     1      43.077 -10.683   3.917  1.00  0.00    -0.270 OA
HETATM    9  H   UNL     1      40.760 -12.543   7.235  1.00  0.00     0.165 HD
ENDROOT
BRANCH   6  10
HETATM   10  C   UNL     1      40.280 -10.042   3.520  1.00  0.00     0.240 C 
BRANCH  10  11
HETATM   11  C   UNL     1      39.701 -10.983   2.467  1.00  0.00     0.240 C 
HETATM   12  N   UNL     1      40.671 -11.637   1.718  1.00  0.00    -0.325 N 
HETATM   13  H   UNL     1      41.632 -11.499   2.016  1.00  0.00     0.169 HD
HETATM   14  O   UNL     1      38.489 -11.171   2.400  1.00  0.00    -0.271 OA
BRANCH  12  15
HETATM   15  C   UNL     1      40.450 -12.565   0.662  1.00  0.00     0.047 A 
HETATM   16  C   UNL     1      40.582 -12.142  -0.699  1.00  0.00     0.019 A 
HETATM   17  C   UNL     1      40.352 -13.078  -1.738  1.00  0.00     0.069 A 
HETATM   18  C   UNL     1      40.962 -10.844  -1.119  1.00  0.00     0.017 A 
HETATM   19  N   UNL     1      40.471 -12.781  -3.044  1.00  0.00    -0.260 NA
HETATM   20  C   UNL     1      39.990 -14.375  -1.418  1.00  0.00     0.032 A 
HETATM   21  C   UNL     1      40.840 -11.532  -3.387  1.00  0.00     0.117 A 
HETATM   22  C   UNL     1      41.094 -10.537  -2.470  1.00  0.00     0.020 A 
HETATM   23  C   UNL     1      39.851 -14.788  -0.098  1.00  0.00     0.005 A 
HETATM   24  C   UNL     1      40.080 -13.887   0.935  1.00  0.00     0.030 A 
ENDBRANCH  12  15
ENDBRANCH  10  11
ENDBRANCH   6  10
BRANCH   2  25
HETATM   25  C   UNL     1      42.821 -13.435   5.525  1.00  0.00    -0.020 A 
HETATM   26  C   UNL     1      42.660 -13.876   4.193  1.00  0.00     0.022 A 
HETATM   27  C   UNL     1      42.966 -15.191   3.793  1.00  0.00    -0.025 A 
HETATM   28  C   UNL     1      43.464 -16.101   4.746  1.00  0.00    -0.026 A 
HETATM   29  C   UNL     1      42.778 -15.617   2.468  1.00  0.00     0.012 A 
HETATM   30  C   UNL     1      43.647 -15.668   6.067  1.00  0.00     0.013 A 
HETATM   31  C   UNL     1      43.762 -17.417   4.352  1.00  0.00     0.012 A 
HETATM   32  C   UNL     1      43.332 -14.359   6.450  1.00  0.00     0.011 A 
HETATM   33  C   UNL     1      43.569 -17.827   3.032  1.00  0.00     0.001 A 
HETATM   34  C   UNL     1      43.077 -16.927   2.090  1.00  0.00     0.001 A 
ENDBRANCH   2  25
TORSDOF 4
ENDMDL
MODEL 7
REMARK VINA RESULT:      -9.1     15.220     17.226
REMARK  4 active torsions:
REMARK  status: ('A' for Active; 'I' for Inactive)
REMARK    1  A    between atoms: C_2  and  C_3 
REMARK    2  A    between atoms: N_16  and  C_17 
REMARK    3  A    between atoms: C_17  and  C_18 
REMARK       I    between atoms: C_18  and  N_19 
REMARK    4  A    between atoms: N_19  and  C_20 
ROOT
HETATM    1  C   UNL     1      48.628 -29.659   3.753  1.00  0.00     0.054 C 
HETATM    2  C   UNL     1      47.830 -30.047   2.507  1.00  0.00     0.140 A 
HETATM    3  N   UNL     1      47.125 -31.288   2.764  1.00  0.00    -0.321 N 
HETATM    4  C   UNL     1      45.761 -31.156   2.665  1.00  0.00     0.326 A 
HETATM    5  O   UNL     1      44.983 -32.090   2.729  1.00  0.00    -0.247 OA
HETATM    6  N   UNL     1      45.468 -29.847   2.445  1.00  0.00    -0.259 N 
HETATM    7  C   UNL     1      46.610 -29.099   2.383  1.00  0.00     0.261 A 
HETATM    8  O   UNL     1      46.634 -27.878   2.275  1.00  0.00    -0.270 OA
HETATM    9  H   UNL     1      47.555 -32.202   2.813  1.00  0.00     0.165 HD
ENDROOT
BRANCH   6  10
HETATM   10  C   UNL     1      44.128 -29.330   2.278  1.00  0.00     0.240 C 
BRANCH  10  11
HETATM   11  C   UNL     1      43.763 -29.263   0.798  1.00  0.00     0.240 C 
HETATM   12  N   UNL     1      44.865 -29.325  -0.046  1.00  0.00    -0.325 N 
HETATM   13  H   UNL     1      45.759 -29.507   0.402  1.00  0.00     0.169 HD
HETATM   14  O   UNL     1      42.586 -29.251   0.447  1.00  0.00    -0.271 OA
BRANCH  12  15
HETATM   15  C   UNL     1      44.853 -29.277  -1.468  1.00  0.00     0.047 A 
HETATM   16  C   UNL     1      44.594 -30.467  -2.220  1.00  0.00     0.019 A 
HETATM   17  C   UNL     1      44.592 -30.403  -3.636  1.00  0.00     0.069 A 
HETATM   18  C   UNL     1      44.299 -31.736  -1.665  1.00  0.00     0.017 A 
HETATM   19  N   UNL     1      44.339 -31.460  -4.427  1.00  0.00    -0.260 NA
HETATM   20  C   UNL     1      44.855 -29.197  -4.262  1.00  0.00     0.032 A 
HETATM   21  C   UNL     1      44.060 -32.643  -3.846  1.00  0.00     0.117 A 
HETATM   22  C   UNL     1      44.028 -32.831  -2.483  1.00  0.00     0.020 A 
HETATM   23  C   UNL     1      45.117 -28.040  -3.536  1.00  0.00     0.005 A 
HETATM   24  C   UNL     1      45.116 -28.081  -2.147  1.00  0.00     0.030 A 
ENDBRANCH  12  15
ENDBRANCH  10  11
ENDBRANCH   6  10
BRANCH   2  25
HETATM   25  C   UNL     1      48.618 -30.143   1.200  1.00  0.00    -0.020 A 
HETATM   26  C   UNL     1      49.755 -30.978   1.110  1.00  0.00     0.022 A 
HETATM   27  C   UNL     1      50.532 -31.067  -0.060  1.00  0.00    -0.025 A 
HETATM   28  C   UNL     1      50.163 -30.312  -1.190  1.00  0.00    -0.026 A 
HETATM   29  C   UNL     1      51.672 -31.887  -0.123  1.00  0.00     0.012 A 
HETATM   30  C   UNL     1      49.026 -29.495  -1.119  1.00  0.00     0.013 A 
HETATM   31  C   UNL     1      50.942 -30.393  -2.357  1.00  0.00     0.012 A 
HETATM   32  C   UNL     1      48.266 -29.413   0.054  1.00  0.00     0.011 A 
HETATM   33  C   UNL     1      52.073 -31.210  -2.405  1.00  0.00     0.001 A 
HETATM   34  C   UNL     1      52.437 -31.956  -1.288  1.00  0.00     0.001 A 
ENDBRANCH   2  25
TORSDOF 4
ENDMDL
MODEL 8
REMARK VINA RESULT:      -9.1      2.052      8.238
REMARK  4 active torsions:
REMARK  status: ('A' for Active; 'I' for Inactive)
REMARK    1  A    between atoms: C_2  and  C_3 
REMARK    2  A    between atoms: N_16  and  C_17 
REMARK    3  A    between atoms: C_17  and  C_18 
REMARK       I    between atoms: C_18  and  N_19 
REMARK    4  A    between atoms: N_19  and  C_20 
ROOT
HETATM    1  C   UNL     1      39.919 -14.694   0.070  1.00  0.00     0.054 C 
HETATM    2  C   UNL     1      40.413 -13.546   0.953  1.00  0.00     0.140 A 
HETATM    3  N   UNL     1      39.443 -13.308   2.005  1.00  0.00    -0.321 N 
HETATM    4  C   UNL     1      39.966 -13.490   3.263  1.00  0.00     0.326 A 
HETATM    5  O   UNL     1      39.366 -13.234   4.290  1.00  0.00    -0.247 OA
HETATM    6  N   UNL     1      41.242 -13.942   3.139  1.00  0.00    -0.259 N 
HETATM    7  C   UNL     1      41.589 -14.058   1.822  1.00  0.00     0.261 A 
HETATM    8  O   UNL     1      42.653 -14.520   1.423  1.00  0.00    -0.270 OA
HETATM    9  H   UNL     1      38.542 -12.866   1.878  1.00  0.00     0.165 HD
ENDROOT
BRANCH   6  10
HETATM   10  C   UNL     1      42.112 -14.237   4.255  1.00  0.00     0.240 C 
BRANCH  10  11
HETATM   11  C   UNL     1      41.985 -15.704   4.656  1.00  0.00     0.240 C 
HETATM   12  N   UNL     1      43.201 -16.377   4.686  1.00  0.00    -0.325 N 
HETATM   13  H   UNL     1      44.028 -15.805   4.542  1.00  0.00     0.169 HD
HETATM   14  O   UNL     1      40.898 -16.164   4.997  1.00  0.00    -0.271 OA
BRANCH  12  15
HETATM   15  C   UNL     1      43.410 -17.745   5.011  1.00  0.00     0.047 A 
HETATM   16  C   UNL     1      43.534 -18.717   3.967  1.00  0.00     0.019 A 
HETATM   17  C   UNL     1      43.735 -20.077   4.309  1.00  0.00     0.069 A 
HETATM   18  C   UNL     1      43.504 -18.434   2.580  1.00  0.00     0.017 A 
HETATM   19  N   UNL     1      43.884 -21.057   3.401  1.00  0.00    -0.260 NA
HETATM   20  C   UNL     1      43.793 -20.441   5.644  1.00  0.00     0.032 A 
HETATM   21  C   UNL     1      43.852 -20.731   2.095  1.00  0.00     0.117 A 
HETATM   22  C   UNL     1      43.666 -19.446   1.637  1.00  0.00     0.020 A 
HETATM   23  C   UNL     1      43.663 -19.503   6.662  1.00  0.00     0.005 A 
HETATM   24  C   UNL     1      43.473 -18.163   6.346  1.00  0.00     0.030 A 
ENDBRANCH  12  15
ENDBRANCH  10  11
ENDBRANCH   6  10
BRANCH   2  25
HETATM   25  C   UNL     1      40.753 -12.238   0.238  1.00  0.00    -0.020 A 
HETATM   26  C   UNL     1      40.499 -12.092  -1.145  1.00  0.00     0.022 A 
HETATM   27  C   UNL     1      40.832 -10.920  -1.850  1.00  0.00    -0.025 A 
HETATM   28  C   UNL     1      41.427  -9.847  -1.160  1.00  0.00    -0.026 A 
HETATM   29  C   UNL     1      40.591 -10.802  -3.230  1.00  0.00     0.012 A 
HETATM   30  C   UNL     1      41.666  -9.973   0.215  1.00  0.00     0.013 A 
HETATM   31  C   UNL     1      41.769  -8.679  -1.865  1.00  0.00     0.012 A 
HETATM   32  C   UNL     1      41.334 -11.147   0.902  1.00  0.00     0.011 A 
HETATM   33  C   UNL     1      41.525  -8.576  -3.236  1.00  0.00     0.001 A 
HETATM   34  C   UNL     1      40.937  -9.637  -3.917  1.00  0.00     0.001 A 
ENDBRANCH   2  25
TORSDOF 4
ENDMDL
MODEL 9
REMARK VINA RESULT:      -9.0      2.367      8.826
REMARK  4 active torsions:
REMARK  status: ('A' for Active; 'I' for Inactive)
REMARK    1  A    between atoms: C_2  and  C_3 
REMARK    2  A    between atoms: N_16  and  C_17 
REMARK    3  A    between atoms: C_17  and  C_18 
REMARK       I    between atoms: C_18  and  N_19 
REMARK    4  A    between atoms: N_19  and  C_20 
ROOT
HETATM    1  C   UNL     1      38.422 -11.169   0.928  1.00  0.00     0.054 C 
HETATM    2  C   UNL     1      39.796 -11.493   0.337  1.00  0.00     0.140 A 
HETATM    3  N   UNL     1      40.774 -11.526   1.407  1.00  0.00    -0.321 N 
HETATM    4  C   UNL     1      41.385 -12.751   1.532  1.00  0.00     0.326 A 
HETATM    5  O   UNL     1      42.315 -12.971   2.285  1.00  0.00    -0.247 OA
HETATM    6  N   UNL     1      40.806 -13.614   0.656  1.00  0.00    -0.259 N 
HETATM    7  C   UNL     1      39.825 -12.989  -0.062  1.00  0.00     0.261 A 
HETATM    8  O   UNL     1      39.087 -13.553  -0.864  1.00  0.00    -0.270 OA
HETATM    9  H   UNL     1      41.137 -10.715   1.890  1.00  0.00     0.165 HD
ENDROOT
BRANCH   6  10
HETATM   10  C   UNL     1      41.196 -14.998   0.499  1.00  0.00     0.240 C 
BRANCH  10  11
HETATM   11  C   UNL     1      41.361 -15.663   1.863  1.00  0.00     0.240 C 
HETATM   12  N   UNL     1      42.669 -16.043   2.137  1.00  0.00    -0.325 N 
HETATM   13  H   UNL     1      43.368 -15.751   1.460  1.00  0.00     0.169 HD
HETATM   14  O   UNL     1      40.410 -15.742   2.635  1.00  0.00    -0.271 OA
BRANCH  12  15
HETATM   15  C   UNL     1      43.139 -16.690   3.313  1.00  0.00     0.047 A 
HETATM   16  C   UNL     1      43.368 -18.102   3.309  1.00  0.00     0.019 A 
HETATM   17  C   UNL     1      43.831 -18.732   4.491  1.00  0.00     0.069 A 
HETATM   18  C   UNL     1      43.200 -18.954   2.189  1.00  0.00     0.017 A 
HETATM   19  N   UNL     1      44.094 -20.047   4.579  1.00  0.00    -0.260 NA
HETATM   20  C   UNL     1      44.037 -17.971   5.629  1.00  0.00     0.032 A 
HETATM   21  C   UNL     1      43.921 -20.810   3.482  1.00  0.00     0.117 A 
HETATM   22  C   UNL     1      43.480 -20.316   2.275  1.00  0.00     0.020 A 
HETATM   23  C   UNL     1      43.807 -16.600   5.642  1.00  0.00     0.005 A 
HETATM   24  C   UNL     1      43.361 -15.964   4.490  1.00  0.00     0.030 A 
ENDBRANCH  12  15
ENDBRANCH  10  11
ENDBRANCH   6  10
BRANCH   2  25
HETATM   25  C   UNL     1      40.277 -10.586  -0.796  1.00  0.00    -0.020 A 
HETATM   26  C   UNL     1      41.412  -9.763  -0.620  1.00  0.00     0.022 A 
HETATM   27  C   UNL     1      41.867  -8.885  -1.622  1.00  0.00    -0.025 A 
HETATM   28  C   UNL     1      41.180  -8.827  -2.850  1.00  0.00    -0.026 A 
HETATM   29  C   UNL     1      42.986  -8.058  -1.420  1.00  0.00     0.012 A 
HETATM   30  C   UNL     1      40.063  -9.652  -3.043  1.00  0.00     0.013 A 
HETATM   31  C   UNL     1      41.626  -7.944  -3.848  1.00  0.00     0.012 A 
HETATM   32  C   UNL     1      39.620 -10.517  -2.034  1.00  0.00     0.011 A 
HETATM   33  C   UNL     1      42.738  -7.128  -3.634  1.00  0.00     0.001 A 
HETATM   34  C   UNL     1      43.417  -7.185  -2.420  1.00  0.00     0.001 A 
ENDBRANCH   2  25
TORSDOF 4
ENDMDL
MODEL 10
REMARK VINA RESULT:      -8.9      2.102      2.738
REMARK  4 active torsions:
REMARK  status: ('A' for Active; 'I' for Inactive)
REMARK    1  A    between atoms: C_2  and  C_3 
REMARK    2  A    between atoms: N_16  and  C_17 
REMARK    3  A    between atoms: C_17  and  C_18 
REMARK       I    between atoms: C_18  and  N_19 
REMARK    4  A    between atoms: N_19  and  C_20 
ROOT
HETATM    1  C   UNL     1      42.790 -12.016   6.311  1.00  0.00     0.054 C 
HETATM    2  C   UNL     1      42.305 -12.860   5.131  1.00  0.00     0.140 A 
HETATM    3  N   UNL     1      40.854 -12.881   5.131  1.00  0.00    -0.321 N 
HETATM    4  C   UNL     1      40.314 -12.346   3.987  1.00  0.00     0.326 A 
HETATM    5  O   UNL     1      39.126 -12.366   3.724  1.00  0.00    -0.247 OA
HETATM    6  N   UNL     1      41.324 -11.856   3.220  1.00  0.00    -0.259 N 
HETATM    7  C   UNL     1      42.533 -12.062   3.822  1.00  0.00     0.261 A 
HETATM    8  O   UNL     1      43.603 -11.648   3.389  1.00  0.00    -0.270 OA
HETATM    9  H   UNL     1      40.280 -13.402   5.781  1.00  0.00     0.165 HD
ENDROOT
BRANCH   6  10
HETATM   10  C   UNL     1      41.135 -11.224   1.933  1.00  0.00     0.240 C 
BRANCH  10  11
HETATM   11  C   UNL     1      40.776 -12.265   0.876  1.00  0.00     0.240 C 
HETATM   12  N   UNL     1      39.645 -11.935   0.138  1.00  0.00    -0.325 N 
HETATM   13  H   UNL     1      39.255 -11.014   0.310  1.00  0.00     0.169 HD
HETATM   14  O   UNL     1      41.507 -13.232   0.682  1.00  0.00    -0.271 OA
BRANCH  12  15
HETATM   15  C   UNL     1      39.057 -12.701  -0.906  1.00  0.00     0.047 A 
HETATM   16  C   UNL     1      37.935 -12.182  -1.628  1.00  0.00     0.019 A 
HETATM   17  C   UNL     1      37.357 -12.961  -2.661  1.00  0.00     0.069 A 
HETATM   18  C   UNL     1      37.348 -10.910  -1.421  1.00  0.00     0.017 A 
HETATM   19  N   UNL     1      36.317 -12.551  -3.407  1.00  0.00    -0.260 NA
HETATM   20  C   UNL     1      37.879 -14.212  -2.942  1.00  0.00     0.032 A 
HETATM   21  C   UNL     1      35.800 -11.330  -3.171  1.00  0.00     0.117 A 
HETATM   22  C   UNL     1      36.276 -10.479  -2.198  1.00  0.00     0.020 A 
HETATM   23  C   UNL     1      38.962 -14.726  -2.237  1.00  0.00     0.005 A 
HETATM   24  C   UNL     1      39.547 -13.973  -1.226  1.00  0.00     0.030 A 
ENDBRANCH  12  15
ENDBRANCH  10  11
ENDBRANCH   6  10
BRANCH   2  25
HETATM   25  C   UNL     1      42.858 -14.282   5.042  1.00  0.00    -0.020 A 
HETATM   26  C   UNL     1      42.697 -15.040   3.860  1.00  0.00     0.022 A 
HETATM   27  C   UNL     1      43.155 -16.366   3.748  1.00  0.00    -0.025 A 
HETATM   28  C   UNL     1      43.811 -16.962   4.842  1.00  0.00    -0.026 A 
HETATM   29  C   UNL     1      42.967 -17.110   2.571  1.00  0.00     0.012 A 
HETATM   30  C   UNL     1      43.994 -16.214   6.013  1.00  0.00     0.013 A 
HETATM   31  C   UNL     1      44.262 -18.289   4.736  1.00  0.00     0.012 A 
HETATM   32  C   UNL     1      43.527 -14.897   6.111  1.00  0.00     0.011 A 
HETATM   33  C   UNL     1      44.066 -19.017   3.561  1.00  0.00     0.001 A 
HETATM   34  C   UNL     1      43.418 -18.427   2.479  1.00  0.00     0.001 A 
ENDBRANCH   2  25
TORSDOF 4
ENDMDL
