MODEL 1
REMARK VINA RESULT:      -8.7      0.000      0.000
REMARK  6 active torsions:
REMARK  status: ('A' for Active; 'I' for Inactive)
REMARK    1  A    between atoms: C_8  and  N_9 
REMARK       I    between atoms: N_9  and  C_10 
REMARK       I    between atoms: C_10  and  N_11 
REMARK    2  A    between atoms: N_11  and  C_12 
REMARK    3  A    between atoms: C_15  and  O_16 
REMARK    4  A    between atoms: O_16  and  C_17 
REMARK    5  A    between atoms: C_17  and  C_18 
REMARK    6  A    between atoms: C_18  and  C_19 
ROOT
HETATM    1  C   UNL     1      40.718 -14.957   3.309  1.00  0.00     0.054 A 
HETATM    2  C   UNL     1      41.883 -14.315   3.719  1.00  0.00     0.149 A 
HETATM    3  N   UNL     1      42.609 -14.677   4.805  1.00  0.00    -0.235 NA
HETATM    4  C   UNL     1      42.161 -15.728   5.517  1.00  0.00     0.164 A 
HETATM    5  C   UNL     1      41.039 -16.463   5.171  1.00  0.00     0.060 A 
HETATM    6  C   UNL     1      40.304 -16.062   4.055  1.00  0.00     0.035 A 
ENDROOT
BRANCH   1   7
HETATM    7  N   UNL     1      39.901 -14.526   2.244  1.00  0.00    -0.307 N 
HETATM    8  C   UNL     1      40.279 -14.423   0.914  1.00  0.00     0.325 C 
HETATM    9  N   UNL     1      39.374 -13.646   0.217  1.00  0.00    -0.305 N 
HETATM   10  O   UNL     1      41.295 -14.918   0.447  1.00  0.00    -0.247 OA
HETATM   11  H   UNL     1      38.846 -12.987   0.768  1.00  0.00     0.171 HD
HETATM   12  H   UNL     1      38.920 -14.393   2.440  1.00  0.00     0.170 HD
BRANCH   9  13
HETATM   13  C   UNL     1      39.415 -13.389  -1.144  1.00  0.00     0.086 A 
HETATM   14  C   UNL     1      39.731 -12.141  -1.647  1.00  0.00     0.052 A 
HETATM   15  C   UNL     1      40.103 -10.863  -0.996  1.00  0.00     0.072 C 
HETATM   16  N   UNL     1      39.686 -12.265  -3.006  1.00  0.00    -0.280 N 
HETATM   17  H   UNL     1      39.882 -11.560  -3.709  1.00  0.00     0.189 HD
HETATM   18  N   UNL     1      39.330 -13.483  -3.426  1.00  0.00    -0.177 NA
HETATM   19  C   UNL     1      39.159 -14.187  -2.296  1.00  0.00     0.079 A 
HETATM   20  C   UNL     1      38.707 -15.597  -2.408  1.00  0.00     0.075 C 
ENDBRANCH   9  13
ENDBRANCH   1   7
BRANCH   4  21
HETATM   21  O   UNL     1      42.827 -16.104   6.667  1.00  0.00    -0.334 OA
BRANCH  21  22
HETATM   22  C   UNL     1      43.334 -17.442   6.569  1.00  0.00     0.182 C 
BRANCH  22  23
HETATM   23  C   UNL     1      44.376 -17.497   5.453  1.00  0.00     0.065 C 
BRANCH  23  24
HETATM   24  C   UNL     1      44.018 -18.541   4.425  1.00  0.00    -0.056 A 
HETATM   25  C   UNL     1      44.191 -19.902   4.710  1.00  0.00     0.007 A 
HETATM   26  C   UNL     1      43.924 -20.868   3.740  1.00  0.00     0.001 A 
HETATM   27  C   UNL     1      43.483 -20.482   2.476  1.00  0.00     0.000 A 
HETATM   28  C   UNL     1      43.308 -19.131   2.181  1.00  0.00     0.001 A 
HETATM   29  C   UNL     1      43.574 -18.163   3.151  1.00  0.00     0.007 A 
ENDBRANCH  23  24
ENDBRANCH  22  23
ENDBRANCH  21  22
ENDBRANCH   4  21
TORSDOF 6
ENDMDL
MODEL 2
REMARK VINA RESULT:      -8.5      1.204      2.226
REMARK  6 active torsions:
REMARK  status: ('A' for Active; 'I' for Inactive)
REMARK    1  A    between atoms: C_8  and  N_9 
REMARK       I    between atoms: N_9  and  C_10 
REMARK       I    between atoms: C_10  and  N_11 
REMARK    2  A    between atoms: N_11  and  C_12 
REMARK    3  A    between atoms: C_15  and  O_16 
REMARK    4  A    between atoms: O_16  and  C_17 
REMARK    5  A    between atoms: C_17  and  C_18 
REMARK    6  A    between atoms: C_18  and  C_19 
ROOT
HETATM    1  C   UNL     1      41.990 -14.838   2.013  1.00  0.00     0.054 A 
HETATM    2  C   UNL     1      42.971 -14.295   2.837  1.00  0.00     0.149 A 
HETATM    3  N   UNL     1      43.109 -14.591   4.152  1.00  0.00    -0.235 NA
HETATM    4  C   UNL     1      42.236 -15.473   4.675  1.00  0.00     0.164 A 
HETATM    5  C   UNL     1      41.252 -16.105   3.934  1.00  0.00     0.060 A 
HETATM    6  C   UNL     1      41.124 -15.773   2.585  1.00  0.00     0.035 A 
ENDROOT
BRANCH   1   7
HETATM    7  N   UNL     1      41.773 -14.459   0.672  1.00  0.00    -0.307 N 
HETATM    8  C   UNL     1      40.784 -13.601   0.215  1.00  0.00     0.325 C 
HETATM    9  N   UNL     1      40.632 -13.730  -1.151  1.00  0.00    -0.305 N 
HETATM   10  O   UNL     1      40.118 -12.873   0.937  1.00  0.00    -0.247 OA
HETATM   11  H   UNL     1      40.922 -14.612  -1.544  1.00  0.00     0.171 HD
HETATM   12  H   UNL     1      42.468 -14.738  -0.004  1.00  0.00     0.170 HD
BRANCH   9  13
HETATM   13  C   UNL     1      39.773 -12.979  -1.939  1.00  0.00     0.086 A 
HETATM   14  C   UNL     1      38.848 -13.566  -2.783  1.00  0.00     0.052 A 
HETATM   15  C   UNL     1      38.501 -14.978  -3.062  1.00  0.00     0.072 C 
HETATM   16  N   UNL     1      38.183 -12.533  -3.379  1.00  0.00    -0.280 N 
HETATM   17  H   UNL     1      37.418 -12.579  -4.045  1.00  0.00     0.189 HD
HETATM   18  N   UNL     1      38.625 -11.325  -3.019  1.00  0.00    -0.177 NA
HETATM   19  C   UNL     1      39.603 -11.578  -2.135  1.00  0.00     0.079 A 
HETATM   20  C   UNL     1      40.350 -10.429  -1.564  1.00  0.00     0.075 C 
ENDBRANCH   9  13
ENDBRANCH   1   7
BRANCH   4  21
HETATM   21  O   UNL     1      42.292 -15.768   6.024  1.00  0.00    -0.334 OA
BRANCH  21  22
HETATM   22  C   UNL     1      42.517 -17.166   6.249  1.00  0.00     0.182 C 
BRANCH  22  23
HETATM   23  C   UNL     1      43.947 -17.511   5.839  1.00  0.00     0.065 C 
BRANCH  23  24
HETATM   24  C   UNL     1      43.971 -18.656   4.858  1.00  0.00    -0.056 A 
HETATM   25  C   UNL     1      43.881 -18.410   3.481  1.00  0.00     0.007 A 
HETATM   26  C   UNL     1      43.836 -19.469   2.573  1.00  0.00     0.001 A 
HETATM   27  C   UNL     1      43.879 -20.783   3.034  1.00  0.00     0.000 A 
HETATM   28  C   UNL     1      43.967 -21.040   4.401  1.00  0.00     0.001 A 
HETATM   29  C   UNL     1      44.013 -19.982   5.310  1.00  0.00     0.007 A 
ENDBRANCH  23  24
ENDBRANCH  22  23
ENDBRANCH  21  22
ENDBRANCH   4  21
TORSDOF 6
ENDMDL
MODEL 3
REMARK VINA RESULT:      -8.1      4.626      7.348
REMARK  6 active torsions:
REMARK  status: ('A' for Active; 'I' for Inactive)
REMARK    1  A    between atoms: C_8  and  N_9 
REMARK       I    between atoms: N_9  and  C_10 
REMARK       I    between atoms: C_10  and  N_11 
REMARK    2  A    between atoms: N_11  and  C_12 
REMARK    3  A    between atoms: C_15  and  O_16 
REMARK    4  A    between atoms: O_16  and  C_17 
REMARK    5  A    between atoms: C_17  and  C_18 
REMARK    6  A    between atoms: C_18  and  C_19 
ROOT
HETATM    1  C   UNL     1      41.673 -13.180   5.839  1.00  0.00     0.054 A 
HETATM    2  C   UNL     1      42.450 -14.318   6.033  1.00  0.00     0.149 A 
HETATM    3  N   UNL     1      42.358 -15.440   5.278  1.00  0.00    -0.235 NA
HETATM    4  C   UNL     1      41.454 -15.432   4.279  1.00  0.00     0.164 A 
HETATM    5  C   UNL     1      40.663 -14.337   3.974  1.00  0.00     0.060 A 
HETATM    6  C   UNL     1      40.770 -13.200   4.774  1.00  0.00     0.035 A 
ENDROOT
BRANCH   1   7
HETATM    7  N   UNL     1      41.688 -12.050   6.682  1.00  0.00    -0.307 N 
HETATM    8  C   UNL     1      42.640 -11.042   6.680  1.00  0.00     0.325 C 
HETATM    9  N   UNL     1      42.555 -10.299   7.841  1.00  0.00    -0.305 N 
HETATM   10  O   UNL     1      43.461 -10.873   5.789  1.00  0.00    -0.247 OA
HETATM   11  H   UNL     1      42.149 -10.771   8.634  1.00  0.00     0.171 HD
HETATM   12  H   UNL     1      40.874 -11.893   7.257  1.00  0.00     0.170 HD
BRANCH   9  13
HETATM   13  C   UNL     1      43.317  -9.180   8.138  1.00  0.00     0.086 A 
HETATM   14  C   UNL     1      42.755  -7.926   8.287  1.00  0.00     0.052 A 
HETATM   15  C   UNL     1      41.358  -7.440   8.216  1.00  0.00     0.072 C 
HETATM   16  N   UNL     1      43.792  -7.088   8.583  1.00  0.00    -0.280 N 
HETATM   17  H   UNL     1      43.758  -6.093   8.780  1.00  0.00     0.189 HD
HETATM   18  N   UNL     1      44.985  -7.689   8.602  1.00  0.00    -0.177 NA
HETATM   19  C   UNL     1      44.714  -8.975   8.331  1.00  0.00     0.079 A 
HETATM   20  C   UNL     1      45.850  -9.926   8.229  1.00  0.00     0.075 C 
ENDBRANCH   9  13
ENDBRANCH   1   7
BRANCH   4  21
HETATM   21  O   UNL     1      41.275 -16.568   3.515  1.00  0.00    -0.334 OA
BRANCH  21  22
HETATM   22  C   UNL     1      41.812 -16.407   2.195  1.00  0.00     0.182 C 
BRANCH  22  23
HETATM   23  C   UNL     1      43.292 -16.787   2.212  1.00  0.00     0.065 C 
BRANCH  23  24
HETATM   24  C   UNL     1      43.493 -18.162   2.797  1.00  0.00    -0.056 A 
HETATM   25  C   UNL     1      44.049 -18.312   4.075  1.00  0.00     0.007 A 
HETATM   26  C   UNL     1      44.298 -19.583   4.594  1.00  0.00     0.001 A 
HETATM   27  C   UNL     1      43.995 -20.715   3.840  1.00  0.00     0.000 A 
HETATM   28  C   UNL     1      43.444 -20.577   2.567  1.00  0.00     0.001 A 
HETATM   29  C   UNL     1      43.193 -19.307   2.047  1.00  0.00     0.007 A 
ENDBRANCH  23  24
ENDBRANCH  22  23
ENDBRANCH  21  22
ENDBRANCH   4  21
TORSDOF 6
ENDMDL
MODEL 4
REMARK VINA RESULT:      -7.9      4.582      7.978
REMARK  6 active torsions:
REMARK  status: ('A' for Active; 'I' for Inactive)
REMARK    1  A    between atoms: C_8  and  N_9 
REMARK       I    between atoms: N_9  and  C_10 
REMARK       I    between atoms: C_10  and  N_11 
REMARK    2  A    between atoms: N_11  and  C_12 
REMARK    3  A    between atoms: C_15  and  O_16 
REMARK    4  A    between atoms: O_16  and  C_17 
REMARK    5  A    between atoms: C_17  and  C_18 
REMARK    6  A    between atoms: C_18  and  C_19 
ROOT
HETATM    1  C   UNL     1      42.683 -12.182   4.711  1.00  0.00     0.054 A 
HETATM    2  C   UNL     1      41.720 -13.146   4.994  1.00  0.00     0.149 A 
HETATM    3  N   UNL     1      41.354 -14.131   4.137  1.00  0.00    -0.235 NA
HETATM    4  C   UNL     1      41.977 -14.164   2.943  1.00  0.00     0.164 A 
HETATM    5  C   UNL     1      42.979 -13.281   2.579  1.00  0.00     0.060 A 
HETATM    6  C   UNL     1      43.328 -12.270   3.475  1.00  0.00     0.035 A 
ENDROOT
BRANCH   1   7
HETATM    7  N   UNL     1      42.996 -11.095   5.552  1.00  0.00    -0.307 N 
HETATM    8  C   UNL     1      43.607 -11.173   6.795  1.00  0.00     0.325 C 
HETATM    9  N   UNL     1      43.440  -9.989   7.486  1.00  0.00    -0.305 N 
HETATM   10  O   UNL     1      44.172 -12.169   7.222  1.00  0.00    -0.247 OA
HETATM   11  H   UNL     1      42.644  -9.432   7.216  1.00  0.00     0.171 HD
HETATM   12  H   UNL     1      42.877 -10.168   5.171  1.00  0.00     0.170 HD
BRANCH   9  13
HETATM   13  C   UNL     1      43.974  -9.702   8.733  1.00  0.00     0.086 A 
HETATM   14  C   UNL     1      45.328  -9.506   8.925  1.00  0.00     0.052 A 
HETATM   15  C   UNL     1      46.483  -9.508   7.997  1.00  0.00     0.072 C 
HETATM   16  N   UNL     1      45.479  -9.238  10.256  1.00  0.00    -0.280 N 
HETATM   17  H   UNL     1      46.332  -9.020  10.760  1.00  0.00     0.189 HD
HETATM   18  N   UNL     1      44.337  -9.281  10.949  1.00  0.00    -0.177 NA
HETATM   19  C   UNL     1      43.401  -9.565  10.030  1.00  0.00     0.079 A 
HETATM   20  C   UNL     1      41.997  -9.733  10.485  1.00  0.00     0.075 C 
ENDBRANCH   9  13
ENDBRANCH   1   7
BRANCH   4  21
HETATM   21  O   UNL     1      41.602 -15.109   2.007  1.00  0.00    -0.334 OA
BRANCH  21  22
HETATM   22  C   UNL     1      41.744 -16.442   2.518  1.00  0.00     0.182 C 
BRANCH  22  23
HETATM   23  C   UNL     1      43.170 -16.923   2.256  1.00  0.00     0.065 C 
BRANCH  23  24
HETATM   24  C   UNL     1      43.428 -18.249   2.928  1.00  0.00    -0.056 A 
HETATM   25  C   UNL     1      43.855 -18.294   4.262  1.00  0.00     0.007 A 
HETATM   26  C   UNL     1      44.157 -19.514   4.867  1.00  0.00     0.001 A 
HETATM   27  C   UNL     1      44.039 -20.699   4.144  1.00  0.00     0.000 A 
HETATM   28  C   UNL     1      43.617 -20.666   2.816  1.00  0.00     0.001 A 
HETATM   29  C   UNL     1      43.312 -19.446   2.209  1.00  0.00     0.007 A 
ENDBRANCH  23  24
ENDBRANCH  22  23
ENDBRANCH  21  22
ENDBRANCH   4  21
TORSDOF 6
ENDMDL
MODEL 5
REMARK VINA RESULT:      -7.5      7.057      9.540
REMARK  6 active torsions:
REMARK  status: ('A' for Active; 'I' for Inactive)
REMARK    1  A    between atoms: C_8  and  N_9 
REMARK       I    between atoms: N_9  and  C_10 
REMARK       I    between atoms: C_10  and  N_11 
REMARK    2  A    between atoms: N_11  and  C_12 
REMARK    3  A    between atoms: C_15  and  O_16 
REMARK    4  A    between atoms: O_16  and  C_17 
REMARK    5  A    between atoms: C_17  and  C_18 
REMARK    6  A    between atoms: C_18  and  C_19 
ROOT
HETATM    1  C   UNL     1      43.097 -11.125   6.665  1.00  0.00     0.054 A 
HETATM    2  C   UNL     1      44.074 -11.767   7.419  1.00  0.00     0.149 A 
HETATM    3  N   UNL     1      44.590 -11.276   8.573  1.00  0.00    -0.235 NA
HETATM    4  C   UNL     1      44.111 -10.092   9.001  1.00  0.00     0.164 A 
HETATM    5  C   UNL     1      43.109  -9.394   8.351  1.00  0.00     0.060 A 
HETATM    6  C   UNL     1      42.603  -9.916   7.160  1.00  0.00     0.035 A 
ENDROOT
BRANCH   1   7
HETATM    7  N   UNL     1      42.630 -11.576   5.414  1.00  0.00    -0.307 N 
HETATM    8  C   UNL     1      41.683 -12.568   5.204  1.00  0.00     0.325 C 
HETATM    9  N   UNL     1      41.724 -12.999   3.893  1.00  0.00    -0.305 N 
HETATM   10  O   UNL     1      40.953 -13.017   6.076  1.00  0.00    -0.247 OA
HETATM   11  H   UNL     1      42.600 -12.862   3.413  1.00  0.00     0.171 HD
HETATM   12  H   UNL     1      42.916 -11.053   4.599  1.00  0.00     0.170 HD
BRANCH   9  13
HETATM   13  C   UNL     1      40.875 -13.938   3.328  1.00  0.00     0.086 A 
HETATM   14  C   UNL     1      39.654 -13.590   2.780  1.00  0.00     0.052 A 
HETATM   15  C   UNL     1      38.964 -12.290   2.615  1.00  0.00     0.072 C 
HETATM   16  N   UNL     1      39.110 -14.754   2.317  1.00  0.00    -0.280 N 
HETATM   17  H   UNL     1      38.228 -14.886   1.834  1.00  0.00     0.189 HD
HETATM   18  N   UNL     1      39.862 -15.833   2.552  1.00  0.00    -0.177 NA
HETATM   19  C   UNL     1      40.950 -15.353   3.173  1.00  0.00     0.079 A 
HETATM   20  C   UNL     1      41.987 -16.316   3.623  1.00  0.00     0.075 C 
ENDBRANCH   9  13
ENDBRANCH   1   7
BRANCH   4  21
HETATM   21  O   UNL     1      44.642  -9.515  10.139  1.00  0.00    -0.334 OA
BRANCH  21  22
HETATM   22  C   UNL     1      43.653  -8.771  10.863  1.00  0.00     0.182 C 
BRANCH  22  23
HETATM   23  C   UNL     1      43.076  -9.657  11.966  1.00  0.00     0.065 C 
BRANCH  23  24
HETATM   24  C   UNL     1      42.702  -8.842  13.179  1.00  0.00    -0.056 A 
HETATM   25  C   UNL     1      41.619  -9.225  13.981  1.00  0.00     0.007 A 
HETATM   26  C   UNL     1      41.229  -8.439  15.066  1.00  0.00     0.001 A 
HETATM   27  C   UNL     1      41.916  -7.262  15.356  1.00  0.00     0.000 A 
HETATM   28  C   UNL     1      42.994  -6.871  14.564  1.00  0.00     0.001 A 
HETATM   29  C   UNL     1      43.386  -7.657  13.479  1.00  0.00     0.007 A 
ENDBRANCH  23  24
ENDBRANCH  22  23
ENDBRANCH  21  22
ENDBRANCH   4  21
TORSDOF 6
ENDMDL
MODEL 6
REMARK VINA RESULT:      -7.3      2.818      9.350
REMARK  6 active torsions:
REMARK  status: ('A' for Active; 'I' for Inactive)
REMARK    1  A    between atoms: C_8  and  N_9 
REMARK       I    between atoms: N_9  and  C_10 
REMARK       I    between atoms: C_10  and  N_11 
REMARK    2  A    between atoms: N_11  and  C_12 
REMARK    3  A    between atoms: C_15  and  O_16 
REMARK    4  A    between atoms: O_16  and  C_17 
REMARK    5  A    between atoms: C_17  and  C_18 
REMARK    6  A    between atoms: C_18  and  C_19 
ROOT
HETATM    1  C   UNL     1      40.550 -14.283   0.762  1.00  0.00     0.054 A 
HETATM    2  C   UNL     1      40.960 -12.970   0.552  1.00  0.00     0.149 A 
HETATM    3  N   UNL     1      40.721 -12.271  -0.584  1.00  0.00    -0.235 NA
HETATM    4  C   UNL     1      40.037 -12.903  -1.558  1.00  0.00     0.164 A 
HETATM    5  C   UNL     1      39.546 -14.191  -1.434  1.00  0.00     0.060 A 
HETATM    6  C   UNL     1      39.816 -14.893  -0.258  1.00  0.00     0.035 A 
ENDROOT
BRANCH   1   7
HETATM    7  N   UNL     1      40.882 -15.052   1.897  1.00  0.00    -0.307 N 
HETATM    8  C   UNL     1      42.093 -15.688   2.126  1.00  0.00     0.325 C 
HETATM    9  N   UNL     1      41.959 -16.625   3.132  1.00  0.00    -0.305 N 
HETATM   10  O   UNL     1      43.115 -15.471   1.491  1.00  0.00    -0.247 OA
HETATM   11  H   UNL     1      41.028 -16.985   3.274  1.00  0.00     0.171 HD
HETATM   12  H   UNL     1      40.230 -15.044   2.667  1.00  0.00     0.170 HD
BRANCH   9  13
HETATM   13  C   UNL     1      42.985 -17.397   3.655  1.00  0.00     0.086 A 
HETATM   14  C   UNL     1      43.707 -17.005   4.766  1.00  0.00     0.052 A 
HETATM   15  C   UNL     1      43.620 -15.821   5.652  1.00  0.00     0.072 C 
HETATM   16  N   UNL     1      44.610 -18.004   4.993  1.00  0.00    -0.280 N 
HETATM   17  H   UNL     1      45.296 -18.075   5.738  1.00  0.00     0.189 HD
HETATM   18  N   UNL     1      44.557 -18.995   4.098  1.00  0.00    -0.177 NA
HETATM   19  C   UNL     1      43.565 -18.639   3.267  1.00  0.00     0.079 A 
HETATM   20  C   UNL     1      43.269 -19.518   2.107  1.00  0.00     0.075 C 
ENDBRANCH   9  13
ENDBRANCH   1   7
BRANCH   4  21
HETATM   21  O   UNL     1      39.816 -12.260  -2.761  1.00  0.00    -0.334 OA
BRANCH  21  22
HETATM   22  C   UNL     1      40.931 -11.438  -3.132  1.00  0.00     0.182 C 
BRANCH  22  23
HETATM   23  C   UNL     1      40.420 -10.044  -3.492  1.00  0.00     0.065 C 
BRANCH  23  24
HETATM   24  C   UNL     1      41.377  -8.976  -3.025  1.00  0.00    -0.056 A 
HETATM   25  C   UNL     1      41.798  -7.970  -3.904  1.00  0.00     0.007 A 
HETATM   26  C   UNL     1      42.733  -7.019  -3.496  1.00  0.00     0.001 A 
HETATM   27  C   UNL     1      43.258  -7.066  -2.206  1.00  0.00     0.000 A 
HETATM   28  C   UNL     1      42.847  -8.063  -1.323  1.00  0.00     0.001 A 
HETATM   29  C   UNL     1      41.910  -9.016  -1.730  1.00  0.00     0.007 A 
ENDBRANCH  23  24
ENDBRANCH  22  23
ENDBRANCH  21  22
ENDBRANCH   4  21
TORSDOF 6
ENDMDL
MODEL 7
REMARK VINA RESULT:      -7.3      5.001      8.354
REMARK  6 active torsions:
REMARK  status: ('A' for Active; 'I' for Inactive)
REMARK    1  A    between atoms: C_8  and  N_9 
REMARK       I    between atoms: N_9  and  C_10 
REMARK       I    between atoms: C_10  and  N_11 
REMARK    2  A    between atoms: N_11  and  C_12 
REMARK    3  A    between atoms: C_15  and  O_16 
REMARK    4  A    between atoms: O_16  and  C_17 
REMARK    5  A    between atoms: C_17  and  C_18 
REMARK    6  A    between atoms: C_18  and  C_19 
ROOT
HETATM    1  C   UNL     1      42.017 -10.895   4.801  1.00  0.00     0.054 A 
HETATM    2  C   UNL     1      42.949 -10.985   3.772  1.00  0.00     0.149 A 
HETATM    3  N   UNL     1      42.876 -11.879   2.755  1.00  0.00    -0.235 NA
HETATM    4  C   UNL     1      41.824 -12.720   2.755  1.00  0.00     0.164 A 
HETATM    5  C   UNL     1      40.818 -12.685   3.706  1.00  0.00     0.060 A 
HETATM    6  C   UNL     1      40.925 -11.764   4.748  1.00  0.00     0.035 A 
ENDROOT
BRANCH   1   7
HETATM    7  N   UNL     1      42.139 -10.042   5.916  1.00  0.00    -0.307 N 
HETATM    8  C   UNL     1      42.733 -10.361   7.128  1.00  0.00     0.325 C 
HETATM    9  N   UNL     1      42.368  -9.445   8.096  1.00  0.00    -0.305 N 
HETATM   10  O   UNL     1      43.441 -11.340   7.311  1.00  0.00    -0.247 OA
HETATM   11  H   UNL     1      41.498  -8.961   7.936  1.00  0.00     0.171 HD
HETATM   12  H   UNL     1      41.881  -9.075   5.787  1.00  0.00     0.170 HD
BRANCH   9  13
HETATM   13  C   UNL     1      42.828  -9.430   9.404  1.00  0.00     0.086 A 
HETATM   14  C   UNL     1      41.968  -9.437  10.486  1.00  0.00     0.052 A 
HETATM   15  C   UNL     1      40.491  -9.485  10.591  1.00  0.00     0.072 C 
HETATM   16  N   UNL     1      42.765  -9.430  11.594  1.00  0.00    -0.280 N 
HETATM   17  H   UNL     1      42.486  -9.454  12.569  1.00  0.00     0.189 HD
HETATM   18  N   UNL     1      44.072  -9.383  11.320  1.00  0.00    -0.177 NA
HETATM   19  C   UNL     1      44.130  -9.381   9.979  1.00  0.00     0.079 A 
HETATM   20  C   UNL     1      45.464  -9.284   9.333  1.00  0.00     0.075 C 
ENDBRANCH   9  13
ENDBRANCH   1   7
BRANCH   4  21
HETATM   21  O   UNL     1      41.729 -13.690   1.777  1.00  0.00    -0.334 OA
BRANCH  21  22
HETATM   22  C   UNL     1      42.750 -14.687   1.921  1.00  0.00     0.182 C 
BRANCH  22  23
HETATM   23  C   UNL     1      42.099 -16.069   1.910  1.00  0.00     0.065 C 
BRANCH  23  24
HETATM   24  C   UNL     1      42.858 -17.035   2.784  1.00  0.00    -0.056 A 
HETATM   25  C   UNL     1      43.364 -16.620   4.023  1.00  0.00     0.007 A 
HETATM   26  C   UNL     1      44.122 -17.491   4.806  1.00  0.00     0.001 A 
HETATM   27  C   UNL     1      44.384 -18.783   4.356  1.00  0.00     0.000 A 
HETATM   28  C   UNL     1      43.887 -19.206   3.125  1.00  0.00     0.001 A 
HETATM   29  C   UNL     1      43.127 -18.337   2.341  1.00  0.00     0.007 A 
ENDBRANCH  23  24
ENDBRANCH  22  23
ENDBRANCH  21  22
ENDBRANCH   4  21
TORSDOF 6
ENDMDL
MODEL 8
REMARK VINA RESULT:      -7.1      1.837      2.265
REMARK  6 active torsions:
REMARK  status: ('A' for Active; 'I' for Inactive)
REMARK    1  A    between atoms: C_8  and  N_9 
REMARK       I    between atoms: N_9  and  C_10 
REMARK       I    between atoms: C_10  and  N_11 
REMARK    2  A    between atoms: N_11  and  C_12 
REMARK    3  A    between atoms: C_15  and  O_16 
REMARK    4  A    between atoms: O_16  and  C_17 
REMARK    5  A    between atoms: C_17  and  C_18 
REMARK    6  A    between atoms: C_18  and  C_19 
ROOT
HETATM    1  C   UNL     1      41.209 -13.498   4.574  1.00  0.00     0.054 A 
HETATM    2  C   UNL     1      42.579 -13.743   4.562  1.00  0.00     0.149 A 
HETATM    3  N   UNL     1      43.220 -14.523   5.467  1.00  0.00    -0.235 NA
HETATM    4  C   UNL     1      42.466 -15.091   6.427  1.00  0.00     0.164 A 
HETATM    5  C   UNL     1      41.091 -14.948   6.503  1.00  0.00     0.060 A 
HETATM    6  C   UNL     1      40.458 -14.131   5.567  1.00  0.00     0.035 A 
ENDROOT
BRANCH   1   7
HETATM    7  N   UNL     1      40.550 -12.608   3.702  1.00  0.00    -0.307 N 
HETATM    8  C   UNL     1      39.892 -12.949   2.530  1.00  0.00     0.325 C 
HETATM    9  N   UNL     1      39.677 -11.826   1.756  1.00  0.00    -0.305 N 
HETATM   10  O   UNL     1      39.589 -14.092   2.220  1.00  0.00    -0.247 OA
HETATM   11  H   UNL     1      40.311 -11.057   1.915  1.00  0.00     0.171 HD
HETATM   12  H   UNL     1      40.441 -11.654   4.013  1.00  0.00     0.170 HD
BRANCH   9  13
HETATM   13  C   UNL     1      38.994 -11.797   0.551  1.00  0.00     0.086 A 
HETATM   14  C   UNL     1      39.590 -12.163  -0.641  1.00  0.00     0.052 A 
HETATM   15  C   UNL     1      40.946 -12.660  -0.973  1.00  0.00     0.072 C 
HETATM   16  N   UNL     1      38.625 -12.022  -1.597  1.00  0.00    -0.280 N 
HETATM   17  H   UNL     1      38.690 -12.220  -2.590  1.00  0.00     0.189 HD
HETATM   18  N   UNL     1      37.462 -11.560  -1.128  1.00  0.00    -0.177 NA
HETATM   19  C   UNL     1      37.669 -11.415   0.190  1.00  0.00     0.079 A 
HETATM   20  C   UNL     1      36.567 -10.864   1.019  1.00  0.00     0.075 C 
ENDBRANCH   9  13
ENDBRANCH   1   7
BRANCH   4  21
HETATM   21  O   UNL     1      43.074 -15.848   7.411  1.00  0.00    -0.334 OA
BRANCH  21  22
HETATM   22  C   UNL     1      44.074 -16.719   6.864  1.00  0.00     0.182 C 
BRANCH  22  23
HETATM   23  C   UNL     1      43.552 -18.154   6.898  1.00  0.00     0.065 C 
BRANCH  23  24
HETATM   24  C   UNL     1      43.636 -18.795   5.535  1.00  0.00    -0.056 A 
HETATM   25  C   UNL     1      43.828 -20.179   5.415  1.00  0.00     0.007 A 
HETATM   26  C   UNL     1      43.971 -20.767   4.158  1.00  0.00     0.001 A 
HETATM   27  C   UNL     1      43.925 -19.978   3.011  1.00  0.00     0.000 A 
HETATM   28  C   UNL     1      43.735 -18.602   3.118  1.00  0.00     0.001 A 
HETATM   29  C   UNL     1      43.591 -18.011   4.375  1.00  0.00     0.007 A 
ENDBRANCH  23  24
ENDBRANCH  22  23
ENDBRANCH  21  22
ENDBRANCH   4  21
TORSDOF 6
ENDMDL
MODEL 9
REMARK VINA RESULT:      -7.1      4.930      7.251
REMARK  6 active torsions:
REMARK  status: ('A' for Active; 'I' for Inactive)
REMARK    1  A    between atoms: C_8  and  N_9 
REMARK       I    between atoms: N_9  and  C_10 
REMARK       I    between atoms: C_10  and  N_11 
REMARK    2  A    between atoms: N_11  and  C_12 
REMARK    3  A    between atoms: C_15  and  O_16 
REMARK    4  A    between atoms: O_16  and  C_17 
REMARK    5  A    between atoms: C_17  and  C_18 
REMARK    6  A    between atoms: C_18  and  C_19 
ROOT
HETATM    1  C   UNL     1      42.378 -12.373   5.718  1.00  0.00     0.054 A 
HETATM    2  C   UNL     1      42.607 -13.739   5.853  1.00  0.00     0.149 A 
HETATM    3  N   UNL     1      42.851 -14.576   4.815  1.00  0.00    -0.235 NA
HETATM    4  C   UNL     1      42.874 -14.031   3.583  1.00  0.00     0.164 A 
HETATM    5  C   UNL     1      42.704 -12.679   3.343  1.00  0.00     0.060 A 
HETATM    6  C   UNL     1      42.442 -11.841   4.428  1.00  0.00     0.035 A 
ENDROOT
BRANCH   1   7
HETATM    7  N   UNL     1      42.022 -11.514   6.778  1.00  0.00    -0.307 N 
HETATM    8  C   UNL     1      40.855 -10.770   6.870  1.00  0.00     0.325 C 
HETATM    9  N   UNL     1      40.987  -9.790   7.833  1.00  0.00    -0.305 N 
HETATM   10  O   UNL     1      39.873 -10.942   6.163  1.00  0.00    -0.247 OA
HETATM   11  H   UNL     1      41.930  -9.497   8.034  1.00  0.00     0.171 HD
HETATM   12  H   UNL     1      42.607 -11.529   7.600  1.00  0.00     0.170 HD
BRANCH   9  13
HETATM   13  C   UNL     1      39.991  -8.908   8.225  1.00  0.00     0.086 A 
HETATM   14  C   UNL     1      39.481  -8.900   9.510  1.00  0.00     0.052 A 
HETATM   15  C   UNL     1      39.799  -9.693  10.720  1.00  0.00     0.072 C 
HETATM   16  N   UNL     1      38.543  -7.907   9.530  1.00  0.00    -0.280 N 
HETATM   17  H   UNL     1      37.975  -7.595  10.310  1.00  0.00     0.189 HD
HETATM   18  N   UNL     1      38.378  -7.296   8.354  1.00  0.00    -0.177 NA
HETATM   19  C   UNL     1      39.259  -7.897   7.539  1.00  0.00     0.079 A 
HETATM   20  C   UNL     1      39.301  -7.477   6.115  1.00  0.00     0.075 C 
ENDBRANCH   9  13
ENDBRANCH   1   7
BRANCH   4  21
HETATM   21  O   UNL     1      43.059 -14.846   2.483  1.00  0.00    -0.334 OA
BRANCH  21  22
HETATM   22  C   UNL     1      42.435 -16.125   2.662  1.00  0.00     0.182 C 
BRANCH  22  23
HETATM   23  C   UNL     1      43.258 -17.184   1.932  1.00  0.00     0.065 C 
BRANCH  23  24
HETATM   24  C   UNL     1      43.580 -18.344   2.840  1.00  0.00    -0.056 A 
HETATM   25  C   UNL     1      43.506 -19.659   2.361  1.00  0.00     0.007 A 
HETATM   26  C   UNL     1      43.739 -20.738   3.215  1.00  0.00     0.001 A 
HETATM   27  C   UNL     1      44.047 -20.512   4.555  1.00  0.00     0.000 A 
HETATM   28  C   UNL     1      44.122 -19.209   5.042  1.00  0.00     0.001 A 
HETATM   29  C   UNL     1      43.890 -18.128   4.189  1.00  0.00     0.007 A 
ENDBRANCH  23  24
ENDBRANCH  22  23
ENDBRANCH  21  22
ENDBRANCH   4  21
TORSDOF 6
ENDMDL
MODEL 10
REMARK VINA RESULT:      -7.1     14.494     16.962
REMARK  6 active torsions:
REMARK  status: ('A' for Active; 'I' for Inactive)
REMARK    1  A    between atoms: C_8  and  N_9 
REMARK       I    between atoms: N_9  and  C_10 
REMARK       I    between atoms: C_10  and  N_11 
REMARK    2  A    between atoms: N_11  and  C_12 
REMARK    3  A    between atoms: C_15  and  O_16 
REMARK    4  A    between atoms: O_16  and  C_17 
REMARK    5  A    between atoms: C_17  and  C_18 
REMARK    6  A    between atoms: C_18  and  C_19 
ROOT
HETATM    1  C   UNL     1      41.811 -31.141   2.743  1.00  0.00     0.054 A 
HETATM    2  C   UNL     1      43.074 -31.420   3.256  1.00  0.00     0.149 A 
HETATM    3  N   UNL     1      44.181 -30.682   2.996  1.00  0.00    -0.235 NA
HETATM    4  C   UNL     1      44.028 -29.613   2.191  1.00  0.00     0.164 A 
HETATM    5  C   UNL     1      42.808 -29.222   1.664  1.00  0.00     0.060 A 
HETATM    6  C   UNL     1      41.687 -30.006   1.938  1.00  0.00     0.035 A 
ENDROOT
BRANCH   1   7
HETATM    7  N   UNL     1      40.677 -31.959   2.923  1.00  0.00    -0.307 N 
HETATM    8  C   UNL     1      39.857 -31.984   4.041  1.00  0.00     0.325 C 
HETATM    9  N   UNL     1      39.077 -33.124   4.038  1.00  0.00    -0.305 N 
HETATM   10  O   UNL     1      39.865 -31.134   4.920  1.00  0.00    -0.247 OA
HETATM   11  H   UNL     1      39.444 -33.905   3.516  1.00  0.00     0.171 HD
HETATM   12  H   UNL     1      40.358 -32.488   2.125  1.00  0.00     0.170 HD
BRANCH   9  13
HETATM   13  C   UNL     1      38.105 -33.437   4.975  1.00  0.00     0.086 A 
HETATM   14  C   UNL     1      38.422 -33.923   6.230  1.00  0.00     0.052 A 
HETATM   15  C   UNL     1      39.714 -34.203   6.898  1.00  0.00     0.072 C 
HETATM   16  N   UNL     1      37.230 -34.102   6.871  1.00  0.00    -0.280 N 
HETATM   17  H   UNL     1      37.069 -34.426   7.819  1.00  0.00     0.189 HD
HETATM   18  N   UNL     1      36.164 -33.806   6.122  1.00  0.00    -0.177 NA
HETATM   19  C   UNL     1      36.681 -33.396   4.954  1.00  0.00     0.079 A 
HETATM   20  C   UNL     1      35.745 -33.029   3.860  1.00  0.00     0.075 C 
ENDBRANCH   9  13
ENDBRANCH   1   7
BRANCH   4  21
HETATM   21  O   UNL     1      45.132 -28.859   1.843  1.00  0.00    -0.334 OA
BRANCH  21  22
HETATM   22  C   UNL     1      45.967 -29.550   0.904  1.00  0.00     0.182 C 
BRANCH  22  23
HETATM   23  C   UNL     1      46.386 -28.576  -0.196  1.00  0.00     0.065 C 
BRANCH  23  24
HETATM   24  C   UNL     1      45.565 -28.781  -1.445  1.00  0.00    -0.056 A 
HETATM   25  C   UNL     1      44.668 -29.853  -1.533  1.00  0.00     0.007 A 
HETATM   26  C   UNL     1      43.955 -30.085  -2.710  1.00  0.00     0.001 A 
HETATM   27  C   UNL     1      44.135 -29.249  -3.809  1.00  0.00     0.000 A 
HETATM   28  C   UNL     1      45.026 -28.180  -3.733  1.00  0.00     0.001 A 
HETATM   29  C   UNL     1      45.739 -27.945  -2.556  1.00  0.00     0.007 A 
ENDBRANCH  23  24
ENDBRANCH  22  23
ENDBRANCH  21  22
ENDBRANCH   4  21
TORSDOF 6
ENDMDL
