MODEL 1
REMARK VINA RESULT:      -8.0      0.000      0.000
REMARK  2 active torsions:
REMARK  status: ('A' for Active; 'I' for Inactive)
REMARK    1  A    between atoms: C_7  and  C_8 
REMARK    2  A    between atoms: C_8  and  O_9 
ROOT
HETATM    1  C   UNL     1      40.999 -14.906   5.069  1.00  0.00     0.199 A 
HETATM    2  C   UNL     1      40.822 -15.576   6.471  1.00  0.00     0.266 A 
HETATM    3  O   UNL     1      39.955 -16.368   6.813  1.00  0.00    -0.269 OA
HETATM    4  N   UNL     1      41.809 -15.058   7.310  1.00  0.00    -0.323 N 
HETATM    5  C   UNL     1      42.601 -14.136   6.642  1.00  0.00     0.045 A 
HETATM    6  C   UNL     1      42.188 -14.008   5.311  1.00  0.00     0.019 A 
HETATM    7  C   UNL     1      43.647 -13.408   7.170  1.00  0.00     0.032 A 
HETATM    8  C   UNL     1      44.302 -12.512   6.320  1.00  0.00     0.026 A 
HETATM    9  C   UNL     1      43.895 -12.370   4.982  1.00  0.00     0.034 A 
HETATM   10 CL   UNL     1      44.718 -11.253   3.963  1.00  0.00    -0.084 Cl
HETATM   11  C   UNL     1      42.830 -13.113   4.466  1.00  0.00     0.037 A 
HETATM   12  H   UNL     1      41.885 -15.308   8.284  1.00  0.00     0.169 HD
ENDROOT
BRANCH   1  13
HETATM   13  C   UNL     1      41.367 -15.855   3.950  1.00  0.00     0.025 A 
HETATM   14  C   UNL     1      40.769 -15.908   2.687  1.00  0.00     0.016 A 
HETATM   15  C   UNL     1      39.667 -15.108   2.085  1.00  0.00     0.069 C 
HETATM   16  N   UNL     1      41.375 -16.903   1.968  1.00  0.00    -0.359 N 
HETATM   17  H   UNL     1      41.139 -17.163   1.020  1.00  0.00     0.166 HD
HETATM   18  C   UNL     1      42.360 -17.507   2.706  1.00  0.00     0.043 A 
HETATM   19  C   UNL     1      42.391 -16.877   3.950  1.00  0.00     0.003 A 
HETATM   20  C   UNL     1      43.214 -18.560   2.353  1.00  0.00     0.030 A 
HETATM   21  C   UNL     1      43.345 -17.336   4.887  1.00  0.00     0.014 A 
HETATM   22  C   UNL     1      44.206 -18.391   4.554  1.00  0.00     0.001 A 
HETATM   23  C   UNL     1      44.139 -18.994   3.304  1.00  0.00     0.002 A 
ENDBRANCH   1  13
BRANCH   1  24
HETATM   24  O   UNL     1      39.849 -14.116   4.782  1.00  0.00    -0.371 OA
HETATM   25  H   UNL     1      39.132 -14.550   5.278  1.00  0.00     0.212 HD
ENDBRANCH   1  24
TORSDOF 2
ENDMDL
MODEL 2
REMARK VINA RESULT:      -7.9      3.218      5.016
REMARK  2 active torsions:
REMARK  status: ('A' for Active; 'I' for Inactive)
REMARK    1  A    between atoms: C_7  and  C_8 
REMARK    2  A    between atoms: C_8  and  O_9 
ROOT
HETATM    1  C   UNL     1      43.296 -16.624   5.379  1.00  0.00     0.199 A 
HETATM    2  C   UNL     1      43.157 -16.791   6.928  1.00  0.00     0.266 A 
HETATM    3  O   UNL     1      43.017 -15.907   7.761  1.00  0.00    -0.269 OA
HETATM    4  N   UNL     1      43.285 -18.149   7.215  1.00  0.00    -0.323 N 
HETATM    5  C   UNL     1      43.495 -18.888   6.061  1.00  0.00     0.045 A 
HETATM    6  C   UNL     1      43.500 -18.053   4.939  1.00  0.00     0.019 A 
HETATM    7  C   UNL     1      43.696 -20.251   5.976  1.00  0.00     0.032 A 
HETATM    8  C   UNL     1      43.911 -20.791   4.705  1.00  0.00     0.026 A 
HETATM    9  C   UNL     1      43.922 -19.964   3.569  1.00  0.00     0.034 A 
HETATM   10 CL   UNL     1      44.197 -20.660   2.019  1.00  0.00    -0.084 Cl
HETATM   11  C   UNL     1      43.721 -18.585   3.675  1.00  0.00     0.037 A 
HETATM   12  H   UNL     1      43.267 -18.513   8.156  1.00  0.00     0.169 HD
ENDROOT
BRANCH   1  13
HETATM   13  C   UNL     1      42.061 -16.103   4.679  1.00  0.00     0.025 A 
HETATM   14  C   UNL     1      40.791 -15.963   5.246  1.00  0.00     0.016 A 
HETATM   15  C   UNL     1      40.287 -16.255   6.616  1.00  0.00     0.069 C 
HETATM   16  N   UNL     1      39.946 -15.469   4.288  1.00  0.00    -0.359 N 
HETATM   17  H   UNL     1      38.964 -15.273   4.424  1.00  0.00     0.166 HD
HETATM   18  C   UNL     1      40.612 -15.269   3.108  1.00  0.00     0.043 A 
HETATM   19  C   UNL     1      41.940 -15.648   3.311  1.00  0.00     0.003 A 
HETATM   20  C   UNL     1      40.128 -14.782   1.886  1.00  0.00     0.030 A 
HETATM   21  C   UNL     1      42.827 -15.520   2.217  1.00  0.00     0.014 A 
HETATM   22  C   UNL     1      42.360 -15.040   0.986  1.00  0.00     0.001 A 
HETATM   23  C   UNL     1      41.028 -14.677   0.824  1.00  0.00     0.002 A 
ENDBRANCH   1  13
BRANCH   1  24
HETATM   24  O   UNL     1      44.466 -15.861   5.096  1.00  0.00    -0.371 OA
HETATM   25  H   UNL     1      44.290 -14.995   5.504  1.00  0.00     0.212 HD
ENDBRANCH   1  24
TORSDOF 2
ENDMDL
MODEL 3
REMARK VINA RESULT:      -7.7     15.261     16.634
REMARK  2 active torsions:
REMARK  status: ('A' for Active; 'I' for Inactive)
REMARK    1  A    between atoms: C_7  and  C_8 
REMARK    2  A    between atoms: C_8  and  O_9 
ROOT
HETATM    1  C   UNL     1      47.751 -28.798   0.111  1.00  0.00     0.199 A 
HETATM    2  C   UNL     1      47.761 -28.732   1.674  1.00  0.00     0.266 A 
HETATM    3  O   UNL     1      46.990 -28.117   2.397  1.00  0.00    -0.269 OA
HETATM    4  N   UNL     1      48.863 -29.463   2.116  1.00  0.00    -0.323 N 
HETATM    5  C   UNL     1      49.576 -29.991   1.050  1.00  0.00     0.045 A 
HETATM    6  C   UNL     1      48.968 -29.649  -0.163  1.00  0.00     0.019 A 
HETATM    7  C   UNL     1      50.735 -30.737   1.117  1.00  0.00     0.032 A 
HETATM    8  C   UNL     1      51.303 -31.153  -0.090  1.00  0.00     0.026 A 
HETATM    9  C   UNL     1      50.705 -30.814  -1.316  1.00  0.00     0.034 A 
HETATM   10 CL   UNL     1      51.434 -31.337  -2.785  1.00  0.00    -0.084 Cl
HETATM   11  C   UNL     1      49.534 -30.054  -1.364  1.00  0.00     0.037 A 
HETATM   12  H   UNL     1      49.110 -29.543   3.091  1.00  0.00     0.169 HD
ENDROOT
BRANCH   1  13
HETATM   13  C   UNL     1      46.557 -29.504  -0.491  1.00  0.00     0.025 A 
HETATM   14  C   UNL     1      45.910 -30.623   0.039  1.00  0.00     0.016 A 
HETATM   15  C   UNL     1      46.165 -31.417   1.273  1.00  0.00     0.069 C 
HETATM   16  N   UNL     1      44.885 -30.964  -0.803  1.00  0.00    -0.359 N 
HETATM   17  H   UNL     1      44.252 -31.740  -0.665  1.00  0.00     0.166 HD
HETATM   18  C   UNL     1      44.824 -30.105  -1.869  1.00  0.00     0.043 A 
HETATM   19  C   UNL     1      45.850 -29.173  -1.710  1.00  0.00     0.003 A 
HETATM   20  C   UNL     1      43.937 -30.097  -2.953  1.00  0.00     0.030 A 
HETATM   21  C   UNL     1      45.979 -28.173  -2.701  1.00  0.00     0.014 A 
HETATM   22  C   UNL     1      45.103 -28.150  -3.794  1.00  0.00     0.001 A 
HETATM   23  C   UNL     1      44.096 -29.100  -3.918  1.00  0.00     0.002 A 
ENDBRANCH   1  13
BRANCH   1  24
HETATM   24  O   UNL     1      47.953 -27.488  -0.411  1.00  0.00    -0.371 OA
HETATM   25  H   UNL     1      47.870 -26.907   0.366  1.00  0.00     0.212 HD
ENDBRANCH   1  24
TORSDOF 2
ENDMDL
MODEL 4
REMARK VINA RESULT:      -7.7      2.214      5.454
REMARK  2 active torsions:
REMARK  status: ('A' for Active; 'I' for Inactive)
REMARK    1  A    between atoms: C_7  and  C_8 
REMARK    2  A    between atoms: C_8  and  O_9 
ROOT
HETATM    1  C   UNL     1      40.999 -15.557   3.658  1.00  0.00     0.199 A 
HETATM    2  C   UNL     1      40.974 -14.988   2.201  1.00  0.00     0.266 A 
HETATM    3  O   UNL     1      40.230 -14.129   1.751  1.00  0.00    -0.269 OA
HETATM    4  N   UNL     1      41.928 -15.688   1.463  1.00  0.00    -0.323 N 
HETATM    5  C   UNL     1      42.567 -16.640   2.243  1.00  0.00     0.045 A 
HETATM    6  C   UNL     1      42.076 -16.609   3.553  1.00  0.00     0.019 A 
HETATM    7  C   UNL     1      43.538 -17.530   1.833  1.00  0.00     0.032 A 
HETATM    8  C   UNL     1      44.035 -18.425   2.785  1.00  0.00     0.026 A 
HETATM    9  C   UNL     1      43.549 -18.407   4.104  1.00  0.00     0.034 A 
HETATM   10 CL   UNL     1      44.176 -19.528   5.250  1.00  0.00    -0.084 Cl
HETATM   11  C   UNL     1      42.561 -17.502   4.500  1.00  0.00     0.037 A 
HETATM   12  H   UNL     1      42.082 -15.530   0.478  1.00  0.00     0.169 HD
ENDROOT
BRANCH   1  13
HETATM   13  C   UNL     1      41.426 -14.571   4.722  1.00  0.00     0.025 A 
HETATM   14  C   UNL     1      41.017 -14.574   6.058  1.00  0.00     0.016 A 
HETATM   15  C   UNL     1      40.103 -15.481   6.806  1.00  0.00     0.069 C 
HETATM   16  N   UNL     1      41.617 -13.518   6.692  1.00  0.00    -0.359 N 
HETATM   17  H   UNL     1      41.496 -13.281   7.667  1.00  0.00     0.166 HD
HETATM   18  C   UNL     1      42.416 -12.820   5.825  1.00  0.00     0.043 A 
HETATM   19  C   UNL     1      42.329 -13.449   4.583  1.00  0.00     0.003 A 
HETATM   20  C   UNL     1      43.200 -11.683   6.060  1.00  0.00     0.030 A 
HETATM   21  C   UNL     1      43.084 -12.898   3.522  1.00  0.00     0.014 A 
HETATM   22  C   UNL     1      43.872 -11.759   3.737  1.00  0.00     0.001 A 
HETATM   23  C   UNL     1      43.927 -11.160   4.990  1.00  0.00     0.002 A 
ENDBRANCH   1  13
BRANCH   1  24
HETATM   24  O   UNL     1      39.747 -16.177   3.936  1.00  0.00    -0.371 OA
HETATM   25  H   UNL     1      39.742 -16.281   4.904  1.00  0.00     0.212 HD
ENDBRANCH   1  24
TORSDOF 2
ENDMDL
MODEL 5
REMARK VINA RESULT:      -7.2      2.288      5.238
REMARK  2 active torsions:
REMARK  status: ('A' for Active; 'I' for Inactive)
REMARK    1  A    between atoms: C_7  and  C_8 
REMARK    2  A    between atoms: C_8  and  O_9 
ROOT
HETATM    1  C   UNL     1      41.162 -14.616   3.956  1.00  0.00     0.199 A 
HETATM    2  C   UNL     1      40.142 -14.555   2.772  1.00  0.00     0.266 A 
HETATM    3  O   UNL     1      39.244 -13.742   2.606  1.00  0.00    -0.269 OA
HETATM    4  N   UNL     1      40.393 -15.651   1.948  1.00  0.00    -0.323 N 
HETATM    5  C   UNL     1      41.437 -16.420   2.439  1.00  0.00     0.045 A 
HETATM    6  C   UNL     1      41.947 -15.860   3.615  1.00  0.00     0.019 A 
HETATM    7  C   UNL     1      41.930 -17.590   1.897  1.00  0.00     0.032 A 
HETATM    8  C   UNL     1      42.980 -18.219   2.571  1.00  0.00     0.026 A 
HETATM    9  C   UNL     1      43.500 -17.669   3.755  1.00  0.00     0.034 A 
HETATM   10 CL   UNL     1      44.789 -18.473   4.565  1.00  0.00    -0.084 Cl
HETATM   11  C   UNL     1      42.985 -16.486   4.292  1.00  0.00     0.037 A 
HETATM   12  H   UNL     1      39.841 -15.857   1.128  1.00  0.00     0.169 HD
ENDROOT
BRANCH   1  13
HETATM   13  C   UNL     1      42.140 -13.464   4.016  1.00  0.00     0.025 A 
HETATM   14  C   UNL     1      42.465 -12.604   2.963  1.00  0.00     0.016 A 
HETATM   15  C   UNL     1      41.987 -12.549   1.554  1.00  0.00     0.069 C 
HETATM   16  N   UNL     1      43.391 -11.703   3.415  1.00  0.00    -0.359 N 
HETATM   17  H   UNL     1      43.804 -10.966   2.861  1.00  0.00     0.166 HD
HETATM   18  C   UNL     1      43.687 -11.929   4.734  1.00  0.00     0.043 A 
HETATM   19  C   UNL     1      42.922 -13.019   5.150  1.00  0.00     0.003 A 
HETATM   20  C   UNL     1      44.575 -11.245   5.575  1.00  0.00     0.030 A 
HETATM   21  C   UNL     1      43.059 -13.434   6.495  1.00  0.00     0.014 A 
HETATM   22  C   UNL     1      43.945 -12.765   7.349  1.00  0.00     0.001 A 
HETATM   23  C   UNL     1      44.693 -11.686   6.894  1.00  0.00     0.002 A 
ENDBRANCH   1  13
BRANCH   1  24
HETATM   24  O   UNL     1      40.451 -14.814   5.174  1.00  0.00    -0.371 OA
HETATM   25  H   UNL     1      40.132 -15.732   5.117  1.00  0.00     0.212 HD
ENDBRANCH   1  24
TORSDOF 2
ENDMDL
MODEL 6
REMARK VINA RESULT:      -7.2      2.219      3.367
REMARK  2 active torsions:
REMARK  status: ('A' for Active; 'I' for Inactive)
REMARK    1  A    between atoms: C_7  and  C_8 
REMARK    2  A    between atoms: C_8  and  O_9 
ROOT
HETATM    1  C   UNL     1      41.313 -14.991   2.816  1.00  0.00     0.199 A 
HETATM    2  C   UNL     1      39.854 -15.281   2.332  1.00  0.00     0.266 A 
HETATM    3  O   UNL     1      39.452 -16.270   1.735  1.00  0.00    -0.269 OA
HETATM    4  N   UNL     1      39.080 -14.165   2.647  1.00  0.00    -0.323 N 
HETATM    5  C   UNL     1      39.841 -13.185   3.267  1.00  0.00     0.045 A 
HETATM    6  C   UNL     1      41.165 -13.611   3.410  1.00  0.00     0.019 A 
HETATM    7  C   UNL     1      39.409 -11.943   3.684  1.00  0.00     0.032 A 
HETATM    8  C   UNL     1      40.354 -11.096   4.270  1.00  0.00     0.026 A 
HETATM    9  C   UNL     1      41.689 -11.510   4.418  1.00  0.00     0.034 A 
HETATM   10 CL   UNL     1      42.830 -10.440   5.137  1.00  0.00    -0.084 Cl
HETATM   11  C   UNL     1      42.109 -12.770   3.985  1.00  0.00     0.037 A 
HETATM   12  H   UNL     1      38.103 -14.091   2.404  1.00  0.00     0.169 HD
ENDROOT
BRANCH   1  13
HETATM   13  C   UNL     1      41.818 -15.906   3.909  1.00  0.00     0.025 A 
HETATM   14  C   UNL     1      41.460 -15.849   5.259  1.00  0.00     0.016 A 
HETATM   15  C   UNL     1      40.537 -14.944   5.996  1.00  0.00     0.069 C 
HETATM   16  N   UNL     1      42.136 -16.839   5.923  1.00  0.00    -0.359 N 
HETATM   17  H   UNL     1      42.068 -17.025   6.914  1.00  0.00     0.166 HD
HETATM   18  C   UNL     1      42.923 -17.555   5.059  1.00  0.00     0.043 A 
HETATM   19  C   UNL     1      42.749 -17.007   3.788  1.00  0.00     0.003 A 
HETATM   20  C   UNL     1      43.770 -18.639   5.322  1.00  0.00     0.030 A 
HETATM   21  C   UNL     1      43.469 -17.596   2.723  1.00  0.00     0.014 A 
HETATM   22  C   UNL     1      44.323 -18.679   2.966  1.00  0.00     0.001 A 
HETATM   23  C   UNL     1      44.471 -19.193   4.249  1.00  0.00     0.002 A 
ENDBRANCH   1  13
BRANCH   1  24
HETATM   24  O   UNL     1      42.177 -14.937   1.684  1.00  0.00    -0.371 OA
HETATM   25  H   UNL     1      41.778 -15.559   1.050  1.00  0.00     0.212 HD
ENDBRANCH   1  24
TORSDOF 2
ENDMDL
MODEL 7
REMARK VINA RESULT:      -7.2      3.028      4.046
REMARK  2 active torsions:
REMARK  status: ('A' for Active; 'I' for Inactive)
REMARK    1  A    between atoms: C_7  and  C_8 
REMARK    2  A    between atoms: C_8  and  O_9 
ROOT
HETATM    1  C   UNL     1      41.348 -12.978   5.367  1.00  0.00     0.199 A 
HETATM    2  C   UNL     1      42.699 -12.233   5.624  1.00  0.00     0.266 A 
HETATM    3  O   UNL     1      43.537 -12.487   6.478  1.00  0.00    -0.269 OA
HETATM    4  N   UNL     1      42.763 -11.163   4.733  1.00  0.00    -0.323 N 
HETATM    5  C   UNL     1      41.631 -11.108   3.933  1.00  0.00     0.045 A 
HETATM    6  C   UNL     1      40.760 -12.158   4.245  1.00  0.00     0.019 A 
HETATM    7  C   UNL     1      41.344 -10.164   2.968  1.00  0.00     0.032 A 
HETATM    8  C   UNL     1      40.128 -10.286   2.290  1.00  0.00     0.026 A 
HETATM    9  C   UNL     1      39.242 -11.334   2.595  1.00  0.00     0.034 A 
HETATM   10 CL   UNL     1      37.749 -11.450   1.746  1.00  0.00    -0.084 Cl
HETATM   11  C   UNL     1      39.547 -12.277   3.579  1.00  0.00     0.037 A 
HETATM   12  H   UNL     1      43.527 -10.503   4.724  1.00  0.00     0.169 HD
ENDROOT
BRANCH   1  13
HETATM   13  C   UNL     1      41.487 -14.399   4.867  1.00  0.00     0.025 A 
HETATM   14  C   UNL     1      40.940 -15.538   5.464  1.00  0.00     0.016 A 
HETATM   15  C   UNL     1      40.107 -15.706   6.686  1.00  0.00     0.069 C 
HETATM   16  N   UNL     1      41.298 -16.628   4.716  1.00  0.00    -0.359 N 
HETATM   17  H   UNL     1      41.040 -17.584   4.920  1.00  0.00     0.166 HD
HETATM   18  C   UNL     1      42.057 -16.251   3.639  1.00  0.00     0.043 A 
HETATM   19  C   UNL     1      42.195 -14.864   3.693  1.00  0.00     0.003 A 
HETATM   20  C   UNL     1      42.625 -17.043   2.632  1.00  0.00     0.030 A 
HETATM   21  C   UNL     1      42.944 -14.244   2.666  1.00  0.00     0.014 A 
HETATM   22  C   UNL     1      43.522 -15.020   1.653  1.00  0.00     0.001 A 
HETATM   23  C   UNL     1      43.365 -16.401   1.638  1.00  0.00     0.002 A 
ENDBRANCH   1  13
BRANCH   1  24
HETATM   24  O   UNL     1      40.527 -12.868   6.526  1.00  0.00    -0.371 OA
HETATM   25  H   UNL     1      39.619 -12.887   6.177  1.00  0.00     0.212 HD
ENDBRANCH   1  24
TORSDOF 2
ENDMDL
MODEL 8
REMARK VINA RESULT:      -7.1      2.318      3.231
REMARK  2 active torsions:
REMARK  status: ('A' for Active; 'I' for Inactive)
REMARK    1  A    between atoms: C_7  and  C_8 
REMARK    2  A    between atoms: C_8  and  O_9 
ROOT
HETATM    1  C   UNL     1      41.453 -12.420   4.048  1.00  0.00     0.199 A 
HETATM    2  C   UNL     1      40.054 -11.822   4.411  1.00  0.00     0.266 A 
HETATM    3  O   UNL     1      38.999 -11.984   3.814  1.00  0.00    -0.269 OA
HETATM    4  N   UNL     1      40.227 -10.998   5.522  1.00  0.00    -0.323 N 
HETATM    5  C   UNL     1      41.552 -10.976   5.929  1.00  0.00     0.045 A 
HETATM    6  C   UNL     1      42.329 -11.803   5.111  1.00  0.00     0.019 A 
HETATM    7  C   UNL     1      42.086 -10.245   6.971  1.00  0.00     0.032 A 
HETATM    8  C   UNL     1      43.461 -10.355   7.195  1.00  0.00     0.026 A 
HETATM    9  C   UNL     1      44.255 -11.180   6.380  1.00  0.00     0.034 A 
HETATM   10 CL   UNL     1      45.947 -11.286   6.678  1.00  0.00    -0.084 Cl
HETATM   11  C   UNL     1      43.697 -11.908   5.326  1.00  0.00     0.037 A 
HETATM   12  H   UNL     1      39.473 -10.465   5.931  1.00  0.00     0.169 HD
ENDROOT
BRANCH   1  13
HETATM   13  C   UNL     1      41.560 -13.922   4.185  1.00  0.00     0.025 A 
HETATM   14  C   UNL     1      41.019 -14.695   5.215  1.00  0.00     0.016 A 
HETATM   15  C   UNL     1      40.221 -14.318   6.415  1.00  0.00     0.069 C 
HETATM   16  N   UNL     1      41.341 -16.006   4.983  1.00  0.00    -0.359 N 
HETATM   17  H   UNL     1      41.079 -16.783   5.573  1.00  0.00     0.166 HD
HETATM   18  C   UNL     1      42.071 -16.130   3.829  1.00  0.00     0.043 A 
HETATM   19  C   UNL     1      42.226 -14.850   3.296  1.00  0.00     0.003 A 
HETATM   20  C   UNL     1      42.599 -17.283   3.233  1.00  0.00     0.030 A 
HETATM   21  C   UNL     1      42.950 -14.733   2.087  1.00  0.00     0.014 A 
HETATM   22  C   UNL     1      43.489 -15.874   1.478  1.00  0.00     0.001 A 
HETATM   23  C   UNL     1      43.315 -17.131   2.045  1.00  0.00     0.002 A 
ENDBRANCH   1  13
BRANCH   1  24
HETATM   24  O   UNL     1      41.845 -11.942   2.764  1.00  0.00    -0.371 OA
HETATM   25  H   UNL     1      41.016 -11.924   2.254  1.00  0.00     0.212 HD
ENDBRANCH   1  24
TORSDOF 2
ENDMDL
MODEL 9
REMARK VINA RESULT:      -7.1      2.700      5.333
REMARK  2 active torsions:
REMARK  status: ('A' for Active; 'I' for Inactive)
REMARK    1  A    between atoms: C_7  and  C_8 
REMARK    2  A    between atoms: C_8  and  O_9 
ROOT
HETATM    1  C   UNL     1      41.114 -15.612   3.719  1.00  0.00     0.199 A 
HETATM    2  C   UNL     1      41.169 -16.266   2.299  1.00  0.00     0.266 A 
HETATM    3  O   UNL     1      40.440 -16.034   1.345  1.00  0.00    -0.269 OA
HETATM    4  N   UNL     1      42.177 -17.230   2.321  1.00  0.00    -0.323 N 
HETATM    5  C   UNL     1      42.782 -17.294   3.568  1.00  0.00     0.045 A 
HETATM    6  C   UNL     1      42.213 -16.357   4.437  1.00  0.00     0.019 A 
HETATM    7  C   UNL     1      43.791 -18.152   3.954  1.00  0.00     0.032 A 
HETATM    8  C   UNL     1      44.242 -18.062   5.274  1.00  0.00     0.026 A 
HETATM    9  C   UNL     1      43.677 -17.127   6.160  1.00  0.00     0.034 A 
HETATM   10 CL   UNL     1      44.252 -17.046   7.781  1.00  0.00    -0.084 Cl
HETATM   11  C   UNL     1      42.654 -16.270   5.751  1.00  0.00     0.037 A 
HETATM   12  H   UNL     1      42.388 -17.819   1.530  1.00  0.00     0.169 HD
ENDROOT
BRANCH   1  13
HETATM   13  C   UNL     1      41.461 -14.140   3.758  1.00  0.00     0.025 A 
HETATM   14  C   UNL     1      42.463 -13.511   3.013  1.00  0.00     0.016 A 
HETATM   15  C   UNL     1      43.431 -14.045   2.016  1.00  0.00     0.069 C 
HETATM   16  N   UNL     1      42.466 -12.180   3.338  1.00  0.00    -0.359 N 
HETATM   17  H   UNL     1      43.092 -11.489   2.949  1.00  0.00     0.166 HD
HETATM   18  C   UNL     1      41.497 -11.903   4.267  1.00  0.00     0.043 A 
HETATM   19  C   UNL     1      40.842 -13.102   4.553  1.00  0.00     0.003 A 
HETATM   20  C   UNL     1      41.165 -10.682   4.865  1.00  0.00     0.030 A 
HETATM   21  C   UNL     1      39.787 -13.057   5.493  1.00  0.00     0.014 A 
HETATM   22  C   UNL     1      39.443 -11.844   6.105  1.00  0.00     0.001 A 
HETATM   23  C   UNL     1      40.124 -10.673   5.795  1.00  0.00     0.002 A 
ENDBRANCH   1  13
BRANCH   1  24
HETATM   24  O   UNL     1      39.858 -15.910   4.320  1.00  0.00    -0.371 OA
HETATM   25  H   UNL     1      39.207 -15.711   3.623  1.00  0.00     0.212 HD
ENDBRANCH   1  24
TORSDOF 2
ENDMDL
MODEL 10
REMARK VINA RESULT:      -7.0      3.057      5.199
REMARK  2 active torsions:
REMARK  status: ('A' for Active; 'I' for Inactive)
REMARK    1  A    between atoms: C_7  and  C_8 
REMARK    2  A    between atoms: C_8  and  O_9 
ROOT
HETATM    1  C   UNL     1      42.808 -13.470   4.147  1.00  0.00     0.199 A 
HETATM    2  C   UNL     1      43.236 -13.102   5.606  1.00  0.00     0.266 A 
HETATM    3  O   UNL     1      43.288 -11.988   6.106  1.00  0.00    -0.269 OA
HETATM    4  N   UNL     1      43.618 -14.284   6.239  1.00  0.00    -0.323 N 
HETATM    5  C   UNL     1      43.501 -15.372   5.386  1.00  0.00     0.045 A 
HETATM    6  C   UNL     1      43.016 -14.965   4.139  1.00  0.00     0.019 A 
HETATM    7  C   UNL     1      43.822 -16.683   5.669  1.00  0.00     0.032 A 
HETATM    8  C   UNL     1      43.646 -17.623   4.650  1.00  0.00     0.026 A 
HETATM    9  C   UNL     1      43.162 -17.229   3.390  1.00  0.00     0.034 A 
HETATM   10 CL   UNL     1      42.964 -18.410   2.154  1.00  0.00    -0.084 Cl
HETATM   11  C   UNL     1      42.847 -15.895   3.121  1.00  0.00     0.037 A 
HETATM   12  H   UNL     1      43.971 -14.308   7.184  1.00  0.00     0.169 HD
ENDROOT
BRANCH   1  13
HETATM   13  C   UNL     1      41.353 -13.211   3.823  1.00  0.00     0.025 A 
HETATM   14  C   UNL     1      40.269 -13.427   4.679  1.00  0.00     0.016 A 
HETATM   15  C   UNL     1      40.203 -13.937   6.076  1.00  0.00     0.069 C 
HETATM   16  N   UNL     1      39.123 -13.080   4.013  1.00  0.00    -0.359 N 
HETATM   17  H   UNL     1      38.189 -13.138   4.395  1.00  0.00     0.166 HD
HETATM   18  C   UNL     1      39.409 -12.634   2.750  1.00  0.00     0.043 A 
HETATM   19  C   UNL     1      40.794 -12.696   2.592  1.00  0.00     0.003 A 
HETATM   20  C   UNL     1      38.539 -12.187   1.748  1.00  0.00     0.030 A 
HETATM   21  C   UNL     1      41.326 -12.274   1.351  1.00  0.00     0.014 A 
HETATM   22  C   UNL     1      40.471 -11.827   0.336  1.00  0.00     0.001 A 
HETATM   23  C   UNL     1      39.095 -11.785   0.532  1.00  0.00     0.002 A 
ENDBRANCH   1  13
BRANCH   1  24
HETATM   24  O   UNL     1      43.706 -12.854   3.229  1.00  0.00    -0.371 OA
HETATM   25  H   UNL     1      43.932 -13.566   2.603  1.00  0.00     0.212 HD
ENDBRANCH   1  24
TORSDOF 2
ENDMDL
