MODEL 1
REMARK VINA RESULT:      -8.1      0.000      0.000
REMARK  4 active torsions:
REMARK  status: ('A' for Active; 'I' for Inactive)
REMARK    1  A    between atoms: O_2  and  C_3 
REMARK    2  A    between atoms: C_4  and  C_5 
REMARK    3  A    between atoms: C_9  and  N_10 
REMARK    4  A    between atoms: C_13  and  C_14 
ROOT
HETATM    1  C   UNL     1      41.305 -13.236   3.319  1.00  0.00     0.167 C 
HETATM    2  N   UNL     1      41.372 -12.183   2.313  1.00  0.00    -0.074 N 
HETATM    3  C   UNL     1      42.187 -11.087   2.389  1.00  0.00     0.736 A 
HETATM    4  N   UNL     1      42.031 -10.368   1.309  1.00  0.00     0.131 NA
HETATM    5  C   UNL     1      41.067 -11.048   0.624  1.00  0.00     0.753 A 
HETATM    6  N   UNL     1      40.639 -12.176   1.186  1.00  0.00     0.037 NA
HETATM    7  N   UNL     1      42.984 -10.879   3.456  1.00  0.00    -0.214 N 
HETATM    8  C   UNL     1      43.217 -11.959   4.410  1.00  0.00     0.135 C 
HETATM    9  C   UNL     1      41.912 -12.743   4.648  1.00  0.00     0.063 C 
HETATM   10  H   UNL     1      43.731 -10.197   3.353  1.00  0.00     0.178 HD
ENDROOT
BRANCH   1  11
HETATM   11  C   UNL     1      41.947 -14.536   2.844  1.00  0.00     0.001 A 
HETATM   12  C   UNL     1      41.481 -15.766   3.338  1.00  0.00     0.076 A 
HETATM   13  C   UNL     1      42.094 -16.970   2.974  1.00  0.00     0.037 A 
HETATM   14  C   UNL     1      43.162 -16.966   2.079  1.00  0.00     0.003 A 
HETATM   15  C   UNL     1      43.622 -15.760   1.557  1.00  0.00     0.001 A 
HETATM   16  C   UNL     1      43.024 -14.556   1.938  1.00  0.00     0.012 A 
BRANCH  12  17
HETATM   17  O   UNL     1      40.451 -15.762   4.243  1.00  0.00    -0.355 OA
HETATM   18  C   UNL     1      40.856 -16.318   5.496  1.00  0.00     0.210 C 
ENDBRANCH  12  17
ENDBRANCH   1  11
BRANCH   8  19
HETATM   19  C   UNL     1      43.762 -11.400   5.714  1.00  0.00    -0.035 A 
HETATM   20  C   UNL     1      45.126 -11.486   6.044  1.00  0.00     0.010 A 
HETATM   21  C   UNL     1      45.604 -10.961   7.247  1.00  0.00     0.019 A 
HETATM   22  C   UNL     1      44.724 -10.333   8.126  1.00  0.00     0.011 A 
HETATM   23 BR   UNL     1      45.371  -9.624   9.755  1.00  0.00    -0.051 Br
HETATM   24  C   UNL     1      43.373 -10.223   7.811  1.00  0.00     0.019 A 
HETATM   25  C   UNL     1      42.894 -10.752   6.609  1.00  0.00     0.010 A 
ENDBRANCH   8  19
BRANCH   5  26
HETATM   26  N   UNL     1      40.659 -10.568  -0.547  1.00  0.00    -0.229 N 
HETATM   27  H   UNL     1      39.850  -9.964  -0.535  1.00  0.00     0.174 HD
HETATM   28  H   UNL     1      41.378 -10.311  -1.209  1.00  0.00     0.174 HD
ENDBRANCH   5  26
TORSDOF 4
ENDMDL
MODEL 2
REMARK VINA RESULT:      -7.9      4.308      5.935
REMARK  4 active torsions:
REMARK  status: ('A' for Active; 'I' for Inactive)
REMARK    1  A    between atoms: O_2  and  C_3 
REMARK    2  A    between atoms: C_4  and  C_5 
REMARK    3  A    between atoms: C_9  and  N_10 
REMARK    4  A    between atoms: C_13  and  C_14 
ROOT
HETATM    1  C   UNL     1      39.439 -13.670   0.673  1.00  0.00     0.167 C 
HETATM    2  N   UNL     1      39.290 -12.660   1.713  1.00  0.00    -0.074 N 
HETATM    3  C   UNL     1      40.047 -12.602   2.852  1.00  0.00     0.736 A 
HETATM    4  N   UNL     1      39.685 -11.555   3.546  1.00  0.00     0.131 NA
HETATM    5  C   UNL     1      38.665 -11.032   2.805  1.00  0.00     0.753 A 
HETATM    6  N   UNL     1      38.392 -11.661   1.665  1.00  0.00     0.037 NA
HETATM    7  N   UNL     1      40.987 -13.529   3.117  1.00  0.00    -0.214 N 
HETATM    8  C   UNL     1      41.424 -14.442   2.065  1.00  0.00     0.135 C 
HETATM    9  C   UNL     1      40.217 -14.885   1.216  1.00  0.00     0.063 C 
HETATM   10  H   UNL     1      41.671 -13.307   3.836  1.00  0.00     0.178 HD
ENDROOT
BRANCH   1  11
HETATM   11  C   UNL     1      40.068 -13.108  -0.598  1.00  0.00     0.001 A 
HETATM   12  C   UNL     1      39.860 -13.757  -1.827  1.00  0.00     0.076 A 
HETATM   13  C   UNL     1      40.479 -13.306  -2.997  1.00  0.00     0.037 A 
HETATM   14  C   UNL     1      41.291 -12.174  -2.964  1.00  0.00     0.003 A 
HETATM   15  C   UNL     1      41.490 -11.500  -1.763  1.00  0.00     0.001 A 
HETATM   16  C   UNL     1      40.889 -11.964  -0.590  1.00  0.00     0.012 A 
BRANCH  12  17
HETATM   17  O   UNL     1      39.086 -14.889  -1.848  1.00  0.00    -0.355 OA
HETATM   18  C   UNL     1      38.377 -15.012  -3.084  1.00  0.00     0.210 C 
ENDBRANCH  12  17
ENDBRANCH   1  11
BRANCH   8  19
HETATM   19  C   UNL     1      42.134 -15.641   2.670  1.00  0.00    -0.035 A 
HETATM   20  C   UNL     1      42.812 -16.580   1.873  1.00  0.00     0.010 A 
HETATM   21  C   UNL     1      43.461 -17.673   2.453  1.00  0.00     0.019 A 
HETATM   22  C   UNL     1      43.449 -17.830   3.837  1.00  0.00     0.011 A 
HETATM   23 BR   UNL     1      44.326 -19.309   4.622  1.00  0.00    -0.051 Br
HETATM   24  C   UNL     1      42.797 -16.903   4.645  1.00  0.00     0.019 A 
HETATM   25  C   UNL     1      42.144 -15.812   4.065  1.00  0.00     0.010 A 
ENDBRANCH   8  19
BRANCH   5  26
HETATM   26  N   UNL     1      38.055  -9.936   3.247  1.00  0.00    -0.229 N 
HETATM   27  H   UNL     1      37.046  -9.924   3.194  1.00  0.00     0.174 HD
HETATM   28  H   UNL     1      38.448  -9.494   4.066  1.00  0.00     0.174 HD
ENDBRANCH   5  26
TORSDOF 4
ENDMDL
MODEL 3
REMARK VINA RESULT:      -7.8      1.805      2.246
REMARK  4 active torsions:
REMARK  status: ('A' for Active; 'I' for Inactive)
REMARK    1  A    between atoms: O_2  and  C_3 
REMARK    2  A    between atoms: C_4  and  C_5 
REMARK    3  A    between atoms: C_9  and  N_10 
REMARK    4  A    between atoms: C_13  and  C_14 
ROOT
HETATM    1  C   UNL     1      41.394 -15.092   4.637  1.00  0.00     0.167 C 
HETATM    2  N   UNL     1      40.949 -14.354   3.461  1.00  0.00    -0.074 N 
HETATM    3  C   UNL     1      41.397 -13.109   3.112  1.00  0.00     0.736 A 
HETATM    4  N   UNL     1      40.830 -12.756   1.988  1.00  0.00     0.131 NA
HETATM    5  C   UNL     1      40.004 -13.808   1.717  1.00  0.00     0.753 A 
HETATM    6  N   UNL     1      40.049 -14.821   2.579  1.00  0.00     0.037 NA
HETATM    7  N   UNL     1      42.281 -12.441   3.879  1.00  0.00    -0.214 N 
HETATM    8  C   UNL     1      43.003 -13.144   4.934  1.00  0.00     0.135 C 
HETATM    9  C   UNL     1      42.064 -14.138   5.645  1.00  0.00     0.063 C 
HETATM   10  H   UNL     1      42.755 -11.646   3.458  1.00  0.00     0.178 HD
ENDROOT
BRANCH   1  11
HETATM   11  C   UNL     1      42.295 -16.270   4.277  1.00  0.00     0.001 A 
HETATM   12  C   UNL     1      42.800 -17.099   5.293  1.00  0.00     0.076 A 
HETATM   13  C   UNL     1      43.683 -18.144   5.002  1.00  0.00     0.037 A 
HETATM   14  C   UNL     1      44.047 -18.401   3.682  1.00  0.00     0.003 A 
HETATM   15  C   UNL     1      43.537 -17.609   2.657  1.00  0.00     0.001 A 
HETATM   16  C   UNL     1      42.673 -16.551   2.951  1.00  0.00     0.012 A 
BRANCH  12  17
HETATM   17  O   UNL     1      42.463 -16.822   6.594  1.00  0.00    -0.355 OA
HETATM   18  C   UNL     1      43.595 -16.936   7.460  1.00  0.00     0.210 C 
ENDBRANCH  12  17
ENDBRANCH   1  11
BRANCH   8  19
HETATM   19  C   UNL     1      43.591 -12.149   5.922  1.00  0.00    -0.035 A 
HETATM   20  C   UNL     1      44.919 -12.250   6.372  1.00  0.00     0.010 A 
HETATM   21  C   UNL     1      45.439 -11.321   7.277  1.00  0.00     0.019 A 
HETATM   22  C   UNL     1      44.639 -10.275   7.730  1.00  0.00     0.011 A 
HETATM   23 BR   UNL     1      45.341  -9.019   8.956  1.00  0.00    -0.051 Br
HETATM   24  C   UNL     1      43.327 -10.148   7.284  1.00  0.00     0.019 A 
HETATM   25  C   UNL     1      42.805 -11.080   6.382  1.00  0.00     0.010 A 
ENDBRANCH   8  19
BRANCH   5  26
HETATM   26  N   UNL     1      39.257 -13.764   0.618  1.00  0.00    -0.229 N 
HETATM   27  H   UNL     1      39.379 -14.516  -0.046  1.00  0.00     0.174 HD
HETATM   28  H   UNL     1      38.308 -13.433   0.724  1.00  0.00     0.174 HD
ENDBRANCH   5  26
TORSDOF 4
ENDMDL
MODEL 4
REMARK VINA RESULT:      -7.7      3.305      5.967
REMARK  4 active torsions:
REMARK  status: ('A' for Active; 'I' for Inactive)
REMARK    1  A    between atoms: O_2  and  C_3 
REMARK    2  A    between atoms: C_4  and  C_5 
REMARK    3  A    between atoms: C_9  and  N_10 
REMARK    4  A    between atoms: C_13  and  C_14 
ROOT
HETATM    1  C   UNL     1      42.263 -12.975   2.160  1.00  0.00     0.167 C 
HETATM    2  N   UNL     1      41.423 -13.310   1.017  1.00  0.00    -0.074 N 
HETATM    3  C   UNL     1      40.949 -14.565   0.743  1.00  0.00     0.736 A 
HETATM    4  N   UNL     1      40.199 -14.509  -0.325  1.00  0.00     0.131 NA
HETATM    5  C   UNL     1      40.288 -13.199  -0.696  1.00  0.00     0.753 A 
HETATM    6  N   UNL     1      41.012 -12.417   0.100  1.00  0.00     0.037 NA
HETATM    7  N   UNL     1      41.270 -15.620   1.519  1.00  0.00    -0.214 N 
HETATM    8  C   UNL     1      41.881 -15.401   2.826  1.00  0.00     0.135 C 
HETATM    9  C   UNL     1      42.902 -14.250   2.745  1.00  0.00     0.063 C 
HETATM   10  H   UNL     1      40.707 -16.460   1.417  1.00  0.00     0.178 HD
ENDROOT
BRANCH   1  11
HETATM   11  C   UNL     1      41.511 -12.173   3.218  1.00  0.00     0.001 A 
HETATM   12  C   UNL     1      42.204 -11.248   4.016  1.00  0.00     0.076 A 
HETATM   13  C   UNL     1      41.557 -10.549   5.040  1.00  0.00     0.037 A 
HETATM   14  C   UNL     1      40.193 -10.737   5.259  1.00  0.00     0.003 A 
HETATM   15  C   UNL     1      39.482 -11.629   4.462  1.00  0.00     0.001 A 
HETATM   16  C   UNL     1      40.134 -12.344   3.454  1.00  0.00     0.012 A 
BRANCH  12  17
HETATM   17  O   UNL     1      43.552 -11.090   3.818  1.00  0.00    -0.355 OA
HETATM   18  C   UNL     1      44.297 -11.464   4.980  1.00  0.00     0.210 C 
ENDBRANCH  12  17
ENDBRANCH   1  11
BRANCH   8  19
HETATM   19  C   UNL     1      42.538 -16.679   3.320  1.00  0.00    -0.035 A 
HETATM   20  C   UNL     1      42.903 -17.712   2.438  1.00  0.00     0.010 A 
HETATM   21  C   UNL     1      43.511 -18.876   2.915  1.00  0.00     0.019 A 
HETATM   22  C   UNL     1      43.770 -19.013   4.277  1.00  0.00     0.011 A 
HETATM   23 BR   UNL     1      44.590 -20.589   4.922  1.00  0.00    -0.051 Br
HETATM   24  C   UNL     1      43.432 -17.995   5.164  1.00  0.00     0.019 A 
HETATM   25  C   UNL     1      42.820 -16.832   4.687  1.00  0.00     0.010 A 
ENDBRANCH   8  19
BRANCH   5  26
HETATM   26  N   UNL     1      39.629 -12.798  -1.779  1.00  0.00    -0.229 N 
HETATM   27  H   UNL     1      38.800 -13.319  -2.027  1.00  0.00     0.174 HD
HETATM   28  H   UNL     1      39.573 -11.801  -1.936  1.00  0.00     0.174 HD
ENDBRANCH   5  26
TORSDOF 4
ENDMDL
MODEL 5
REMARK VINA RESULT:      -7.6      4.361      7.018
REMARK  4 active torsions:
REMARK  status: ('A' for Active; 'I' for Inactive)
REMARK    1  A    between atoms: O_2  and  C_3 
REMARK    2  A    between atoms: C_4  and  C_5 
REMARK    3  A    between atoms: C_9  and  N_10 
REMARK    4  A    between atoms: C_13  and  C_14 
ROOT
HETATM    1  C   UNL     1      41.559 -15.028   4.248  1.00  0.00     0.167 C 
HETATM    2  N   UNL     1      42.319 -16.147   3.704  1.00  0.00    -0.074 N 
HETATM    3  C   UNL     1      42.484 -16.396   2.368  1.00  0.00     0.736 A 
HETATM    4  N   UNL     1      43.250 -17.445   2.226  1.00  0.00     0.131 NA
HETATM    5  C   UNL     1      43.487 -17.830   3.514  1.00  0.00     0.753 A 
HETATM    6  N   UNL     1      42.953 -17.061   4.459  1.00  0.00     0.037 NA
HETATM    7  N   UNL     1      41.903 -15.619   1.433  1.00  0.00    -0.214 N 
HETATM    8  C   UNL     1      41.333 -14.330   1.811  1.00  0.00     0.135 C 
HETATM    9  C   UNL     1      40.620 -14.447   3.172  1.00  0.00     0.063 C 
HETATM   10  H   UNL     1      42.250 -15.699   0.480  1.00  0.00     0.178 HD
ENDROOT
BRANCH   1  11
HETATM   11  C   UNL     1      42.457 -13.959   4.862  1.00  0.00     0.001 A 
HETATM   12  C   UNL     1      42.682 -13.948   6.249  1.00  0.00     0.076 A 
HETATM   13  C   UNL     1      43.443 -12.940   6.850  1.00  0.00     0.037 A 
HETATM   14  C   UNL     1      44.026 -11.946   6.067  1.00  0.00     0.003 A 
HETATM   15  C   UNL     1      43.838 -11.953   4.688  1.00  0.00     0.001 A 
HETATM   16  C   UNL     1      43.058 -12.947   4.091  1.00  0.00     0.012 A 
BRANCH  12  17
HETATM   17  O   UNL     1      42.080 -14.910   7.019  1.00  0.00    -0.355 OA
HETATM   18  C   UNL     1      43.030 -15.577   7.854  1.00  0.00     0.210 C 
ENDBRANCH  12  17
ENDBRANCH   1  11
BRANCH   8  19
HETATM   19  C   UNL     1      40.377 -13.841   0.735  1.00  0.00    -0.035 A 
HETATM   20  C   UNL     1      40.067 -14.624  -0.391  1.00  0.00     0.010 A 
HETATM   21  C   UNL     1      39.182 -14.156  -1.365  1.00  0.00     0.019 A 
HETATM   22  C   UNL     1      38.589 -12.904  -1.215  1.00  0.00     0.011 A 
HETATM   23 BR   UNL     1      37.392 -12.269  -2.533  1.00  0.00    -0.051 Br
HETATM   24  C   UNL     1      38.869 -12.121  -0.099  1.00  0.00     0.019 A 
HETATM   25  C   UNL     1      39.759 -12.588   0.873  1.00  0.00     0.010 A 
ENDBRANCH   8  19
BRANCH   5  26
HETATM   26  N   UNL     1      44.247 -18.900   3.729  1.00  0.00    -0.229 N 
HETATM   27  H   UNL     1      43.832 -19.655   4.256  1.00  0.00     0.174 HD
HETATM   28  H   UNL     1      44.856 -19.185   2.975  1.00  0.00     0.174 HD
ENDBRANCH   5  26
TORSDOF 4
ENDMDL
MODEL 6
REMARK VINA RESULT:      -7.4      4.795      6.753
REMARK  4 active torsions:
REMARK  status: ('A' for Active; 'I' for Inactive)
REMARK    1  A    between atoms: O_2  and  C_3 
REMARK    2  A    between atoms: C_4  and  C_5 
REMARK    3  A    between atoms: C_9  and  N_10 
REMARK    4  A    between atoms: C_13  and  C_14 
ROOT
HETATM    1  C   UNL     1      40.494 -12.494  -0.475  1.00  0.00     0.167 C 
HETATM    2  N   UNL     1      39.757 -13.391  -1.356  1.00  0.00    -0.074 N 
HETATM    3  C   UNL     1      39.463 -14.696  -1.066  1.00  0.00     0.736 A 
HETATM    4  N   UNL     1      38.760 -15.199  -2.046  1.00  0.00     0.131 NA
HETATM    5  C   UNL     1      38.694 -14.167  -2.938  1.00  0.00     0.753 A 
HETATM    6  N   UNL     1      39.274 -13.032  -2.559  1.00  0.00     0.037 NA
HETATM    7  N   UNL     1      39.883 -15.271   0.078  1.00  0.00    -0.214 N 
HETATM    8  C   UNL     1      40.401 -14.441   1.161  1.00  0.00     0.135 C 
HETATM    9  C   UNL     1      41.267 -13.303   0.586  1.00  0.00     0.063 C 
HETATM   10  H   UNL     1      39.439 -16.144   0.350  1.00  0.00     0.178 HD
ENDROOT
BRANCH   1  11
HETATM   11  C   UNL     1      39.597 -11.432   0.155  1.00  0.00     0.001 A 
HETATM   12  C   UNL     1      40.132 -10.178   0.495  1.00  0.00     0.076 A 
HETATM   13  C   UNL     1      39.354  -9.210   1.137  1.00  0.00     0.037 A 
HETATM   14  C   UNL     1      38.013  -9.466   1.416  1.00  0.00     0.003 A 
HETATM   15  C   UNL     1      37.456 -10.692   1.064  1.00  0.00     0.001 A 
HETATM   16  C   UNL     1      38.240 -11.668   0.444  1.00  0.00     0.012 A 
BRANCH  12  17
HETATM   17  O   UNL     1      41.461  -9.942   0.246  1.00  0.00    -0.355 OA
HETATM   18  C   UNL     1      41.633  -8.904  -0.722  1.00  0.00     0.210 C 
ENDBRANCH  12  17
ENDBRANCH   1  11
BRANCH   8  19
HETATM   19  C   UNL     1      41.197 -15.289   2.140  1.00  0.00    -0.035 A 
HETATM   20  C   UNL     1      40.728 -15.557   3.438  1.00  0.00     0.010 A 
HETATM   21  C   UNL     1      41.475 -16.343   4.318  1.00  0.00     0.019 A 
HETATM   22  C   UNL     1      42.692 -16.879   3.904  1.00  0.00     0.011 A 
HETATM   23 BR   UNL     1      43.705 -17.941   5.096  1.00  0.00    -0.051 Br
HETATM   24  C   UNL     1      43.167 -16.639   2.618  1.00  0.00     0.019 A 
HETATM   25  C   UNL     1      42.421 -15.848   1.738  1.00  0.00     0.010 A 
ENDBRANCH   8  19
BRANCH   5  26
HETATM   26  N   UNL     1      38.038 -14.354  -4.079  1.00  0.00    -0.229 N 
HETATM   27  H   UNL     1      38.284 -15.173  -4.617  1.00  0.00     0.174 HD
HETATM   28  H   UNL     1      37.056 -14.114  -4.085  1.00  0.00     0.174 HD
ENDBRANCH   5  26
TORSDOF 4
ENDMDL
MODEL 7
REMARK VINA RESULT:      -7.4     11.231     14.833
REMARK  4 active torsions:
REMARK  status: ('A' for Active; 'I' for Inactive)
REMARK    1  A    between atoms: O_2  and  C_3 
REMARK    2  A    between atoms: C_4  and  C_5 
REMARK    3  A    between atoms: C_9  and  N_10 
REMARK    4  A    between atoms: C_13  and  C_14 
ROOT
HETATM    1  C   UNL     1      41.416  -6.366  17.434  1.00  0.00     0.167 C 
HETATM    2  N   UNL     1      40.273  -5.611  16.936  1.00  0.00    -0.074 N 
HETATM    3  C   UNL     1      39.682  -5.811  15.718  1.00  0.00     0.736 A 
HETATM    4  N   UNL     1      38.664  -5.000  15.604  1.00  0.00     0.131 NA
HETATM    5  C   UNL     1      38.707  -4.287  16.767  1.00  0.00     0.753 A 
HETATM    6  N   UNL     1      39.663  -4.632  17.626  1.00  0.00     0.037 NA
HETATM    7  N   UNL     1      40.157  -6.726  14.850  1.00  0.00    -0.214 N 
HETATM    8  C   UNL     1      41.121  -7.724  15.302  1.00  0.00     0.135 C 
HETATM    9  C   UNL     1      42.132  -7.080  16.270  1.00  0.00     0.063 C 
HETATM   10  H   UNL     1      39.549  -6.999  14.082  1.00  0.00     0.178 HD
ENDROOT
BRANCH   1  11
HETATM   11  C   UNL     1      41.032  -7.334  18.549  1.00  0.00     0.001 A 
HETATM   12  C   UNL     1      41.999  -7.741  19.484  1.00  0.00     0.076 A 
HETATM   13  C   UNL     1      41.695  -8.679  20.476  1.00  0.00     0.037 A 
HETATM   14  C   UNL     1      40.406  -9.199  20.573  1.00  0.00     0.003 A 
HETATM   15  C   UNL     1      39.426  -8.790  19.673  1.00  0.00     0.001 A 
HETATM   16  C   UNL     1      39.736  -7.870  18.668  1.00  0.00     0.012 A 
BRANCH  12  17
HETATM   17  O   UNL     1      43.274  -7.250  19.366  1.00  0.00    -0.355 OA
HETATM   18  C   UNL     1      43.966  -7.291  20.617  1.00  0.00     0.210 C 
ENDBRANCH  12  17
ENDBRANCH   1  11
BRANCH   8  19
HETATM   19  C   UNL     1      41.830  -8.348  14.111  1.00  0.00    -0.035 A 
HETATM   20  C   UNL     1      41.391  -9.555  13.538  1.00  0.00     0.010 A 
HETATM   21  C   UNL     1      42.056 -10.107  12.440  1.00  0.00     0.019 A 
HETATM   22  C   UNL     1      43.158  -9.451  11.897  1.00  0.00     0.011 A 
HETATM   23 BR   UNL     1      44.059 -10.199  10.413  1.00  0.00    -0.051 Br
HETATM   24  C   UNL     1      43.598  -8.247  12.439  1.00  0.00     0.019 A 
HETATM   25  C   UNL     1      42.935  -7.697  13.540  1.00  0.00     0.010 A 
ENDBRANCH   8  19
BRANCH   5  26
HETATM   26  N   UNL     1      37.790  -3.347  16.972  1.00  0.00    -0.229 N 
HETATM   27  H   UNL     1      38.128  -2.420  17.191  1.00  0.00     0.174 HD
HETATM   28  H   UNL     1      36.967  -3.377  16.385  1.00  0.00     0.174 HD
ENDBRANCH   5  26
TORSDOF 4
ENDMDL
MODEL 8
REMARK VINA RESULT:      -7.2     11.501     15.101
REMARK  4 active torsions:
REMARK  status: ('A' for Active; 'I' for Inactive)
REMARK    1  A    between atoms: O_2  and  C_3 
REMARK    2  A    between atoms: C_4  and  C_5 
REMARK    3  A    between atoms: C_9  and  N_10 
REMARK    4  A    between atoms: C_13  and  C_14 
ROOT
HETATM    1  C   UNL     1      40.710  -5.687  17.189  1.00  0.00     0.167 C 
HETATM    2  N   UNL     1      39.506  -5.160  16.559  1.00  0.00    -0.074 N 
HETATM    3  C   UNL     1      38.980  -5.622  15.383  1.00  0.00     0.736 A 
HETATM    4  N   UNL     1      37.882  -4.962  15.124  1.00  0.00     0.131 NA
HETATM    5  C   UNL     1      37.808  -4.070  16.155  1.00  0.00     0.753 A 
HETATM    6  N   UNL     1      38.769  -4.158  17.070  1.00  0.00     0.037 NA
HETATM    7  N   UNL     1      39.582  -6.604  14.684  1.00  0.00    -0.214 N 
HETATM    8  C   UNL     1      40.637  -7.397  15.306  1.00  0.00     0.135 C 
HETATM    9  C   UNL     1      41.538  -6.492  16.168  1.00  0.00     0.063 C 
HETATM   10  H   UNL     1      39.032  -7.067  13.964  1.00  0.00     0.178 HD
ENDROOT
BRANCH   1  11
HETATM   11  C   UNL     1      40.402  -6.498  18.444  1.00  0.00     0.001 A 
HETATM   12  C   UNL     1      40.782  -6.007  19.704  1.00  0.00     0.076 A 
HETATM   13  C   UNL     1      40.575  -6.759  20.866  1.00  0.00     0.037 A 
HETATM   14  C   UNL     1      39.950  -8.001  20.790  1.00  0.00     0.003 A 
HETATM   15  C   UNL     1      39.542  -8.496  19.554  1.00  0.00     0.001 A 
HETATM   16  C   UNL     1      39.769  -7.754  18.392  1.00  0.00     0.012 A 
BRANCH  12  17
HETATM   17  O   UNL     1      41.425  -4.797  19.771  1.00  0.00    -0.355 OA
HETATM   18  C   UNL     1      42.760  -4.943  20.263  1.00  0.00     0.210 C 
ENDBRANCH  12  17
ENDBRANCH   1  11
BRANCH   8  19
HETATM   19  C   UNL     1      41.448  -8.120  14.244  1.00  0.00    -0.035 A 
HETATM   20  C   UNL     1      41.030  -9.348  13.701  1.00  0.00     0.010 A 
HETATM   21  C   UNL     1      41.790  -9.992  12.722  1.00  0.00     0.019 A 
HETATM   22  C   UNL     1      42.969  -9.407  12.267  1.00  0.00     0.011 A 
HETATM   23 BR   UNL     1      43.999 -10.279  10.943  1.00  0.00    -0.051 Br
HETATM   24  C   UNL     1      43.392  -8.184  12.778  1.00  0.00     0.019 A 
HETATM   25  C   UNL     1      42.634  -7.542  13.762  1.00  0.00     0.010 A 
ENDBRANCH   8  19
BRANCH   5  26
HETATM   26  N   UNL     1      36.785  -3.222  16.190  1.00  0.00    -0.229 N 
HETATM   27  H   UNL     1      35.923  -3.564  16.591  1.00  0.00     0.174 HD
HETATM   28  H   UNL     1      37.001  -2.256  16.393  1.00  0.00     0.174 HD
ENDBRANCH   5  26
TORSDOF 4
ENDMDL
MODEL 9
REMARK VINA RESULT:      -7.1      3.937      6.265
REMARK  4 active torsions:
REMARK  status: ('A' for Active; 'I' for Inactive)
REMARK    1  A    between atoms: O_2  and  C_3 
REMARK    2  A    between atoms: C_4  and  C_5 
REMARK    3  A    between atoms: C_9  and  N_10 
REMARK    4  A    between atoms: C_13  and  C_14 
ROOT
HETATM    1  C   UNL     1      41.596 -12.539   5.880  1.00  0.00     0.167 C 
HETATM    2  N   UNL     1      42.687 -11.961   6.654  1.00  0.00    -0.074 N 
HETATM    3  C   UNL     1      43.873 -12.592   6.916  1.00  0.00     0.736 A 
HETATM    4  N   UNL     1      44.641 -11.783   7.596  1.00  0.00     0.131 NA
HETATM    5  C   UNL     1      43.853 -10.682   7.767  1.00  0.00     0.753 A 
HETATM    6  N   UNL     1      42.652 -10.731   7.197  1.00  0.00     0.037 NA
HETATM    7  N   UNL     1      44.106 -13.850   6.492  1.00  0.00    -0.214 N 
HETATM    8  C   UNL     1      43.225 -14.456   5.498  1.00  0.00     0.135 C 
HETATM    9  C   UNL     1      41.761 -14.069   5.784  1.00  0.00     0.063 C 
HETATM   10  H   UNL     1      45.070 -14.173   6.499  1.00  0.00     0.178 HD
ENDROOT
BRANCH   1  11
HETATM   11  C   UNL     1      41.452 -11.891   4.506  1.00  0.00     0.001 A 
HETATM   12  C   UNL     1      40.195 -11.430   4.079  1.00  0.00     0.076 A 
HETATM   13  C   UNL     1      40.017 -10.894   2.799  1.00  0.00     0.037 A 
HETATM   14  C   UNL     1      41.104 -10.777   1.936  1.00  0.00     0.003 A 
HETATM   15  C   UNL     1      42.364 -11.203   2.348  1.00  0.00     0.001 A 
HETATM   16  C   UNL     1      42.536 -11.758   3.618  1.00  0.00     0.012 A 
BRANCH  12  17
HETATM   17  O   UNL     1      39.122 -11.577   4.921  1.00  0.00    -0.355 OA
HETATM   18  C   UNL     1      38.700 -10.317   5.451  1.00  0.00     0.210 C 
ENDBRANCH  12  17
ENDBRANCH   1  11
BRANCH   8  19
HETATM   19  C   UNL     1      43.398 -15.966   5.493  1.00  0.00    -0.035 A 
HETATM   20  C   UNL     1      43.279 -16.728   6.669  1.00  0.00     0.010 A 
HETATM   21  C   UNL     1      43.438 -18.116   6.639  1.00  0.00     0.019 A 
HETATM   22  C   UNL     1      43.704 -18.755   5.431  1.00  0.00     0.011 A 
HETATM   23 BR   UNL     1      43.921 -20.633   5.390  1.00  0.00    -0.051 Br
HETATM   24  C   UNL     1      43.809 -18.021   4.253  1.00  0.00     0.019 A 
HETATM   25  C   UNL     1      43.654 -16.632   4.284  1.00  0.00     0.010 A 
ENDBRANCH   8  19
BRANCH   5  26
HETATM   26  N   UNL     1      44.344  -9.647   8.443  1.00  0.00    -0.229 N 
HETATM   27  H   UNL     1      45.083  -9.122   7.998  1.00  0.00     0.174 HD
HETATM   28  H   UNL     1      43.685  -9.097   8.976  1.00  0.00     0.174 HD
ENDBRANCH   5  26
TORSDOF 4
ENDMDL
MODEL 10
REMARK VINA RESULT:      -7.1     17.494     19.689
REMARK  4 active torsions:
REMARK  status: ('A' for Active; 'I' for Inactive)
REMARK    1  A    between atoms: O_2  and  C_3 
REMARK    2  A    between atoms: C_4  and  C_5 
REMARK    3  A    between atoms: C_9  and  N_10 
REMARK    4  A    between atoms: C_13  and  C_14 
ROOT
HETATM    1  C   UNL     1      46.028 -30.816  -0.918  1.00  0.00     0.167 C 
HETATM    2  N   UNL     1      45.990 -30.105   0.354  1.00  0.00    -0.074 N 
HETATM    3  C   UNL     1      47.096 -29.656   1.026  1.00  0.00     0.736 A 
HETATM    4  N   UNL     1      46.708 -29.028   2.105  1.00  0.00     0.131 NA
HETATM    5  C   UNL     1      45.350 -29.165   2.070  1.00  0.00     0.753 A 
HETATM    6  N   UNL     1      44.857 -29.803   1.011  1.00  0.00     0.037 NA
HETATM    7  N   UNL     1      48.339 -29.883   0.559  1.00  0.00    -0.214 N 
HETATM    8  C   UNL     1      48.527 -30.347  -0.812  1.00  0.00     0.135 C 
HETATM    9  C   UNL     1      47.441 -31.378  -1.173  1.00  0.00     0.063 C 
HETATM   10  H   UNL     1      49.094 -29.329   0.957  1.00  0.00     0.178 HD
ENDROOT
BRANCH   1  11
HETATM   11  C   UNL     1      45.535 -29.956  -2.078  1.00  0.00     0.001 A 
HETATM   12  C   UNL     1      44.692 -30.516  -3.052  1.00  0.00     0.076 A 
HETATM   13  C   UNL     1      44.279 -29.774  -4.164  1.00  0.00     0.037 A 
HETATM   14  C   UNL     1      44.675 -28.445  -4.301  1.00  0.00     0.003 A 
HETATM   15  C   UNL     1      45.489 -27.863  -3.334  1.00  0.00     0.001 A 
HETATM   16  C   UNL     1      45.919 -28.611  -2.235  1.00  0.00     0.012 A 
BRANCH  12  17
HETATM   17  O   UNL     1      44.331 -31.834  -2.930  1.00  0.00    -0.355 OA
HETATM   18  C   UNL     1      44.218 -32.464  -4.208  1.00  0.00     0.210 C 
ENDBRANCH  12  17
ENDBRANCH   1  11
BRANCH   8  19
HETATM   19  C   UNL     1      49.917 -30.938  -0.981  1.00  0.00    -0.035 A 
HETATM   20  C   UNL     1      50.746 -30.584  -2.060  1.00  0.00     0.010 A 
HETATM   21  C   UNL     1      52.022 -31.138  -2.192  1.00  0.00     0.019 A 
HETATM   22  C   UNL     1      52.485 -32.042  -1.238  1.00  0.00     0.011 A 
HETATM   23 BR   UNL     1      54.211 -32.793  -1.418  1.00  0.00    -0.051 Br
HETATM   24  C   UNL     1      51.687 -32.393  -0.154  1.00  0.00     0.019 A 
HETATM   25  C   UNL     1      50.408 -31.842  -0.024  1.00  0.00     0.010 A 
ENDBRANCH   8  19
BRANCH   5  26
HETATM   26  N   UNL     1      44.632 -28.632   3.053  1.00  0.00    -0.229 N 
HETATM   27  H   UNL     1      45.013 -28.703   3.986  1.00  0.00     0.174 HD
HETATM   28  H   UNL     1      44.151 -27.767   2.849  1.00  0.00     0.174 HD
ENDBRANCH   5  26
TORSDOF 4
ENDMDL
