MODEL 1
REMARK VINA RESULT:     -10.0      0.000      0.000
REMARK  4 active torsions:
REMARK  status: ('A' for Active; 'I' for Inactive)
REMARK    1  A    between atoms: C_4  and  N_5 
REMARK       I    between atoms: N_5  and  C_6 
REMARK    2  A    between atoms: C_6  and  C_7 
REMARK    3  A    between atoms: C_7  and  N_8 
REMARK    4  A    between atoms: C_12  and  C_13 
ROOT
HETATM    1  N   UNL     1      41.174 -13.973   5.482  1.00  0.00    -0.304 N 
HETATM    2  C   UNL     1      40.766 -14.251   4.185  1.00  0.00     0.261 C 
HETATM    3  O   UNL     1      39.918 -13.630   3.569  1.00  0.00    -0.267 OA
HETATM    4  C   UNL     1      41.510 -15.511   3.796  1.00  0.00     0.068 C 
HETATM    5  C   UNL     1      41.639 -15.966   2.534  1.00  0.00     0.093 C 
HETATM    6  C   UNL     1      42.505 -17.173   2.212  1.00  0.00     0.025 C 
HETATM    7  N   UNL     1      43.223 -18.174   1.945  1.00  0.00    -0.096 N 
HETATM    8  C   UNL     1      42.134 -16.015   5.041  1.00  0.00     0.008 A 
HETATM    9  C   UNL     1      41.923 -15.029   6.017  1.00  0.00     0.049 A 
HETATM   10  C   UNL     1      42.818 -17.175   5.372  1.00  0.00     0.015 A 
HETATM   11  C   UNL     1      43.298 -17.323   6.680  1.00  0.00     0.001 A 
HETATM   12  C   UNL     1      43.089 -16.324   7.641  1.00  0.00     0.002 A 
HETATM   13  C   UNL     1      42.392 -15.161   7.314  1.00  0.00     0.030 A 
ENDROOT
BRANCH   5  14
HETATM   14  C   UNL     1      41.118 -15.271   1.405  1.00  0.00     0.149 A 
HETATM   15  N   UNL     1      40.090 -15.544   0.627  1.00  0.00    -0.228 NA
HETATM   16  C   UNL     1      39.982 -14.492  -0.249  1.00  0.00     0.086 A 
HETATM   17  C   UNL     1      40.945 -13.528   0.019  1.00  0.00     0.062 A 
HETATM   18  C   UNL     1      39.073 -14.278  -1.293  1.00  0.00     0.034 A 
HETATM   19  N   UNL     1      41.662 -14.050   1.064  1.00  0.00    -0.338 N 
HETATM   20  C   UNL     1      41.052 -12.329  -0.689  1.00  0.00     0.032 A 
HETATM   21  H   UNL     1      42.444 -13.595   1.513  1.00  0.00     0.167 HD
HETATM   22  C   UNL     1      40.130 -12.129  -1.722  1.00  0.00     0.002 A 
HETATM   23  C   UNL     1      39.159 -13.087  -2.026  1.00  0.00     0.002 A 
ENDBRANCH   5  14
BRANCH   1  24
HETATM   24  C   UNL     1      40.958 -12.697   6.124  1.00  0.00     0.235 C 
BRANCH  24  25
HETATM   25  C   UNL     1      42.116 -11.710   6.016  1.00  0.00     0.240 C 
HETATM   26  N   UNL     1      42.925 -11.695   7.138  1.00  0.00    -0.326 N 
HETATM   27  H   UNL     1      42.852 -12.496   7.766  1.00  0.00     0.169 HD
HETATM   28  O   UNL     1      42.211 -10.971   5.037  1.00  0.00    -0.271 OA
BRANCH  26  29
HETATM   29  C   UNL     1      43.812 -10.669   7.524  1.00  0.00     0.035 A 
HETATM   30  C   UNL     1      43.390  -9.436   8.033  1.00  0.00     0.036 A 
HETATM   31  C   UNL     1      44.318  -8.485   8.488  1.00  0.00    -0.060 A 
HETATM   32  C   UNL     1      43.847  -7.208   9.120  1.00  0.00     0.048 C 
HETATM   33  C   UNL     1      45.684  -8.778   8.422  1.00  0.00     0.007 A 
HETATM   34  C   UNL     1      46.114 -10.000   7.906  1.00  0.00     0.003 A 
HETATM   35  C   UNL     1      45.183 -10.944   7.468  1.00  0.00     0.029 A 
ENDBRANCH  26  29
ENDBRANCH  24  25
ENDBRANCH   1  24
TORSDOF 4
ENDMDL
MODEL 2
REMARK VINA RESULT:      -9.8      2.288      6.950
REMARK  4 active torsions:
REMARK  status: ('A' for Active; 'I' for Inactive)
REMARK    1  A    between atoms: C_4  and  N_5 
REMARK       I    between atoms: N_5  and  C_6 
REMARK    2  A    between atoms: C_6  and  C_7 
REMARK    3  A    between atoms: C_7  and  N_8 
REMARK    4  A    between atoms: C_12  and  C_13 
ROOT
HETATM    1  N   UNL     1      42.864 -15.698   2.536  1.00  0.00    -0.304 N 
HETATM    2  C   UNL     1      42.833 -14.592   3.373  1.00  0.00     0.261 C 
HETATM    3  O   UNL     1      42.726 -13.436   3.004  1.00  0.00    -0.267 OA
HETATM    4  C   UNL     1      43.066 -15.141   4.765  1.00  0.00     0.068 C 
HETATM    5  C   UNL     1      42.824 -14.465   5.906  1.00  0.00     0.093 C 
HETATM    6  C   UNL     1      42.967 -15.129   7.266  1.00  0.00     0.025 C 
HETATM    7  N   UNL     1      43.087 -15.681   8.393  1.00  0.00    -0.096 N 
HETATM    8  C   UNL     1      43.468 -16.554   4.582  1.00  0.00     0.008 A 
HETATM    9  C   UNL     1      43.297 -16.842   3.219  1.00  0.00     0.049 A 
HETATM   10  C   UNL     1      43.938 -17.539   5.438  1.00  0.00     0.015 A 
HETATM   11  C   UNL     1      44.215 -18.809   4.916  1.00  0.00     0.001 A 
HETATM   12  C   UNL     1      44.030 -19.084   3.554  1.00  0.00     0.002 A 
HETATM   13  C   UNL     1      43.567 -18.093   2.688  1.00  0.00     0.030 A 
ENDROOT
BRANCH   5  14
HETATM   14  C   UNL     1      42.269 -13.153   5.924  1.00  0.00     0.149 A 
HETATM   15  N   UNL     1      42.847 -11.978   6.066  1.00  0.00    -0.228 NA
HETATM   16  C   UNL     1      41.855 -11.041   5.913  1.00  0.00     0.086 A 
HETATM   17  C   UNL     1      40.640 -11.653   5.633  1.00  0.00     0.062 A 
HETATM   18  C   UNL     1      41.917  -9.643   5.981  1.00  0.00     0.034 A 
HETATM   19  N   UNL     1      40.925 -12.993   5.658  1.00  0.00    -0.338 N 
HETATM   20  C   UNL     1      39.460 -10.947   5.392  1.00  0.00     0.032 A 
HETATM   21  H   UNL     1      40.255 -13.730   5.486  1.00  0.00     0.167 HD
HETATM   22  C   UNL     1      39.542  -9.551   5.455  1.00  0.00     0.002 A 
HETATM   23  C   UNL     1      40.747  -8.907   5.750  1.00  0.00     0.002 A 
ENDBRANCH   5  14
BRANCH   1  24
HETATM   24  C   UNL     1      42.377 -15.675   1.176  1.00  0.00     0.235 C 
BRANCH  24  25
HETATM   25  C   UNL     1      40.963 -15.134   1.000  1.00  0.00     0.240 C 
HETATM   26  N   UNL     1      40.930 -13.858   0.465  1.00  0.00    -0.326 N 
HETATM   27  H   UNL     1      41.779 -13.535  -0.002  1.00  0.00     0.169 HD
HETATM   28  O   UNL     1      39.996 -15.785   1.393  1.00  0.00    -0.271 OA
BRANCH  26  29
HETATM   29  C   UNL     1      39.860 -12.942   0.534  1.00  0.00     0.035 A 
HETATM   30  C   UNL     1      39.157 -12.493  -0.589  1.00  0.00     0.036 A 
HETATM   31  C   UNL     1      38.041 -11.650  -0.455  1.00  0.00    -0.060 A 
HETATM   32  C   UNL     1      37.240 -11.255  -1.661  1.00  0.00     0.048 C 
HETATM   33  C   UNL     1      37.635 -11.254   0.823  1.00  0.00     0.007 A 
HETATM   34  C   UNL     1      38.337 -11.687   1.948  1.00  0.00     0.003 A 
HETATM   35  C   UNL     1      39.438 -12.535   1.804  1.00  0.00     0.029 A 
ENDBRANCH  26  29
ENDBRANCH  24  25
ENDBRANCH   1  24
TORSDOF 4
ENDMDL
MODEL 3
REMARK VINA RESULT:      -9.6      2.192      7.331
REMARK  4 active torsions:
REMARK  status: ('A' for Active; 'I' for Inactive)
REMARK    1  A    between atoms: C_4  and  N_5 
REMARK       I    between atoms: N_5  and  C_6 
REMARK    2  A    between atoms: C_6  and  C_7 
REMARK    3  A    between atoms: C_7  and  N_8 
REMARK    4  A    between atoms: C_12  and  C_13 
ROOT
HETATM    1  N   UNL     1      40.177 -14.251   0.817  1.00  0.00    -0.304 N 
HETATM    2  C   UNL     1      40.452 -13.213   1.695  1.00  0.00     0.261 C 
HETATM    3  O   UNL     1      40.410 -13.292   2.910  1.00  0.00    -0.267 OA
HETATM    4  C   UNL     1      40.688 -12.002   0.816  1.00  0.00     0.068 C 
HETATM    5  C   UNL     1      41.268 -10.857   1.229  1.00  0.00     0.093 C 
HETATM    6  C   UNL     1      41.581  -9.733   0.255  1.00  0.00     0.025 C 
HETATM    7  N   UNL     1      41.841  -8.800  -0.552  1.00  0.00    -0.096 N 
HETATM    8  C   UNL     1      40.278 -12.404  -0.548  1.00  0.00     0.008 A 
HETATM    9  C   UNL     1      40.009 -13.781  -0.492  1.00  0.00     0.049 A 
HETATM   10  C   UNL     1      40.128 -11.724  -1.747  1.00  0.00     0.015 A 
HETATM   11  C   UNL     1      39.724 -12.440  -2.882  1.00  0.00     0.001 A 
HETATM   12  C   UNL     1      39.470 -13.817  -2.812  1.00  0.00     0.002 A 
HETATM   13  C   UNL     1      39.610 -14.502  -1.605  1.00  0.00     0.030 A 
ENDROOT
BRANCH   5  14
HETATM   14  C   UNL     1      41.772 -10.678   2.549  1.00  0.00     0.149 A 
HETATM   15  N   UNL     1      41.263 -10.041   3.584  1.00  0.00    -0.228 NA
HETATM   16  C   UNL     1      42.121 -10.265   4.632  1.00  0.00     0.086 A 
HETATM   17  C   UNL     1      43.167 -11.091   4.243  1.00  0.00     0.062 A 
HETATM   18  C   UNL     1      42.065  -9.810   5.956  1.00  0.00     0.034 A 
HETATM   19  N   UNL     1      42.931 -11.330   2.915  1.00  0.00    -0.338 N 
HETATM   20  C   UNL     1      44.174 -11.520   5.112  1.00  0.00     0.032 A 
HETATM   21  H   UNL     1      43.509 -11.907   2.320  1.00  0.00     0.167 HD
HETATM   22  C   UNL     1      44.096 -11.062   6.433  1.00  0.00     0.002 A 
HETATM   23  C   UNL     1      43.064 -10.217   6.850  1.00  0.00     0.002 A 
ENDBRANCH   5  14
BRANCH   1  24
HETATM   24  C   UNL     1      40.202 -15.643   1.204  1.00  0.00     0.235 C 
BRANCH  24  25
HETATM   25  C   UNL     1      41.470 -16.097   1.919  1.00  0.00     0.240 C 
HETATM   26  N   UNL     1      41.282 -16.325   3.271  1.00  0.00    -0.326 N 
HETATM   27  H   UNL     1      40.317 -16.444   3.585  1.00  0.00     0.169 HD
HETATM   28  O   UNL     1      42.539 -16.152   1.312  1.00  0.00    -0.271 OA
BRANCH  26  29
HETATM   29  C   UNL     1      42.279 -16.369   4.266  1.00  0.00     0.035 A 
HETATM   30  C   UNL     1      42.414 -15.400   5.266  1.00  0.00     0.036 A 
HETATM   31  C   UNL     1      43.369 -15.541   6.286  1.00  0.00    -0.060 A 
HETATM   32  C   UNL     1      43.436 -14.543   7.406  1.00  0.00     0.048 C 
HETATM   33  C   UNL     1      44.199 -16.667   6.294  1.00  0.00     0.007 A 
HETATM   34  C   UNL     1      44.080 -17.632   5.294  1.00  0.00     0.003 A 
HETATM   35  C   UNL     1      43.118 -17.488   4.291  1.00  0.00     0.029 A 
ENDBRANCH  26  29
ENDBRANCH  24  25
ENDBRANCH   1  24
TORSDOF 4
ENDMDL
MODEL 4
REMARK VINA RESULT:      -9.6      2.991      8.525
REMARK  4 active torsions:
REMARK  status: ('A' for Active; 'I' for Inactive)
REMARK    1  A    between atoms: C_4  and  N_5 
REMARK       I    between atoms: N_5  and  C_6 
REMARK    2  A    between atoms: C_6  and  C_7 
REMARK    3  A    between atoms: C_7  and  N_8 
REMARK    4  A    between atoms: C_12  and  C_13 
ROOT
HETATM    1  N   UNL     1      41.595 -13.649   4.138  1.00  0.00    -0.304 N 
HETATM    2  C   UNL     1      40.892 -12.885   5.058  1.00  0.00     0.261 C 
HETATM    3  O   UNL     1      40.951 -13.014   6.269  1.00  0.00    -0.267 OA
HETATM    4  C   UNL     1      40.000 -11.985   4.229  1.00  0.00     0.068 C 
HETATM    5  C   UNL     1      39.370 -10.889   4.696  1.00  0.00     0.093 C 
HETATM    6  C   UNL     1      38.591  -9.969   3.770  1.00  0.00     0.025 C 
HETATM    7  N   UNL     1      37.945  -9.205   3.003  1.00  0.00    -0.096 N 
HETATM    8  C   UNL     1      40.091 -12.492   2.840  1.00  0.00     0.008 A 
HETATM    9  C   UNL     1      41.093 -13.475   2.842  1.00  0.00     0.049 A 
HETATM   10  C   UNL     1      39.425 -12.192   1.662  1.00  0.00     0.015 A 
HETATM   11  C   UNL     1      39.785 -12.875   0.493  1.00  0.00     0.001 A 
HETATM   12  C   UNL     1      40.795 -13.848   0.508  1.00  0.00     0.002 A 
HETATM   13  C   UNL     1      41.460 -14.158   1.694  1.00  0.00     0.030 A 
ENDROOT
BRANCH   5  14
HETATM   14  C   UNL     1      39.515 -10.426   6.035  1.00  0.00     0.149 A 
HETATM   15  N   UNL     1      38.720 -10.550   7.079  1.00  0.00    -0.228 NA
HETATM   16  C   UNL     1      39.393  -9.997   8.141  1.00  0.00     0.086 A 
HETATM   17  C   UNL     1      40.649  -9.553   7.750  1.00  0.00     0.062 A 
HETATM   18  C   UNL     1      39.002  -9.853   9.478  1.00  0.00     0.034 A 
HETATM   19  N   UNL     1      40.700  -9.825   6.408  1.00  0.00    -0.338 N 
HETATM   20  C   UNL     1      41.571  -8.980   8.629  1.00  0.00     0.032 A 
HETATM   21  H   UNL     1      41.489  -9.630   5.808  1.00  0.00     0.167 HD
HETATM   22  C   UNL     1      41.166  -8.852   9.963  1.00  0.00     0.002 A 
HETATM   23  C   UNL     1      39.902  -9.275  10.383  1.00  0.00     0.002 A 
ENDBRANCH   5  14
BRANCH   1  24
HETATM   24  C   UNL     1      42.776 -14.409   4.478  1.00  0.00     0.235 C 
BRANCH  24  25
HETATM   25  C   UNL     1      42.541 -15.893   4.743  1.00  0.00     0.240 C 
HETATM   26  N   UNL     1      43.661 -16.672   4.516  1.00  0.00    -0.326 N 
HETATM   27  H   UNL     1      44.558 -16.184   4.479  1.00  0.00     0.169 HD
HETATM   28  O   UNL     1      41.419 -16.299   5.045  1.00  0.00    -0.271 OA
BRANCH  26  29
HETATM   29  C   UNL     1      43.690 -18.063   4.290  1.00  0.00     0.035 A 
HETATM   30  C   UNL     1      43.575 -18.641   3.021  1.00  0.00     0.036 A 
HETATM   31  C   UNL     1      43.701 -20.028   2.843  1.00  0.00    -0.060 A 
HETATM   32  C   UNL     1      43.672 -20.622   1.465  1.00  0.00     0.048 C 
HETATM   33  C   UNL     1      43.939 -20.840   3.957  1.00  0.00     0.007 A 
HETATM   34  C   UNL     1      44.044 -20.274   5.227  1.00  0.00     0.003 A 
HETATM   35  C   UNL     1      43.929 -18.892   5.391  1.00  0.00     0.029 A 
ENDBRANCH  26  29
ENDBRANCH  24  25
ENDBRANCH   1  24
TORSDOF 4
ENDMDL
MODEL 5
REMARK VINA RESULT:      -9.6      2.068      8.510
REMARK  4 active torsions:
REMARK  status: ('A' for Active; 'I' for Inactive)
REMARK    1  A    between atoms: C_4  and  N_5 
REMARK       I    between atoms: N_5  and  C_6 
REMARK    2  A    between atoms: C_6  and  C_7 
REMARK    3  A    between atoms: C_7  and  N_8 
REMARK    4  A    between atoms: C_12  and  C_13 
ROOT
HETATM    1  N   UNL     1      41.302 -12.394   3.391  1.00  0.00    -0.304 N 
HETATM    2  C   UNL     1      42.369 -12.132   4.238  1.00  0.00     0.261 C 
HETATM    3  O   UNL     1      42.903 -11.045   4.378  1.00  0.00    -0.267 OA
HETATM    4  C   UNL     1      42.753 -13.475   4.821  1.00  0.00     0.068 C 
HETATM    5  C   UNL     1      43.539 -13.645   5.904  1.00  0.00     0.093 C 
HETATM    6  C   UNL     1      43.778 -15.023   6.501  1.00  0.00     0.025 C 
HETATM    7  N   UNL     1      43.976 -16.165   6.995  1.00  0.00    -0.096 N 
HETATM    8  C   UNL     1      41.996 -14.485   4.047  1.00  0.00     0.008 A 
HETATM    9  C   UNL     1      41.114 -13.772   3.221  1.00  0.00     0.049 A 
HETATM   10  C   UNL     1      42.009 -15.871   4.003  1.00  0.00     0.015 A 
HETATM   11  C   UNL     1      41.123 -16.526   3.138  1.00  0.00     0.001 A 
HETATM   12  C   UNL     1      40.240 -15.799   2.326  1.00  0.00     0.002 A 
HETATM   13  C   UNL     1      40.231 -14.405   2.361  1.00  0.00     0.030 A 
ENDROOT
BRANCH   5  14
HETATM   14  C   UNL     1      44.064 -12.556   6.655  1.00  0.00     0.149 A 
HETATM   15  N   UNL     1      45.245 -11.972   6.613  1.00  0.00    -0.228 NA
HETATM   16  C   UNL     1      45.182 -10.915   7.487  1.00  0.00     0.086 A 
HETATM   17  C   UNL     1      43.919 -10.822   8.056  1.00  0.00     0.062 A 
HETATM   18  C   UNL     1      46.161  -9.975   7.837  1.00  0.00     0.034 A 
HETATM   19  N   UNL     1      43.231 -11.880   7.523  1.00  0.00    -0.338 N 
HETATM   20  C   UNL     1      43.552  -9.819   8.956  1.00  0.00     0.032 A 
HETATM   21  H   UNL     1      42.267 -12.103   7.725  1.00  0.00     0.167 HD
HETATM   22  C   UNL     1      44.540  -8.883   9.286  1.00  0.00     0.002 A 
HETATM   23  C   UNL     1      45.825  -8.960   8.742  1.00  0.00     0.002 A 
ENDBRANCH   5  14
BRANCH   1  24
HETATM   24  C   UNL     1      40.429 -11.365   2.876  1.00  0.00     0.235 C 
BRANCH  24  25
HETATM   25  C   UNL     1      40.276 -11.341   1.359  1.00  0.00     0.240 C 
HETATM   26  N   UNL     1      38.981 -11.589   0.937  1.00  0.00    -0.326 N 
HETATM   27  H   UNL     1      38.244 -11.480   1.636  1.00  0.00     0.169 HD
HETATM   28  O   UNL     1      41.262 -11.196   0.638  1.00  0.00    -0.271 OA
BRANCH  26  29
HETATM   29  C   UNL     1      38.578 -12.014  -0.345  1.00  0.00     0.035 A 
HETATM   30  C   UNL     1      38.960 -13.237  -0.907  1.00  0.00     0.036 A 
HETATM   31  C   UNL     1      38.456 -13.651  -2.151  1.00  0.00    -0.060 A 
HETATM   32  C   UNL     1      38.799 -15.006  -2.695  1.00  0.00     0.048 C 
HETATM   33  C   UNL     1      37.562 -12.821  -2.835  1.00  0.00     0.007 A 
HETATM   34  C   UNL     1      37.184 -11.595  -2.288  1.00  0.00     0.003 A 
HETATM   35  C   UNL     1      37.682 -11.199  -1.045  1.00  0.00     0.029 A 
ENDBRANCH  26  29
ENDBRANCH  24  25
ENDBRANCH   1  24
TORSDOF 4
ENDMDL
MODEL 6
REMARK VINA RESULT:      -9.5      2.551      9.034
REMARK  4 active torsions:
REMARK  status: ('A' for Active; 'I' for Inactive)
REMARK    1  A    between atoms: C_4  and  N_5 
REMARK       I    between atoms: N_5  and  C_6 
REMARK    2  A    between atoms: C_6  and  C_7 
REMARK    3  A    between atoms: C_7  and  N_8 
REMARK    4  A    between atoms: C_12  and  C_13 
ROOT
HETATM    1  N   UNL     1      41.763 -12.989   4.109  1.00  0.00    -0.304 N 
HETATM    2  C   UNL     1      41.960 -12.373   5.337  1.00  0.00     0.261 C 
HETATM    3  O   UNL     1      42.672 -12.800   6.229  1.00  0.00    -0.267 OA
HETATM    4  C   UNL     1      41.036 -11.173   5.333  1.00  0.00     0.068 C 
HETATM    5  C   UNL     1      41.117 -10.140   6.195  1.00  0.00     0.093 C 
HETATM    6  C   UNL     1      40.230  -8.915   6.048  1.00  0.00     0.025 C 
HETATM    7  N   UNL     1      39.494  -7.898   5.926  1.00  0.00    -0.096 N 
HETATM    8  C   UNL     1      40.166 -11.335   4.146  1.00  0.00     0.008 A 
HETATM    9  C   UNL     1      40.673 -12.431   3.429  1.00  0.00     0.049 A 
HETATM   10  C   UNL     1      39.051 -10.660   3.671  1.00  0.00     0.015 A 
HETATM   11  C   UNL     1      38.468 -11.086   2.471  1.00  0.00     0.001 A 
HETATM   12  C   UNL     1      38.991 -12.175   1.761  1.00  0.00     0.002 A 
HETATM   13  C   UNL     1      40.106 -12.862   2.241  1.00  0.00     0.030 A 
ENDROOT
BRANCH   5  14
HETATM   14  C   UNL     1      42.130 -10.044   7.192  1.00  0.00     0.149 A 
HETATM   15  N   UNL     1      43.431  -9.866   7.082  1.00  0.00    -0.228 NA
HETATM   16  C   UNL     1      43.913  -9.756   8.363  1.00  0.00     0.086 A 
HETATM   17  C   UNL     1      42.878  -9.832   9.286  1.00  0.00     0.062 A 
HETATM   18  C   UNL     1      45.225  -9.572   8.820  1.00  0.00     0.034 A 
HETATM   19  N   UNL     1      41.758 -10.028   8.520  1.00  0.00    -0.338 N 
HETATM   20  C   UNL     1      43.066  -9.714  10.665  1.00  0.00     0.032 A 
HETATM   21  H   UNL     1      40.820 -10.121   8.883  1.00  0.00     0.167 HD
HETATM   22  C   UNL     1      44.382  -9.521  11.102  1.00  0.00     0.002 A 
HETATM   23  C   UNL     1      45.446  -9.456  10.198  1.00  0.00     0.002 A 
ENDBRANCH   5  14
BRANCH   1  24
HETATM   24  C   UNL     1      42.663 -13.981   3.567  1.00  0.00     0.235 C 
BRANCH  24  25
HETATM   25  C   UNL     1      42.385 -15.417   3.997  1.00  0.00     0.240 C 
HETATM   26  N   UNL     1      43.528 -16.192   4.081  1.00  0.00    -0.326 N 
HETATM   27  H   UNL     1      44.418 -15.692   4.130  1.00  0.00     0.169 HD
HETATM   28  O   UNL     1      41.228 -15.804   4.155  1.00  0.00    -0.271 OA
BRANCH  26  29
HETATM   29  C   UNL     1      43.596 -17.600   4.066  1.00  0.00     0.035 A 
HETATM   30  C   UNL     1      43.524 -18.362   2.895  1.00  0.00     0.036 A 
HETATM   31  C   UNL     1      43.688 -19.757   2.929  1.00  0.00    -0.060 A 
HETATM   32  C   UNL     1      43.704 -20.549   1.654  1.00  0.00     0.048 C 
HETATM   33  C   UNL     1      43.921 -20.387   4.155  1.00  0.00     0.007 A 
HETATM   34  C   UNL     1      43.983 -19.637   5.328  1.00  0.00     0.003 A 
HETATM   35  C   UNL     1      43.831 -18.249   5.282  1.00  0.00     0.029 A 
ENDBRANCH  26  29
ENDBRANCH  24  25
ENDBRANCH   1  24
TORSDOF 4
ENDMDL
MODEL 7
REMARK VINA RESULT:      -9.3      2.762      6.690
REMARK  4 active torsions:
REMARK  status: ('A' for Active; 'I' for Inactive)
REMARK    1  A    between atoms: C_4  and  N_5 
REMARK       I    between atoms: N_5  and  C_6 
REMARK    2  A    between atoms: C_6  and  C_7 
REMARK    3  A    between atoms: C_7  and  N_8 
REMARK    4  A    between atoms: C_12  and  C_13 
ROOT
HETATM    1  N   UNL     1      42.368 -12.518   2.689  1.00  0.00    -0.304 N 
HETATM    2  C   UNL     1      43.146 -12.237   3.804  1.00  0.00     0.261 C 
HETATM    3  O   UNL     1      43.842 -11.246   3.941  1.00  0.00    -0.267 OA
HETATM    4  C   UNL     1      43.009 -13.450   4.700  1.00  0.00     0.068 C 
HETATM    5  C   UNL     1      43.355 -13.484   6.003  1.00  0.00     0.093 C 
HETATM    6  C   UNL     1      43.073 -14.703   6.865  1.00  0.00     0.025 C 
HETATM    7  N   UNL     1      42.839 -15.714   7.580  1.00  0.00    -0.096 N 
HETATM    8  C   UNL     1      42.324 -14.480   3.886  1.00  0.00     0.008 A 
HETATM    9  C   UNL     1      41.934 -13.850   2.694  1.00  0.00     0.049 A 
HETATM   10  C   UNL     1      42.034 -15.822   4.080  1.00  0.00     0.015 A 
HETATM   11  C   UNL     1      41.339 -16.512   3.079  1.00  0.00     0.001 A 
HETATM   12  C   UNL     1      40.947 -15.866   1.898  1.00  0.00     0.002 A 
HETATM   13  C   UNL     1      41.246 -14.519   1.696  1.00  0.00     0.030 A 
ENDROOT
BRANCH   5  14
HETATM   14  C   UNL     1      43.852 -12.345   6.699  1.00  0.00     0.149 A 
HETATM   15  N   UNL     1      45.087 -11.971   6.963  1.00  0.00    -0.228 NA
HETATM   16  C   UNL     1      44.994 -10.748   7.581  1.00  0.00     0.086 A 
HETATM   17  C   UNL     1      43.669 -10.341   7.668  1.00  0.00     0.062 A 
HETATM   18  C   UNL     1      46.001  -9.912   8.081  1.00  0.00     0.034 A 
HETATM   19  N   UNL     1      42.962 -11.376   7.114  1.00  0.00    -0.338 N 
HETATM   20  C   UNL     1      43.274  -9.119   8.217  1.00  0.00     0.032 A 
HETATM   21  H   UNL     1      41.957 -11.401   7.014  1.00  0.00     0.167 HD
HETATM   22  C   UNL     1      44.293  -8.293   8.703  1.00  0.00     0.002 A 
HETATM   23  C   UNL     1      45.635  -8.682   8.644  1.00  0.00     0.002 A 
ENDBRANCH   5  14
BRANCH   1  24
HETATM   24  C   UNL     1      41.961 -11.513   1.734  1.00  0.00     0.235 C 
BRANCH  24  25
HETATM   25  C   UNL     1      40.957 -10.490   2.254  1.00  0.00     0.240 C 
HETATM   26  N   UNL     1      41.542  -9.481   2.997  1.00  0.00    -0.326 N 
HETATM   27  H   UNL     1      42.551  -9.359   2.890  1.00  0.00     0.169 HD
HETATM   28  O   UNL     1      39.752 -10.653   2.066  1.00  0.00    -0.271 OA
BRANCH  26  29
HETATM   29  C   UNL     1      40.898  -8.628   3.917  1.00  0.00     0.035 A 
HETATM   30  C   UNL     1      40.536  -9.022   5.210  1.00  0.00     0.036 A 
HETATM   31  C   UNL     1      39.979  -8.105   6.116  1.00  0.00    -0.060 A 
HETATM   32  C   UNL     1      39.686  -8.518   7.529  1.00  0.00     0.048 C 
HETATM   33  C   UNL     1      39.780  -6.781   5.712  1.00  0.00     0.007 A 
HETATM   34  C   UNL     1      40.127  -6.382   4.421  1.00  0.00     0.003 A 
HETATM   35  C   UNL     1      40.692  -7.299   3.532  1.00  0.00     0.029 A 
ENDBRANCH  26  29
ENDBRANCH  24  25
ENDBRANCH   1  24
TORSDOF 4
ENDMDL
MODEL 8
REMARK VINA RESULT:      -9.2      2.151      8.191
REMARK  4 active torsions:
REMARK  status: ('A' for Active; 'I' for Inactive)
REMARK    1  A    between atoms: C_4  and  N_5 
REMARK       I    between atoms: N_5  and  C_6 
REMARK    2  A    between atoms: C_6  and  C_7 
REMARK    3  A    between atoms: C_7  and  N_8 
REMARK    4  A    between atoms: C_12  and  C_13 
ROOT
HETATM    1  N   UNL     1      41.521 -12.639   3.329  1.00  0.00    -0.304 N 
HETATM    2  C   UNL     1      42.485 -12.318   4.274  1.00  0.00     0.261 C 
HETATM    3  O   UNL     1      42.892 -11.194   4.508  1.00  0.00    -0.267 OA
HETATM    4  C   UNL     1      42.957 -13.647   4.826  1.00  0.00     0.068 C 
HETATM    5  C   UNL     1      43.668 -13.797   5.962  1.00  0.00     0.093 C 
HETATM    6  C   UNL     1      43.998 -15.174   6.513  1.00  0.00     0.025 C 
HETATM    7  N   UNL     1      44.272 -16.317   6.971  1.00  0.00    -0.096 N 
HETATM    8  C   UNL     1      42.372 -14.684   3.945  1.00  0.00     0.008 A 
HETATM    9  C   UNL     1      41.490 -14.017   3.080  1.00  0.00     0.049 A 
HETATM   10  C   UNL     1      42.531 -16.057   3.839  1.00  0.00     0.015 A 
HETATM   11  C   UNL     1      41.787 -16.748   2.873  1.00  0.00     0.001 A 
HETATM   12  C   UNL     1      40.902 -16.069   2.023  1.00  0.00     0.002 A 
HETATM   13  C   UNL     1      40.748 -14.687   2.121  1.00  0.00     0.030 A 
ENDROOT
BRANCH   5  14
HETATM   14  C   UNL     1      44.017 -12.703   6.804  1.00  0.00     0.149 A 
HETATM   15  N   UNL     1      43.518 -12.315   7.960  1.00  0.00    -0.228 NA
HETATM   16  C   UNL     1      44.290 -11.257   8.375  1.00  0.00     0.086 A 
HETATM   17  C   UNL     1      45.312 -11.010   7.469  1.00  0.00     0.062 A 
HETATM   18  C   UNL     1      44.189 -10.466   9.527  1.00  0.00     0.034 A 
HETATM   19  N   UNL     1      45.112 -11.931   6.475  1.00  0.00    -0.338 N 
HETATM   20  C   UNL     1      46.276 -10.015   7.650  1.00  0.00     0.032 A 
HETATM   21  H   UNL     1      45.691 -12.029   5.653  1.00  0.00     0.167 HD
HETATM   22  C   UNL     1      46.166  -9.240   8.810  1.00  0.00     0.002 A 
HETATM   23  C   UNL     1      45.138  -9.455   9.733  1.00  0.00     0.002 A 
ENDBRANCH   5  14
BRANCH   1  24
HETATM   24  C   UNL     1      40.591 -11.674   2.788  1.00  0.00     0.235 C 
BRANCH  24  25
HETATM   25  C   UNL     1      40.987 -11.070   1.445  1.00  0.00     0.240 C 
HETATM   26  N   UNL     1      40.068 -11.322   0.442  1.00  0.00    -0.326 N 
HETATM   27  H   UNL     1      39.135 -11.614   0.738  1.00  0.00     0.169 HD
HETATM   28  O   UNL     1      42.070 -10.501   1.316  1.00  0.00    -0.271 OA
BRANCH  26  29
HETATM   29  C   UNL     1      40.297 -11.255  -0.948  1.00  0.00     0.035 A 
HETATM   30  C   UNL     1      40.246 -10.065  -1.681  1.00  0.00     0.036 A 
HETATM   31  C   UNL     1      40.571 -10.043  -3.047  1.00  0.00    -0.060 A 
HETATM   32  C   UNL     1      40.605  -8.743  -3.798  1.00  0.00     0.048 C 
HETATM   33  C   UNL     1      40.945 -11.233  -3.680  1.00  0.00     0.007 A 
HETATM   34  C   UNL     1      40.988 -12.426  -2.959  1.00  0.00     0.003 A 
HETATM   35  C   UNL     1      40.674 -12.435  -1.598  1.00  0.00     0.029 A 
ENDBRANCH  26  29
ENDBRANCH  24  25
ENDBRANCH   1  24
TORSDOF 4
ENDMDL
MODEL 9
REMARK VINA RESULT:      -9.0      2.287      7.321
REMARK  4 active torsions:
REMARK  status: ('A' for Active; 'I' for Inactive)
REMARK    1  A    between atoms: C_4  and  N_5 
REMARK       I    between atoms: N_5  and  C_6 
REMARK    2  A    between atoms: C_6  and  C_7 
REMARK    3  A    between atoms: C_7  and  N_8 
REMARK    4  A    between atoms: C_12  and  C_13 
ROOT
HETATM    1  N   UNL     1      39.905 -10.651   4.923  1.00  0.00    -0.304 N 
HETATM    2  C   UNL     1      40.581 -11.861   4.976  1.00  0.00     0.261 C 
HETATM    3  O   UNL     1      40.162 -12.919   4.540  1.00  0.00    -0.267 OA
HETATM    4  C   UNL     1      41.841 -11.577   5.766  1.00  0.00     0.068 C 
HETATM    5  C   UNL     1      42.918 -12.387   5.809  1.00  0.00     0.093 C 
HETATM    6  C   UNL     1      44.192 -11.973   6.527  1.00  0.00     0.025 C 
HETATM    7  N   UNL     1      45.249 -11.630   7.122  1.00  0.00    -0.096 N 
HETATM    8  C   UNL     1      41.667 -10.221   6.335  1.00  0.00     0.008 A 
HETATM    9  C   UNL     1      40.495  -9.700   5.765  1.00  0.00     0.049 A 
HETATM   10  C   UNL     1      42.389  -9.458   7.240  1.00  0.00     0.015 A 
HETATM   11  C   UNL     1      41.932  -8.170   7.550  1.00  0.00     0.001 A 
HETATM   12  C   UNL     1      40.765  -7.660   6.965  1.00  0.00     0.002 A 
HETATM   13  C   UNL     1      40.031  -8.429   6.062  1.00  0.00     0.030 A 
ENDROOT
BRANCH   5  14
HETATM   14  C   UNL     1      43.004 -13.598   5.063  1.00  0.00     0.149 A 
HETATM   15  N   UNL     1      42.852 -14.851   5.439  1.00  0.00    -0.228 NA
HETATM   16  C   UNL     1      42.950 -15.609   4.298  1.00  0.00     0.086 A 
HETATM   17  C   UNL     1      43.131 -14.799   3.185  1.00  0.00     0.062 A 
HETATM   18  C   UNL     1      42.877 -16.998   4.129  1.00  0.00     0.034 A 
HETATM   19  N   UNL     1      43.175 -13.528   3.696  1.00  0.00    -0.338 N 
HETATM   20  C   UNL     1      43.226 -15.292   1.881  1.00  0.00     0.032 A 
HETATM   21  H   UNL     1      43.292 -12.689   3.147  1.00  0.00     0.167 HD
HETATM   22  C   UNL     1      43.142 -16.681   1.731  1.00  0.00     0.002 A 
HETATM   23  C   UNL     1      42.976 -17.523   2.834  1.00  0.00     0.002 A 
ENDBRANCH   5  14
BRANCH   1  24
HETATM   24  C   UNL     1      38.819 -10.391   4.006  1.00  0.00     0.235 C 
BRANCH  24  25
HETATM   25  C   UNL     1      39.138 -10.630   2.534  1.00  0.00     0.240 C 
HETATM   26  N   UNL     1      38.604 -11.809   2.045  1.00  0.00    -0.326 N 
HETATM   27  H   UNL     1      37.854 -12.233   2.592  1.00  0.00     0.169 HD
HETATM   28  O   UNL     1      39.874  -9.855   1.925  1.00  0.00    -0.271 OA
BRANCH  26  29
HETATM   29  C   UNL     1      39.015 -12.506   0.891  1.00  0.00     0.035 A 
HETATM   30  C   UNL     1      38.652 -12.131  -0.407  1.00  0.00     0.036 A 
HETATM   31  C   UNL     1      39.164 -12.807  -1.526  1.00  0.00    -0.060 A 
HETATM   32  C   UNL     1      38.842 -12.332  -2.913  1.00  0.00     0.048 C 
HETATM   33  C   UNL     1      40.046 -13.876  -1.334  1.00  0.00     0.007 A 
HETATM   34  C   UNL     1      40.405 -14.264  -0.043  1.00  0.00     0.003 A 
HETATM   35  C   UNL     1      39.899 -13.577   1.062  1.00  0.00     0.029 A 
ENDBRANCH  26  29
ENDBRANCH  24  25
ENDBRANCH   1  24
TORSDOF 4
ENDMDL
MODEL 10
REMARK VINA RESULT:      -8.9     16.383     18.784
REMARK  4 active torsions:
REMARK  status: ('A' for Active; 'I' for Inactive)
REMARK    1  A    between atoms: C_4  and  N_5 
REMARK       I    between atoms: N_5  and  C_6 
REMARK    2  A    between atoms: C_6  and  C_7 
REMARK    3  A    between atoms: C_7  and  N_8 
REMARK    4  A    between atoms: C_12  and  C_13 
ROOT
HETATM    1  N   UNL     1      47.781 -29.535   3.418  1.00  0.00    -0.304 N 
HETATM    2  C   UNL     1      46.534 -30.096   3.653  1.00  0.00     0.261 C 
HETATM    3  O   UNL     1      45.467 -29.553   3.425  1.00  0.00    -0.267 OA
HETATM    4  C   UNL     1      46.815 -31.420   4.331  1.00  0.00     0.068 C 
HETATM    5  C   UNL     1      45.917 -32.417   4.469  1.00  0.00     0.093 C 
HETATM    6  C   UNL     1      46.312 -33.763   5.052  1.00  0.00     0.025 C 
HETATM    7  N   UNL     1      46.640 -34.881   5.536  1.00  0.00    -0.096 N 
HETATM    8  C   UNL     1      48.259 -31.409   4.661  1.00  0.00     0.008 A 
HETATM    9  C   UNL     1      48.795 -30.261   4.057  1.00  0.00     0.049 A 
HETATM   10  C   UNL     1      49.085 -32.251   5.390  1.00  0.00     0.015 A 
HETATM   11  C   UNL     1      50.446 -31.937   5.490  1.00  0.00     0.001 A 
HETATM   12  C   UNL     1      50.969 -30.792   4.873  1.00  0.00     0.002 A 
HETATM   13  C   UNL     1      50.139 -29.938   4.147  1.00  0.00     0.030 A 
ENDROOT
BRANCH   5  14
HETATM   14  C   UNL     1      44.596 -32.344   3.942  1.00  0.00     0.149 A 
HETATM   15  N   UNL     1      43.454 -32.038   4.524  1.00  0.00    -0.228 NA
HETATM   16  C   UNL     1      42.507 -32.032   3.531  1.00  0.00     0.086 A 
HETATM   17  C   UNL     1      43.085 -32.305   2.298  1.00  0.00     0.062 A 
HETATM   18  C   UNL     1      41.129 -31.783   3.600  1.00  0.00     0.034 A 
HETATM   19  N   UNL     1      44.409 -32.512   2.586  1.00  0.00    -0.338 N 
HETATM   20  C   UNL     1      42.368 -32.328   1.099  1.00  0.00     0.032 A 
HETATM   21  H   UNL     1      45.121 -32.730   1.904  1.00  0.00     0.167 HD
HETATM   22  C   UNL     1      40.996 -32.069   1.187  1.00  0.00     0.002 A 
HETATM   23  C   UNL     1      40.382 -31.806   2.415  1.00  0.00     0.002 A 
ENDBRANCH   5  14
BRANCH   1  24
HETATM   24  C   UNL     1      47.994 -28.428   2.514  1.00  0.00     0.235 C 
BRANCH  24  25
HETATM   25  C   UNL     1      47.620 -28.694   1.060  1.00  0.00     0.240 C 
HETATM   26  N   UNL     1      46.390 -28.165   0.708  1.00  0.00    -0.326 N 
HETATM   27  H   UNL     1      46.008 -27.446   1.324  1.00  0.00     0.169 HD
HETATM   28  O   UNL     1      48.345 -29.389   0.349  1.00  0.00    -0.271 OA
BRANCH  26  29
HETATM   29  C   UNL     1      45.592 -28.544  -0.390  1.00  0.00     0.035 A 
HETATM   30  C   UNL     1      45.675 -27.939  -1.649  1.00  0.00     0.036 A 
HETATM   31  C   UNL     1      44.921 -28.417  -2.733  1.00  0.00    -0.060 A 
HETATM   32  C   UNL     1      45.092 -27.819  -4.099  1.00  0.00     0.048 C 
HETATM   33  C   UNL     1      44.071 -29.512  -2.544  1.00  0.00     0.007 A 
HETATM   34  C   UNL     1      43.974 -30.114  -1.290  1.00  0.00     0.003 A 
HETATM   35  C   UNL     1      44.738 -29.639  -0.222  1.00  0.00     0.029 A 
ENDBRANCH  26  29
ENDBRANCH  24  25
ENDBRANCH   1  24
TORSDOF 4
ENDMDL
