MODEL 1
REMARK VINA RESULT:      -9.1      0.000      0.000
REMARK  5 active torsions:
REMARK  status: ('A' for Active; 'I' for Inactive)
REMARK    1  A    between atoms: C_2  and  C_3 
REMARK    2  A    between atoms: C_6  and  C_7 
REMARK    3  A    between atoms: C_7  and  C_8 
REMARK       I    between atoms: C_8  and  N_9 
REMARK    4  A    between atoms: N_9  and  C_10 
REMARK    5  A    between atoms: C_12  and  C_13 
ROOT
HETATM    1  C   UNL     1      43.293 -13.063   6.517  1.00  0.00     0.226 C 
HETATM    2  N   UNL     1      43.604 -12.447   7.723  1.00  0.00    -0.327 N 
HETATM    3  O   UNL     1      43.550 -12.629   5.397  1.00  0.00    -0.273 OA
HETATM    4  H   UNL     1      43.244 -12.888   8.560  1.00  0.00     0.169 HD
ENDROOT
BRANCH   1   5
HETATM    5  C   UNL     1      42.605 -14.408   6.711  1.00  0.00     0.144 C 
BRANCH   5   6
HETATM    6  C   UNL     1      43.198 -15.511   5.895  1.00  0.00    -0.021 A 
HETATM    7  C   UNL     1      42.731 -16.030   4.640  1.00  0.00    -0.001 A 
HETATM    8  C   UNL     1      43.544 -17.117   4.304  1.00  0.00     0.049 A 
HETATM    9  C   UNL     1      41.681 -15.690   3.765  1.00  0.00     0.014 A 
HETATM   10  C   UNL     1      43.354 -17.903   3.149  1.00  0.00    -0.031 A 
HETATM   11  N   UNL     1      44.495 -17.223   5.294  1.00  0.00    -0.364 N 
HETATM   12  C   UNL     1      42.302 -17.517   2.300  1.00  0.00     0.009 A 
HETATM   13  C   UNL     1      41.482 -16.432   2.598  1.00  0.00     0.002 A 
HETATM   14  C   UNL     1      44.293 -16.273   6.255  1.00  0.00     0.097 A 
HETATM   15  H   UNL     1      45.231 -17.914   5.306  1.00  0.00     0.165 HD
BRANCH  10  16
HETATM   16  C   UNL     1      44.211 -19.092   2.795  1.00  0.00     0.036 C 
HETATM   17  C   UNL     1      43.422 -20.170   2.069  1.00  0.00     0.010 C 
ENDBRANCH  10  16
ENDBRANCH   5   6
ENDBRANCH   1   5
BRANCH   2  18
HETATM   18  C   UNL     1      44.326 -11.253   7.924  1.00  0.00     0.035 A 
HETATM   19  C   UNL     1      43.674 -10.224   8.620  1.00  0.00     0.042 A 
HETATM   20  C   UNL     1      44.316  -9.004   8.888  1.00  0.00    -0.021 A 
HETATM   21  C   UNL     1      45.634  -8.828   8.455  1.00  0.00     0.012 A 
HETATM   22  C   UNL     1      46.290  -9.847   7.762  1.00  0.00     0.003 A 
HETATM   23  C   UNL     1      45.638 -11.053   7.495  1.00  0.00     0.029 A 
BRANCH  20  24
HETATM   24  C   UNL     1      43.607  -7.949   9.592  1.00  0.00     0.010 A 
HETATM   25  C   UNL     1      43.112  -7.893  10.917  1.00  0.00     0.152 A 
HETATM   26  N   UNL     1      42.527  -6.726  11.201  1.00  0.00    -0.187 NA
HETATM   27  N   UNL     1      42.639  -6.032  10.058  1.00  0.00    -0.289 N 
HETATM   28  H   UNL     1      42.259  -5.092  10.027  1.00  0.00     0.188 HD
HETATM   29  C   UNL     1      43.280  -6.718   9.066  1.00  0.00     0.123 A 
ENDBRANCH  20  24
ENDBRANCH   2  18
TORSDOF 5
ENDMDL
MODEL 2
REMARK VINA RESULT:      -8.6      5.492      7.814
REMARK  5 active torsions:
REMARK  status: ('A' for Active; 'I' for Inactive)
REMARK    1  A    between atoms: C_2  and  C_3 
REMARK    2  A    between atoms: C_6  and  C_7 
REMARK    3  A    between atoms: C_7  and  C_8 
REMARK       I    between atoms: C_8  and  N_9 
REMARK    4  A    between atoms: N_9  and  C_10 
REMARK    5  A    between atoms: C_12  and  C_13 
ROOT
HETATM    1  C   UNL     1      40.613 -13.692   4.705  1.00  0.00     0.226 C 
HETATM    2  N   UNL     1      39.621 -13.738   3.733  1.00  0.00    -0.327 N 
HETATM    3  O   UNL     1      41.519 -12.867   4.774  1.00  0.00    -0.273 OA
HETATM    4  H   UNL     1      38.998 -14.536   3.763  1.00  0.00     0.169 HD
ENDROOT
BRANCH   1   5
HETATM    5  C   UNL     1      40.452 -14.787   5.751  1.00  0.00     0.144 C 
BRANCH   5   6
HETATM    6  C   UNL     1      41.539 -15.813   5.722  1.00  0.00    -0.021 A 
HETATM    7  C   UNL     1      42.062 -16.513   4.582  1.00  0.00    -0.001 A 
HETATM    8  C   UNL     1      42.998 -17.441   5.049  1.00  0.00     0.049 A 
HETATM    9  C   UNL     1      41.815 -16.458   3.196  1.00  0.00     0.014 A 
HETATM   10  C   UNL     1      43.689 -18.339   4.210  1.00  0.00    -0.031 A 
HETATM   11  N   UNL     1      43.072 -17.277   6.414  1.00  0.00    -0.364 N 
HETATM   12  C   UNL     1      43.419 -18.238   2.834  1.00  0.00     0.009 A 
HETATM   13  C   UNL     1      42.503 -17.316   2.334  1.00  0.00     0.002 A 
HETATM   14  C   UNL     1      42.198 -16.312   6.829  1.00  0.00     0.097 A 
HETATM   15  H   UNL     1      43.684 -17.806   7.019  1.00  0.00     0.165 HD
BRANCH  10  16
HETATM   16  C   UNL     1      44.680 -19.360   4.712  1.00  0.00     0.036 C 
HETATM   17  C   UNL     1      43.993 -20.574   5.315  1.00  0.00     0.010 C 
ENDBRANCH  10  16
ENDBRANCH   5   6
ENDBRANCH   1   5
BRANCH   2  18
HETATM   18  C   UNL     1      39.399 -12.828   2.680  1.00  0.00     0.035 A 
HETATM   19  C   UNL     1      39.847 -13.209   1.405  1.00  0.00     0.042 A 
HETATM   20  C   UNL     1      39.654 -12.380   0.288  1.00  0.00    -0.021 A 
HETATM   21  C   UNL     1      38.996 -11.158   0.460  1.00  0.00     0.012 A 
HETATM   22  C   UNL     1      38.548 -10.773   1.725  1.00  0.00     0.003 A 
HETATM   23  C   UNL     1      38.751 -11.603   2.830  1.00  0.00     0.029 A 
BRANCH  20  24
HETATM   24  C   UNL     1      40.149 -12.792  -1.015  1.00  0.00     0.010 A 
HETATM   25  C   UNL     1      39.804 -13.899  -1.827  1.00  0.00     0.152 A 
HETATM   26  N   UNL     1      40.475 -13.924  -2.981  1.00  0.00    -0.187 NA
HETATM   27  N   UNL     1      41.256 -12.834  -2.913  1.00  0.00    -0.289 N 
HETATM   28  H   UNL     1      41.873 -12.634  -3.694  1.00  0.00     0.188 HD
HETATM   29  C   UNL     1      41.096 -12.122  -1.759  1.00  0.00     0.123 A 
ENDBRANCH  20  24
ENDBRANCH   2  18
TORSDOF 5
ENDMDL
MODEL 3
REMARK VINA RESULT:      -8.5      1.771      2.184
REMARK  5 active torsions:
REMARK  status: ('A' for Active; 'I' for Inactive)
REMARK    1  A    between atoms: C_2  and  C_3 
REMARK    2  A    between atoms: C_6  and  C_7 
REMARK    3  A    between atoms: C_7  and  C_8 
REMARK       I    between atoms: C_8  and  N_9 
REMARK    4  A    between atoms: N_9  and  C_10 
REMARK    5  A    between atoms: C_12  and  C_13 
ROOT
HETATM    1  C   UNL     1      42.619 -12.514   5.620  1.00  0.00     0.226 C 
HETATM    2  N   UNL     1      43.932 -12.462   6.071  1.00  0.00    -0.327 N 
HETATM    3  O   UNL     1      41.691 -11.813   6.014  1.00  0.00    -0.273 OA
HETATM    4  H   UNL     1      44.560 -13.169   5.711  1.00  0.00     0.169 HD
ENDROOT
BRANCH   1   5
HETATM    5  C   UNL     1      42.425 -13.542   4.513  1.00  0.00     0.144 C 
BRANCH   5   6
HETATM    6  C   UNL     1      42.924 -14.907   4.864  1.00  0.00    -0.021 A 
HETATM    7  C   UNL     1      43.165 -16.014   3.982  1.00  0.00    -0.001 A 
HETATM    8  C   UNL     1      43.533 -17.109   4.769  1.00  0.00     0.049 A 
HETATM    9  C   UNL     1      43.090 -16.192   2.586  1.00  0.00     0.014 A 
HETATM   10  C   UNL     1      43.808 -18.388   4.242  1.00  0.00    -0.031 A 
HETATM   11  N   UNL     1      43.557 -16.671   6.073  1.00  0.00    -0.364 N 
HETATM   12  C   UNL     1      43.732 -18.515   2.844  1.00  0.00     0.009 A 
HETATM   13  C   UNL     1      43.382 -17.441   2.030  1.00  0.00     0.002 A 
HETATM   14  C   UNL     1      43.186 -15.357   6.144  1.00  0.00     0.097 A 
HETATM   15  H   UNL     1      43.807 -17.247   6.864  1.00  0.00     0.165 HD
BRANCH  10  16
HETATM   16  C   UNL     1      44.178 -19.580   5.089  1.00  0.00     0.036 C 
HETATM   17  C   UNL     1      43.963 -20.893   4.353  1.00  0.00     0.010 C 
ENDBRANCH  10  16
ENDBRANCH   5   6
ENDBRANCH   1   5
BRANCH   2  18
HETATM   18  C   UNL     1      44.490 -11.567   7.006  1.00  0.00     0.035 A 
HETATM   19  C   UNL     1      43.793 -11.390   8.212  1.00  0.00     0.042 A 
HETATM   20  C   UNL     1      44.278 -10.536   9.216  1.00  0.00    -0.021 A 
HETATM   21  C   UNL     1      45.484  -9.860   9.001  1.00  0.00     0.012 A 
HETATM   22  C   UNL     1      46.182 -10.031   7.804  1.00  0.00     0.003 A 
HETATM   23  C   UNL     1      45.686 -10.878   6.811  1.00  0.00     0.029 A 
BRANCH  20  24
HETATM   24  C   UNL     1      43.523 -10.357  10.444  1.00  0.00     0.010 A 
HETATM   25  C   UNL     1      42.425  -9.514  10.740  1.00  0.00     0.152 A 
HETATM   26  N   UNL     1      41.990  -9.652  11.995  1.00  0.00    -0.187 NA
HETATM   27  N   UNL     1      42.811 -10.580  12.511  1.00  0.00    -0.289 N 
HETATM   28  H   UNL     1      42.675 -10.859  13.477  1.00  0.00     0.188 HD
HETATM   29  C   UNL     1      43.743 -11.035  11.624  1.00  0.00     0.123 A 
ENDBRANCH  20  24
ENDBRANCH   2  18
TORSDOF 5
ENDMDL
MODEL 4
REMARK VINA RESULT:      -8.5      4.455      6.614
REMARK  5 active torsions:
REMARK  status: ('A' for Active; 'I' for Inactive)
REMARK    1  A    between atoms: C_2  and  C_3 
REMARK    2  A    between atoms: C_6  and  C_7 
REMARK    3  A    between atoms: C_7  and  C_8 
REMARK       I    between atoms: C_8  and  N_9 
REMARK    4  A    between atoms: N_9  and  C_10 
REMARK    5  A    between atoms: C_12  and  C_13 
ROOT
HETATM    1  C   UNL     1      41.368 -14.158   6.263  1.00  0.00     0.226 C 
HETATM    2  N   UNL     1      41.585 -13.042   5.464  1.00  0.00    -0.327 N 
HETATM    3  O   UNL     1      40.277 -14.655   6.530  1.00  0.00    -0.273 OA
HETATM    4  H   UNL     1      42.536 -12.702   5.414  1.00  0.00     0.169 HD
ENDROOT
BRANCH   1   5
HETATM    5  C   UNL     1      42.666 -14.765   6.777  1.00  0.00     0.144 C 
BRANCH   5   6
HETATM    6  C   UNL     1      43.028 -16.059   6.120  1.00  0.00    -0.021 A 
HETATM    7  C   UNL     1      43.149 -16.332   4.716  1.00  0.00    -0.001 A 
HETATM    8  C   UNL     1      43.411 -17.698   4.573  1.00  0.00     0.049 A 
HETATM    9  C   UNL     1      43.044 -15.549   3.549  1.00  0.00     0.014 A 
HETATM   10  C   UNL     1      43.551 -18.337   3.323  1.00  0.00    -0.031 A 
HETATM   11  N   UNL     1      43.490 -18.223   5.843  1.00  0.00    -0.364 N 
HETATM   12  C   UNL     1      43.451 -17.513   2.188  1.00  0.00     0.009 A 
HETATM   13  C   UNL     1      43.205 -16.147   2.296  1.00  0.00     0.002 A 
HETATM   14  C   UNL     1      43.254 -17.253   6.777  1.00  0.00     0.097 A 
HETATM   15  H   UNL     1      43.686 -19.192   6.048  1.00  0.00     0.165 HD
BRANCH  10  16
HETATM   16  C   UNL     1      43.806 -19.815   3.163  1.00  0.00     0.036 C 
HETATM   17  C   UNL     1      43.425 -20.313   1.778  1.00  0.00     0.010 C 
ENDBRANCH  10  16
ENDBRANCH   5   6
ENDBRANCH   1   5
BRANCH   2  18
HETATM   18  C   UNL     1      40.630 -12.296   4.744  1.00  0.00     0.035 A 
HETATM   19  C   UNL     1      40.385 -12.686   3.418  1.00  0.00     0.042 A 
HETATM   20  C   UNL     1      39.436 -12.020   2.626  1.00  0.00    -0.021 A 
HETATM   21  C   UNL     1      38.724 -10.952   3.182  1.00  0.00     0.012 A 
HETATM   22  C   UNL     1      38.962 -10.558   4.500  1.00  0.00     0.003 A 
HETATM   23  C   UNL     1      39.913 -11.225   5.276  1.00  0.00     0.029 A 
BRANCH  20  24
HETATM   24  C   UNL     1      39.220 -12.433   1.250  1.00  0.00     0.010 A 
HETATM   25  C   UNL     1      38.558 -11.782   0.182  1.00  0.00     0.152 A 
HETATM   26  N   UNL     1      38.588 -12.487  -0.953  1.00  0.00    -0.187 NA
HETATM   27  N   UNL     1      39.266 -13.595  -0.616  1.00  0.00    -0.289 N 
HETATM   28  H   UNL     1      39.421 -14.300  -1.329  1.00  0.00     0.188 HD
HETATM   29  C   UNL     1      39.669 -13.610   0.689  1.00  0.00     0.123 A 
ENDBRANCH  20  24
ENDBRANCH   2  18
TORSDOF 5
ENDMDL
MODEL 5
REMARK VINA RESULT:      -8.4      5.104      8.769
REMARK  5 active torsions:
REMARK  status: ('A' for Active; 'I' for Inactive)
REMARK    1  A    between atoms: C_2  and  C_3 
REMARK    2  A    between atoms: C_6  and  C_7 
REMARK    3  A    between atoms: C_7  and  C_8 
REMARK       I    between atoms: C_8  and  N_9 
REMARK    4  A    between atoms: N_9  and  C_10 
REMARK    5  A    between atoms: C_12  and  C_13 
ROOT
HETATM    1  C   UNL     1      41.396 -13.425   4.753  1.00  0.00     0.226 C 
HETATM    2  N   UNL     1      41.373 -14.770   5.101  1.00  0.00    -0.327 N 
HETATM    3  O   UNL     1      42.399 -12.741   4.577  1.00  0.00    -0.273 OA
HETATM    4  H   UNL     1      40.464 -15.170   5.298  1.00  0.00     0.169 HD
ENDROOT
BRANCH   1   5
HETATM    5  C   UNL     1      39.998 -12.851   4.562  1.00  0.00     0.144 C 
BRANCH   5   6
HETATM    6  C   UNL     1      39.672 -12.518   3.141  1.00  0.00    -0.021 A 
HETATM    7  C   UNL     1      39.739 -13.380   1.994  1.00  0.00    -0.001 A 
HETATM    8  C   UNL     1      39.435 -12.608   0.869  1.00  0.00     0.049 A 
HETATM    9  C   UNL     1      40.045 -14.742   1.805  1.00  0.00     0.014 A 
HETATM   10  C   UNL     1      39.444 -13.115  -0.447  1.00  0.00    -0.031 A 
HETATM   11  N   UNL     1      39.152 -11.339   1.321  1.00  0.00    -0.364 N 
HETATM   12  C   UNL     1      39.742 -14.482  -0.586  1.00  0.00     0.009 A 
HETATM   13  C   UNL     1      40.035 -15.282   0.515  1.00  0.00     0.002 A 
HETATM   14  C   UNL     1      39.299 -11.271   2.678  1.00  0.00     0.097 A 
HETATM   15  H   UNL     1      38.883 -10.569   0.727  1.00  0.00     0.165 HD
BRANCH  10  16
HETATM   16  C   UNL     1      39.144 -12.281  -1.668  1.00  0.00     0.036 C 
HETATM   17  C   UNL     1      38.437 -13.083  -2.748  1.00  0.00     0.010 C 
ENDBRANCH  10  16
ENDBRANCH   5   6
ENDBRANCH   1   5
BRANCH   2  18
HETATM   18  C   UNL     1      42.471 -15.641   5.257  1.00  0.00     0.035 A 
HETATM   19  C   UNL     1      42.521 -16.758   4.408  1.00  0.00     0.042 A 
HETATM   20  C   UNL     1      43.585 -17.673   4.471  1.00  0.00    -0.021 A 
HETATM   21  C   UNL     1      44.611 -17.452   5.395  1.00  0.00     0.012 A 
HETATM   22  C   UNL     1      44.568 -16.343   6.242  1.00  0.00     0.003 A 
HETATM   23  C   UNL     1      43.501 -15.444   6.175  1.00  0.00     0.029 A 
BRANCH  20  24
HETATM   24  C   UNL     1      43.599 -18.832   3.594  1.00  0.00     0.010 A 
HETATM   25  C   UNL     1      43.995 -20.169   3.836  1.00  0.00     0.152 A 
HETATM   26  N   UNL     1      43.839 -20.956   2.768  1.00  0.00    -0.187 NA
HETATM   27  N   UNL     1      43.347 -20.125   1.835  1.00  0.00    -0.289 N 
HETATM   28  H   UNL     1      43.143 -20.502   0.915  1.00  0.00     0.188 HD
HETATM   29  C   UNL     1      43.183 -18.845   2.280  1.00  0.00     0.123 A 
ENDBRANCH  20  24
ENDBRANCH   2  18
TORSDOF 5
ENDMDL
MODEL 6
REMARK VINA RESULT:      -8.4      1.563      2.203
REMARK  5 active torsions:
REMARK  status: ('A' for Active; 'I' for Inactive)
REMARK    1  A    between atoms: C_2  and  C_3 
REMARK    2  A    between atoms: C_6  and  C_7 
REMARK    3  A    between atoms: C_7  and  C_8 
REMARK       I    between atoms: C_8  and  N_9 
REMARK    4  A    between atoms: N_9  and  C_10 
REMARK    5  A    between atoms: C_12  and  C_13 
ROOT
HETATM    1  C   UNL     1      43.262 -11.835   4.523  1.00  0.00     0.226 C 
HETATM    2  N   UNL     1      43.245 -11.768   5.911  1.00  0.00    -0.327 N 
HETATM    3  O   UNL     1      44.077 -11.290   3.784  1.00  0.00    -0.273 OA
HETATM    4  H   UNL     1      42.454 -12.199   6.373  1.00  0.00     0.169 HD
ENDROOT
BRANCH   1   5
HETATM    5  C   UNL     1      42.151 -12.717   3.970  1.00  0.00     0.144 C 
BRANCH   5   6
HETATM    6  C   UNL     1      42.616 -14.068   3.529  1.00  0.00    -0.021 A 
HETATM    7  C   UNL     1      42.766 -15.253   4.325  1.00  0.00    -0.001 A 
HETATM    8  C   UNL     1      43.318 -16.243   3.507  1.00  0.00     0.049 A 
HETATM    9  C   UNL     1      42.499 -15.574   5.671  1.00  0.00     0.014 A 
HETATM   10  C   UNL     1      43.644 -17.537   3.964  1.00  0.00    -0.031 A 
HETATM   11  N   UNL     1      43.456 -15.692   2.254  1.00  0.00    -0.364 N 
HETATM   12  C   UNL     1      43.348 -17.815   5.310  1.00  0.00     0.009 A 
HETATM   13  C   UNL     1      42.785 -16.856   6.148  1.00  0.00     0.002 A 
HETATM   14  C   UNL     1      43.047 -14.388   2.256  1.00  0.00     0.097 A 
HETATM   15  H   UNL     1      43.817 -16.186   1.450  1.00  0.00     0.165 HD
BRANCH  10  16
HETATM   16  C   UNL     1      44.266 -18.601   3.093  1.00  0.00     0.036 C 
HETATM   17  C   UNL     1      43.225 -19.352   2.278  1.00  0.00     0.010 C 
ENDBRANCH  10  16
ENDBRANCH   5   6
ENDBRANCH   1   5
BRANCH   2  18
HETATM   18  C   UNL     1      44.176 -11.134   6.758  1.00  0.00     0.035 A 
HETATM   19  C   UNL     1      43.658 -10.350   7.800  1.00  0.00     0.042 A 
HETATM   20  C   UNL     1      44.504  -9.695   8.710  1.00  0.00    -0.021 A 
HETATM   21  C   UNL     1      45.887  -9.840   8.568  1.00  0.00     0.012 A 
HETATM   22  C   UNL     1      46.411 -10.619   7.534  1.00  0.00     0.003 A 
HETATM   23  C   UNL     1      45.559 -11.260   6.631  1.00  0.00     0.029 A 
BRANCH  20  24
HETATM   24  C   UNL     1      43.938  -8.873   9.766  1.00  0.00     0.010 A 
HETATM   25  C   UNL     1      43.278  -7.621   9.710  1.00  0.00     0.152 A 
HETATM   26  N   UNL     1      42.881  -7.192  10.911  1.00  0.00    -0.187 NA
HETATM   27  N   UNL     1      43.288  -8.164  11.742  1.00  0.00    -0.289 N 
HETATM   28  H   UNL     1      43.095  -8.061  12.733  1.00  0.00     0.188 HD
HETATM   29  C   UNL     1      43.922  -9.192  11.107  1.00  0.00     0.123 A 
ENDBRANCH  20  24
ENDBRANCH   2  18
TORSDOF 5
ENDMDL
MODEL 7
REMARK VINA RESULT:      -8.1      5.789      9.861
REMARK  5 active torsions:
REMARK  status: ('A' for Active; 'I' for Inactive)
REMARK    1  A    between atoms: C_2  and  C_3 
REMARK    2  A    between atoms: C_6  and  C_7 
REMARK    3  A    between atoms: C_7  and  C_8 
REMARK       I    between atoms: C_8  and  N_9 
REMARK    4  A    between atoms: N_9  and  C_10 
REMARK    5  A    between atoms: C_12  and  C_13 
ROOT
HETATM    1  C   UNL     1      41.157 -13.647   2.040  1.00  0.00     0.226 C 
HETATM    2  N   UNL     1      42.385 -14.285   2.170  1.00  0.00    -0.327 N 
HETATM    3  O   UNL     1      40.174 -13.819   2.755  1.00  0.00    -0.273 OA
HETATM    4  H   UNL     1      43.067 -14.101   1.446  1.00  0.00     0.169 HD
ENDROOT
BRANCH   1   5
HETATM    5  C   UNL     1      41.144 -12.638   0.899  1.00  0.00     0.144 C 
BRANCH   5   6
HETATM    6  C   UNL     1      39.829 -12.542   0.195  1.00  0.00    -0.021 A 
HETATM    7  C   UNL     1      39.412 -13.230  -0.994  1.00  0.00    -0.001 A 
HETATM    8  C   UNL     1      38.142 -12.753  -1.334  1.00  0.00     0.049 A 
HETATM    9  C   UNL     1      40.002 -14.202  -1.826  1.00  0.00     0.014 A 
HETATM   10  C   UNL     1      37.432 -13.177  -2.476  1.00  0.00    -0.031 A 
HETATM   11  N   UNL     1      37.786 -11.845  -0.363  1.00  0.00    -0.364 N 
HETATM   12  C   UNL     1      38.055 -14.158  -3.268  1.00  0.00     0.009 A 
HETATM   13  C   UNL     1      39.312 -14.663  -2.951  1.00  0.00     0.002 A 
HETATM   14  C   UNL     1      38.790 -11.704   0.552  1.00  0.00     0.097 A 
HETATM   15  H   UNL     1      36.906 -11.350  -0.341  1.00  0.00     0.165 HD
BRANCH  10  16
HETATM   16  C   UNL     1      36.073 -12.647  -2.862  1.00  0.00     0.036 C 
HETATM   17  C   UNL     1      36.124 -11.179  -3.256  1.00  0.00     0.010 C 
ENDBRANCH  10  16
ENDBRANCH   5   6
ENDBRANCH   1   5
BRANCH   2  18
HETATM   18  C   UNL     1      42.784 -15.194   3.170  1.00  0.00     0.035 A 
HETATM   19  C   UNL     1      42.970 -16.530   2.779  1.00  0.00     0.042 A 
HETATM   20  C   UNL     1      43.389 -17.506   3.697  1.00  0.00    -0.021 A 
HETATM   21  C   UNL     1      43.628 -17.128   5.021  1.00  0.00     0.012 A 
HETATM   22  C   UNL     1      43.445 -15.802   5.418  1.00  0.00     0.003 A 
HETATM   23  C   UNL     1      43.023 -14.841   4.498  1.00  0.00     0.029 A 
BRANCH  20  24
HETATM   24  C   UNL     1      43.551 -18.885   3.266  1.00  0.00     0.010 A 
HETATM   25  C   UNL     1      43.261 -19.507   2.028  1.00  0.00     0.152 A 
HETATM   26  N   UNL     1      43.573 -20.806   2.016  1.00  0.00    -0.187 NA
HETATM   27  N   UNL     1      44.061 -21.023   3.248  1.00  0.00    -0.289 N 
HETATM   28  H   UNL     1      44.373 -21.959   3.484  1.00  0.00     0.188 HD
HETATM   29  C   UNL     1      44.072 -19.905   4.032  1.00  0.00     0.123 A 
ENDBRANCH  20  24
ENDBRANCH   2  18
TORSDOF 5
ENDMDL
MODEL 8
REMARK VINA RESULT:      -8.1      2.555      9.310
REMARK  5 active torsions:
REMARK  status: ('A' for Active; 'I' for Inactive)
REMARK    1  A    between atoms: C_2  and  C_3 
REMARK    2  A    between atoms: C_6  and  C_7 
REMARK    3  A    between atoms: C_7  and  C_8 
REMARK       I    between atoms: C_8  and  N_9 
REMARK    4  A    between atoms: N_9  and  C_10 
REMARK    5  A    between atoms: C_12  and  C_13 
ROOT
HETATM    1  C   UNL     1      45.467 -10.453   8.217  1.00  0.00     0.226 C 
HETATM    2  N   UNL     1      44.189 -10.879   7.877  1.00  0.00    -0.327 N 
HETATM    3  O   UNL     1      46.511 -10.789   7.666  1.00  0.00    -0.273 OA
HETATM    4  H   UNL     1      43.438 -10.581   8.487  1.00  0.00     0.169 HD
ENDROOT
BRANCH   1   5
HETATM    5  C   UNL     1      45.460  -9.454   9.367  1.00  0.00     0.144 C 
BRANCH   5   6
HETATM    6  C   UNL     1      44.380  -9.699  10.371  1.00  0.00    -0.021 A 
HETATM    7  C   UNL     1      43.379  -8.779  10.835  1.00  0.00    -0.001 A 
HETATM    8  C   UNL     1      42.650  -9.421  11.841  1.00  0.00     0.049 A 
HETATM    9  C   UNL     1      43.035  -7.453  10.507  1.00  0.00     0.014 A 
HETATM   10  C   UNL     1      41.605  -8.804  12.559  1.00  0.00    -0.031 A 
HETATM   11  N   UNL     1      43.160 -10.695  11.950  1.00  0.00    -0.364 N 
HETATM   12  C   UNL     1      41.289  -7.485  12.187  1.00  0.00     0.009 A 
HETATM   13  C   UNL     1      41.987  -6.822  11.181  1.00  0.00     0.002 A 
HETATM   14  C   UNL     1      44.200 -10.871  11.082  1.00  0.00     0.097 A 
HETATM   15  H   UNL     1      42.813 -11.395  12.590  1.00  0.00     0.165 HD
BRANCH  10  16
HETATM   16  C   UNL     1      40.833  -9.482  13.663  1.00  0.00     0.036 C 
HETATM   17  C   UNL     1      39.761 -10.414  13.120  1.00  0.00     0.010 C 
ENDBRANCH  10  16
ENDBRANCH   5   6
ENDBRANCH   1   5
BRANCH   2  18
HETATM   18  C   UNL     1      43.813 -11.715   6.807  1.00  0.00     0.035 A 
HETATM   19  C   UNL     1      43.803 -13.098   7.052  1.00  0.00     0.042 A 
HETATM   20  C   UNL     1      43.423 -14.011   6.055  1.00  0.00    -0.021 A 
HETATM   21  C   UNL     1      43.041 -13.522   4.802  1.00  0.00     0.012 A 
HETATM   22  C   UNL     1      43.048 -12.149   4.551  1.00  0.00     0.003 A 
HETATM   23  C   UNL     1      43.435 -11.250   5.548  1.00  0.00     0.029 A 
BRANCH  20  24
HETATM   24  C   UNL     1      43.444 -15.438   6.332  1.00  0.00     0.010 A 
HETATM   25  C   UNL     1      43.887 -16.526   5.543  1.00  0.00     0.152 A 
HETATM   26  N   UNL     1      43.759 -17.702   6.164  1.00  0.00    -0.187 NA
HETATM   27  N   UNL     1      43.228 -17.373   7.353  1.00  0.00    -0.289 N 
HETATM   28  H   UNL     1      43.034 -18.116   8.015  1.00  0.00     0.188 HD
HETATM   29  C   UNL     1      43.023 -16.031   7.503  1.00  0.00     0.123 A 
ENDBRANCH  20  24
ENDBRANCH   2  18
TORSDOF 5
ENDMDL
MODEL 9
REMARK VINA RESULT:      -7.9      2.737      4.142
REMARK  5 active torsions:
REMARK  status: ('A' for Active; 'I' for Inactive)
REMARK    1  A    between atoms: C_2  and  C_3 
REMARK    2  A    between atoms: C_6  and  C_7 
REMARK    3  A    between atoms: C_7  and  C_8 
REMARK       I    between atoms: C_8  and  N_9 
REMARK    4  A    between atoms: N_9  and  C_10 
REMARK    5  A    between atoms: C_12  and  C_13 
ROOT
HETATM    1  C   UNL     1      40.722 -13.361   3.536  1.00  0.00     0.226 C 
HETATM    2  N   UNL     1      40.485 -13.072   4.874  1.00  0.00    -0.327 N 
HETATM    3  O   UNL     1      41.325 -12.649   2.739  1.00  0.00    -0.273 OA
HETATM    4  H   UNL     1      39.893 -13.720   5.378  1.00  0.00     0.169 HD
ENDROOT
BRANCH   1   5
HETATM    5  C   UNL     1      40.172 -14.722   3.130  1.00  0.00     0.144 C 
BRANCH   5   6
HETATM    6  C   UNL     1      41.175 -15.828   3.221  1.00  0.00    -0.021 A 
HETATM    7  C   UNL     1      41.811 -16.348   4.399  1.00  0.00    -0.001 A 
HETATM    8  C   UNL     1      42.741 -17.308   3.987  1.00  0.00     0.049 A 
HETATM    9  C   UNL     1      41.697 -16.081   5.777  1.00  0.00     0.014 A 
HETATM   10  C   UNL     1      43.586 -18.004   4.875  1.00  0.00    -0.031 A 
HETATM   11  N   UNL     1      42.639 -17.397   2.617  1.00  0.00    -0.364 N 
HETATM   12  C   UNL     1      43.426 -17.714   6.242  1.00  0.00     0.009 A 
HETATM   13  C   UNL     1      42.501 -16.774   6.687  1.00  0.00     0.002 A 
HETATM   14  C   UNL     1      41.712 -16.511   2.147  1.00  0.00     0.097 A 
HETATM   15  H   UNL     1      43.183 -18.027   2.045  1.00  0.00     0.165 HD
BRANCH  10  16
HETATM   16  C   UNL     1      44.609 -19.021   4.435  1.00  0.00     0.036 C 
HETATM   17  C   UNL     1      44.309 -20.407   4.981  1.00  0.00     0.010 C 
ENDBRANCH  10  16
ENDBRANCH   5   6
ENDBRANCH   1   5
BRANCH   2  18
HETATM   18  C   UNL     1      40.936 -11.957   5.610  1.00  0.00     0.035 A 
HETATM   19  C   UNL     1      42.312 -11.886   5.877  1.00  0.00     0.042 A 
HETATM   20  C   UNL     1      42.862 -10.804   6.585  1.00  0.00    -0.021 A 
HETATM   21  C   UNL     1      42.012  -9.782   7.021  1.00  0.00     0.012 A 
HETATM   22  C   UNL     1      40.642  -9.847   6.759  1.00  0.00     0.003 A 
HETATM   23  C   UNL     1      40.107 -10.931   6.060  1.00  0.00     0.029 A 
BRANCH  20  24
HETATM   24  C   UNL     1      44.287 -10.769   6.865  1.00  0.00     0.010 A 
HETATM   25  C   UNL     1      45.000 -10.236   7.965  1.00  0.00     0.152 A 
HETATM   26  N   UNL     1      46.320 -10.418   7.864  1.00  0.00    -0.187 NA
HETATM   27  N   UNL     1      46.459 -11.066   6.697  1.00  0.00    -0.289 N 
HETATM   28  H   UNL     1      47.393 -11.320   6.396  1.00  0.00     0.188 HD
HETATM   29  C   UNL     1      45.273 -11.302   6.062  1.00  0.00     0.123 A 
ENDBRANCH  20  24
ENDBRANCH   2  18
TORSDOF 5
ENDMDL
MODEL 10
REMARK VINA RESULT:      -7.9     17.960     20.070
REMARK  5 active torsions:
REMARK  status: ('A' for Active; 'I' for Inactive)
REMARK    1  A    between atoms: C_2  and  C_3 
REMARK    2  A    between atoms: C_6  and  C_7 
REMARK    3  A    between atoms: C_7  and  C_8 
REMARK       I    between atoms: C_8  and  N_9 
REMARK    4  A    between atoms: N_9  and  C_10 
REMARK    5  A    between atoms: C_12  and  C_13 
ROOT
HETATM    1  C   UNL     1      46.023 -29.094   1.495  1.00  0.00     0.226 C 
HETATM    2  N   UNL     1      46.852 -30.191   1.296  1.00  0.00    -0.327 N 
HETATM    3  O   UNL     1      46.371 -27.989   1.903  1.00  0.00    -0.273 OA
HETATM    4  H   UNL     1      46.397 -31.058   1.042  1.00  0.00     0.169 HD
ENDROOT
BRANCH   1   5
HETATM    5  C   UNL     1      44.577 -29.380   1.109  1.00  0.00     0.144 C 
BRANCH   5   6
HETATM    6  C   UNL     1      44.428 -30.023  -0.233  1.00  0.00    -0.021 A 
HETATM    7  C   UNL     1      44.659 -29.438  -1.523  1.00  0.00    -0.001 A 
HETATM    8  C   UNL     1      44.299 -30.385  -2.487  1.00  0.00     0.049 A 
HETATM    9  C   UNL     1      45.125 -28.184  -1.965  1.00  0.00     0.014 A 
HETATM   10  C   UNL     1      44.355 -30.143  -3.875  1.00  0.00    -0.031 A 
HETATM   11  N   UNL     1      43.909 -31.516  -1.806  1.00  0.00    -0.364 N 
HETATM   12  C   UNL     1      44.838 -28.882  -4.267  1.00  0.00     0.009 A 
HETATM   13  C   UNL     1      45.218 -27.921  -3.335  1.00  0.00     0.002 A 
HETATM   14  C   UNL     1      43.974 -31.309  -0.457  1.00  0.00     0.097 A 
HETATM   15  H   UNL     1      43.609 -32.373  -2.248  1.00  0.00     0.165 HD
BRANCH  10  16
HETATM   16  C   UNL     1      43.943 -31.152  -4.918  1.00  0.00     0.036 C 
HETATM   17  C   UNL     1      44.732 -30.995  -6.208  1.00  0.00     0.010 C 
ENDBRANCH  10  16
ENDBRANCH   5   6
ENDBRANCH   1   5
BRANCH   2  18
HETATM   18  C   UNL     1      48.251 -30.255   1.448  1.00  0.00     0.035 A 
HETATM   19  C   UNL     1      49.004 -30.549   0.300  1.00  0.00     0.042 A 
HETATM   20  C   UNL     1      50.406 -30.614   0.345  1.00  0.00    -0.021 A 
HETATM   21  C   UNL     1      51.054 -30.373   1.560  1.00  0.00     0.012 A 
HETATM   22  C   UNL     1      50.313 -30.079   2.706  1.00  0.00     0.003 A 
HETATM   23  C   UNL     1      48.918 -30.024   2.651  1.00  0.00     0.029 A 
BRANCH  20  24
HETATM   24  C   UNL     1      51.156 -30.943  -0.856  1.00  0.00     0.010 A 
HETATM   25  C   UNL     1      52.203 -31.871  -1.067  1.00  0.00     0.152 A 
HETATM   26  N   UNL     1      52.626 -31.895  -2.334  1.00  0.00    -0.187 NA
HETATM   27  N   UNL     1      51.854 -30.979  -2.940  1.00  0.00    -0.289 N 
HETATM   28  H   UNL     1      51.992 -30.814  -3.931  1.00  0.00     0.188 HD
HETATM   29  C   UNL     1      50.957 -30.383  -2.100  1.00  0.00     0.123 A 
ENDBRANCH  20  24
ENDBRANCH   2  18
TORSDOF 5
ENDMDL
