MODEL 1
REMARK VINA RESULT:      -9.6      0.000      0.000
REMARK  6 active torsions:
REMARK  status: ('A' for Active; 'I' for Inactive)
REMARK    1  A    between atoms: N_6  and  C_7 
REMARK    2  A    between atoms: C_8  and  N_9 
REMARK    3  A    between atoms: N_9  and  C_10 
REMARK    4  A    between atoms: C_10  and  N_11 
REMARK       I    between atoms: N_11  and  C_12 
REMARK    5  A    between atoms: C_12  and  C_13 
REMARK    6  A    between atoms: C_14  and  O_15 
ROOT
HETATM    1  C   UNL     1      42.626 -11.950   6.485  1.00  0.00     0.179 C 
HETATM    2  S   UNL     1      42.667 -10.709   5.350  1.00  0.00    -0.040 SA
ENDROOT
BRANCH   1   3
HETATM    3  N   UNL     1      43.443 -12.013   7.614  1.00  0.00    -0.331 N 
HETATM    4  H   UNL     1      43.644 -12.951   7.949  1.00  0.00     0.168 HD
BRANCH   3   5
HETATM    5  C   UNL     1      44.395 -11.037   8.005  1.00  0.00     0.061 A 
HETATM    6  C   UNL     1      44.010  -9.962   8.850  1.00  0.00     0.057 A 
HETATM    7  C   UNL     1      44.932  -8.899   8.947  1.00  0.00     0.031 A 
HETATM    8  C   UNL     1      46.198  -8.947   8.347  1.00  0.00     0.002 A 
HETATM    9  C   UNL     1      46.576 -10.050   7.600  1.00  0.00     0.002 A 
HETATM   10  C   UNL     1      45.668 -11.084   7.410  1.00  0.00     0.032 A 
BRANCH   6  11
HETATM   11  N   UNL     1      42.784  -9.967   9.566  1.00  0.00    -0.376 N 
HETATM   12  C   UNL     1      41.684  -9.081   9.105  1.00  0.00     0.150 C 
HETATM   13  C   UNL     1      41.844  -7.624   9.616  1.00  0.00     0.254 C 
HETATM   14  N   UNL     1      42.042  -7.580  11.131  1.00  0.00    -0.072 N 
HETATM   15  C   UNL     1      42.269  -6.184  11.630  1.00  0.00     0.269 C 
HETATM   16  H   UNL     1      41.176  -7.927  11.561  1.00  0.00     0.279 HD
HETATM   17  C   UNL     1      43.169  -8.515  11.572  1.00  0.00     0.254 C 
HETATM   18  C   UNL     1      42.904  -9.941  11.053  1.00  0.00     0.150 C 
ENDBRANCH   6  11
ENDBRANCH   3   5
ENDBRANCH   1   3
BRANCH   1  19
HETATM   19  N   UNL     1      41.831 -13.092   6.404  1.00  0.00    -0.299 N 
HETATM   20  C   UNL     1      42.341 -14.371   6.529  1.00  0.00     0.260 C 
HETATM   21  O   UNL     1      42.783 -14.799   7.591  1.00  0.00    -0.267 OA
HETATM   22  H   UNL     1      41.130 -13.001   5.679  1.00  0.00     0.171 HD
BRANCH  20  23
HETATM   23  C   UNL     1      42.291 -15.260   5.328  1.00  0.00     0.068 C 
HETATM   24  C   UNL     1      41.491 -15.047   4.196  1.00  0.00     0.102 C 
HETATM   25  C   UNL     1      41.479 -16.021   3.171  1.00  0.00     0.056 C 
HETATM   26 BR   UNL     1      40.154 -15.919   1.785  1.00  0.00    -0.047 Br
HETATM   27  C   UNL     1      42.381 -17.128   3.187  1.00  0.00    -0.006 A 
HETATM   28  C   UNL     1      43.234 -17.274   4.306  1.00  0.00    -0.024 A 
HETATM   29  C   UNL     1      42.500 -18.102   2.161  1.00  0.00     0.014 A 
HETATM   30  C   UNL     1      43.155 -16.365   5.366  1.00  0.00     0.032 C 
HETATM   31  C   UNL     1      44.157 -18.331   4.369  1.00  0.00     0.012 A 
HETATM   32  C   UNL     1      44.258 -19.259   3.336  1.00  0.00     0.001 A 
HETATM   33  C   UNL     1      43.426 -19.147   2.233  1.00  0.00     0.001 A 
BRANCH  24  34
HETATM   34  O   UNL     1      40.694 -13.924   4.171  1.00  0.00    -0.353 OA
HETATM   35  C   UNL     1      41.001 -13.034   3.087  1.00  0.00     0.210 C 
ENDBRANCH  24  34
ENDBRANCH  20  23
ENDBRANCH   1  19
TORSDOF 6
ENDMDL
MODEL 2
REMARK VINA RESULT:      -9.5      5.216      8.466
REMARK  6 active torsions:
REMARK  status: ('A' for Active; 'I' for Inactive)
REMARK    1  A    between atoms: N_6  and  C_7 
REMARK    2  A    between atoms: C_8  and  N_9 
REMARK    3  A    between atoms: N_9  and  C_10 
REMARK    4  A    between atoms: C_10  and  N_11 
REMARK       I    between atoms: N_11  and  C_12 
REMARK    5  A    between atoms: C_12  and  C_13 
REMARK    6  A    between atoms: C_14  and  O_15 
ROOT
HETATM    1  C   UNL     1      42.062 -12.229   2.258  1.00  0.00     0.179 C 
HETATM    2  S   UNL     1      43.204 -11.582   3.310  1.00  0.00    -0.040 SA
ENDROOT
BRANCH   1   3
HETATM    3  N   UNL     1      41.007 -11.507   1.698  1.00  0.00    -0.331 N 
HETATM    4  H   UNL     1      40.436 -10.994   2.364  1.00  0.00     0.168 HD
BRANCH   3   5
HETATM    5  C   UNL     1      40.958 -11.001   0.375  1.00  0.00     0.061 A 
HETATM    6  C   UNL     1      40.235 -11.698  -0.631  1.00  0.00     0.057 A 
HETATM    7  C   UNL     1      40.479 -11.286  -1.957  1.00  0.00     0.031 A 
HETATM    8  C   UNL     1      41.289 -10.183  -2.263  1.00  0.00     0.002 A 
HETATM    9  C   UNL     1      41.911  -9.471  -1.252  1.00  0.00     0.002 A 
HETATM   10  C   UNL     1      41.764  -9.892   0.063  1.00  0.00     0.032 A 
BRANCH   6  11
HETATM   11  N   UNL     1      39.312 -12.729  -0.317  1.00  0.00    -0.376 N 
HETATM   12  C   UNL     1      39.712 -14.141  -0.551  1.00  0.00     0.150 C 
HETATM   13  C   UNL     1      39.517 -14.574  -2.029  1.00  0.00     0.254 C 
HETATM   14  N   UNL     1      38.101 -14.272  -2.520  1.00  0.00    -0.072 N 
HETATM   15  C   UNL     1      37.919 -14.619  -3.967  1.00  0.00     0.269 C 
HETATM   16  H   UNL     1      37.459 -14.861  -1.975  1.00  0.00     0.279 HD
HETATM   17  C   UNL     1      37.716 -12.817  -2.247  1.00  0.00     0.254 C 
HETATM   18  C   UNL     1      37.904 -12.493  -0.753  1.00  0.00     0.150 C 
ENDBRANCH   6  11
ENDBRANCH   3   5
ENDBRANCH   1   3
BRANCH   1  19
HETATM   19  N   UNL     1      41.986 -13.566   1.872  1.00  0.00    -0.299 N 
HETATM   20  C   UNL     1      41.299 -14.519   2.601  1.00  0.00     0.260 C 
HETATM   21  O   UNL     1      40.075 -14.515   2.694  1.00  0.00    -0.267 OA
HETATM   22  H   UNL     1      42.871 -13.893   1.505  1.00  0.00     0.171 HD
BRANCH  20  23
HETATM   23  C   UNL     1      42.094 -15.610   3.243  1.00  0.00     0.068 C 
HETATM   24  C   UNL     1      42.661 -15.551   4.525  1.00  0.00     0.102 C 
HETATM   25  C   UNL     1      43.467 -16.626   4.969  1.00  0.00     0.056 C 
HETATM   26 BR   UNL     1      44.517 -16.424   6.563  1.00  0.00    -0.047 Br
HETATM   27  C   UNL     1      43.578 -17.832   4.212  1.00  0.00    -0.006 A 
HETATM   28  C   UNL     1      42.929 -17.892   2.958  1.00  0.00    -0.024 A 
HETATM   29  C   UNL     1      44.290 -18.991   4.621  1.00  0.00     0.014 A 
HETATM   30  C   UNL     1      42.230 -16.779   2.480  1.00  0.00     0.032 C 
HETATM   31  C   UNL     1      42.986 -19.060   2.178  1.00  0.00     0.012 A 
HETATM   32  C   UNL     1      43.679 -20.184   2.617  1.00  0.00     0.001 A 
HETATM   33  C   UNL     1      44.335 -20.149   3.838  1.00  0.00     0.001 A 
BRANCH  24  34
HETATM   34  O   UNL     1      42.464 -14.407   5.266  1.00  0.00    -0.353 OA
HETATM   35  C   UNL     1      41.347 -14.499   6.163  1.00  0.00     0.210 C 
ENDBRANCH  24  34
ENDBRANCH  20  23
ENDBRANCH   1  19
TORSDOF 6
ENDMDL
MODEL 3
REMARK VINA RESULT:      -9.4      5.935      8.456
REMARK  6 active torsions:
REMARK  status: ('A' for Active; 'I' for Inactive)
REMARK    1  A    between atoms: N_6  and  C_7 
REMARK    2  A    between atoms: C_8  and  N_9 
REMARK    3  A    between atoms: N_9  and  C_10 
REMARK    4  A    between atoms: C_10  and  N_11 
REMARK       I    between atoms: N_11  and  C_12 
REMARK    5  A    between atoms: C_12  and  C_13 
REMARK    6  A    between atoms: C_14  and  O_15 
ROOT
HETATM    1  C   UNL     1      41.482 -13.234   0.724  1.00  0.00     0.179 C 
HETATM    2  S   UNL     1      41.721 -12.232   2.054  1.00  0.00    -0.040 SA
ENDROOT
BRANCH   1   3
HETATM    3  N   UNL     1      41.285 -12.779  -0.581  1.00  0.00    -0.331 N 
HETATM    4  H   UNL     1      42.133 -12.664  -1.129  1.00  0.00     0.168 HD
BRANCH   3   5
HETATM    5  C   UNL     1      40.110 -12.960  -1.353  1.00  0.00     0.061 A 
HETATM    6  C   UNL     1      38.929 -12.236  -1.038  1.00  0.00     0.057 A 
HETATM    7  C   UNL     1      37.749 -12.687  -1.664  1.00  0.00     0.031 A 
HETATM    8  C   UNL     1      37.752 -13.706  -2.627  1.00  0.00     0.002 A 
HETATM    9  C   UNL     1      38.936 -14.333  -2.976  1.00  0.00     0.002 A 
HETATM   10  C   UNL     1      40.110 -13.977  -2.324  1.00  0.00     0.032 A 
BRANCH   6  11
HETATM   11  N   UNL     1      38.941 -11.117  -0.164  1.00  0.00    -0.376 N 
HETATM   12  C   UNL     1      38.224 -11.218   1.134  1.00  0.00     0.150 C 
HETATM   13  C   UNL     1      36.702 -10.945   0.992  1.00  0.00     0.254 C 
HETATM   14  N   UNL     1      36.435  -9.625   0.269  1.00  0.00    -0.072 N 
HETATM   15  C   UNL     1      34.970  -9.381   0.062  1.00  0.00     0.269 C 
HETATM   16  H   UNL     1      36.793  -8.871   0.870  1.00  0.00     0.279 HD
HETATM   17  C   UNL     1      37.201  -9.547  -1.052  1.00  0.00     0.254 C 
HETATM   18  C   UNL     1      38.702  -9.791  -0.806  1.00  0.00     0.150 C 
ENDBRANCH   6  11
ENDBRANCH   3   5
ENDBRANCH   1   3
BRANCH   1  19
HETATM   19  N   UNL     1      41.382 -14.623   0.768  1.00  0.00    -0.299 N 
HETATM   20  C   UNL     1      40.815 -15.301   1.831  1.00  0.00     0.260 C 
HETATM   21  O   UNL     1      39.614 -15.245   2.078  1.00  0.00    -0.267 OA
HETATM   22  H   UNL     1      42.218 -15.063   0.403  1.00  0.00     0.171 HD
BRANCH  20  23
HETATM   23  C   UNL     1      41.708 -16.167   2.660  1.00  0.00     0.068 C 
HETATM   24  C   UNL     1      42.197 -15.841   3.934  1.00  0.00     0.102 C 
HETATM   25  C   UNL     1      43.109 -16.719   4.565  1.00  0.00     0.056 C 
HETATM   26 BR   UNL     1      44.042 -16.141   6.141  1.00  0.00    -0.047 Br
HETATM   27  C   UNL     1      43.412 -17.999   4.009  1.00  0.00    -0.006 A 
HETATM   28  C   UNL     1      42.842 -18.334   2.760  1.00  0.00    -0.024 A 
HETATM   29  C   UNL     1      44.244 -18.978   4.616  1.00  0.00     0.014 A 
HETATM   30  C   UNL     1      42.032 -17.409   2.093  1.00  0.00     0.032 C 
HETATM   31  C   UNL     1      43.087 -19.587   2.174  1.00  0.00     0.012 A 
HETATM   32  C   UNL     1      43.895 -20.529   2.804  1.00  0.00     0.001 A 
HETATM   33  C   UNL     1      44.477 -20.224   4.025  1.00  0.00     0.001 A 
BRANCH  24  34
HETATM   34  O   UNL     1      41.818 -14.635   4.481  1.00  0.00    -0.353 OA
HETATM   35  C   UNL     1      40.733 -14.752   5.414  1.00  0.00     0.210 C 
ENDBRANCH  24  34
ENDBRANCH  20  23
ENDBRANCH   1  19
TORSDOF 6
ENDMDL
MODEL 4
REMARK VINA RESULT:      -9.3      5.122      8.208
REMARK  6 active torsions:
REMARK  status: ('A' for Active; 'I' for Inactive)
REMARK    1  A    between atoms: N_6  and  C_7 
REMARK    2  A    between atoms: C_8  and  N_9 
REMARK    3  A    between atoms: N_9  and  C_10 
REMARK    4  A    between atoms: C_10  and  N_11 
REMARK       I    between atoms: N_11  and  C_12 
REMARK    5  A    between atoms: C_12  and  C_13 
REMARK    6  A    between atoms: C_14  and  O_15 
ROOT
HETATM    1  C   UNL     1      41.120 -13.209   2.438  1.00  0.00     0.179 C 
HETATM    2  S   UNL     1      39.598 -13.324   3.145  1.00  0.00    -0.040 SA
ENDROOT
BRANCH   1   3
HETATM    3  N   UNL     1      41.349 -12.805   1.121  1.00  0.00    -0.331 N 
HETATM    4  H   UNL     1      42.328 -12.721   0.861  1.00  0.00     0.168 HD
BRANCH   3   5
HETATM    5  C   UNL     1      40.469 -13.005   0.028  1.00  0.00     0.061 A 
HETATM    6  C   UNL     1      39.674 -11.931  -0.455  1.00  0.00     0.057 A 
HETATM    7  C   UNL     1      38.634 -12.287  -1.338  1.00  0.00     0.031 A 
HETATM    8  C   UNL     1      38.464 -13.597  -1.807  1.00  0.00     0.002 A 
HETATM    9  C   UNL     1      39.311 -14.606  -1.382  1.00  0.00     0.002 A 
HETATM   10  C   UNL     1      40.298 -14.316  -0.450  1.00  0.00     0.032 A 
BRANCH   6  11
HETATM   11  N   UNL     1      39.925 -10.582  -0.087  1.00  0.00    -0.376 N 
HETATM   12  C   UNL     1      38.909  -9.551  -0.421  1.00  0.00     0.150 C 
HETATM   13  C   UNL     1      39.031  -9.053  -1.887  1.00  0.00     0.254 C 
HETATM   14  N   UNL     1      40.456  -8.606  -2.210  1.00  0.00    -0.072 N 
HETATM   15  C   UNL     1      40.605  -8.189  -3.643  1.00  0.00     0.269 C 
HETATM   16  H   UNL     1      40.657  -7.785  -1.625  1.00  0.00     0.279 HD
HETATM   17  C   UNL     1      41.476  -9.683  -1.838  1.00  0.00     0.254 C 
HETATM   18  C   UNL     1      41.304 -10.083  -0.361  1.00  0.00     0.150 C 
ENDBRANCH   6  11
ENDBRANCH   3   5
ENDBRANCH   1   3
BRANCH   1  19
HETATM   19  N   UNL     1      42.322 -13.562   3.047  1.00  0.00    -0.299 N 
HETATM   20  C   UNL     1      43.145 -14.560   2.559  1.00  0.00     0.260 C 
HETATM   21  O   UNL     1      43.758 -14.445   1.502  1.00  0.00    -0.267 OA
HETATM   22  H   UNL     1      42.237 -13.561   4.056  1.00  0.00     0.171 HD
BRANCH  20  23
HETATM   23  C   UNL     1      43.318 -15.788   3.393  1.00  0.00     0.068 C 
HETATM   24  C   UNL     1      43.343 -15.818   4.795  1.00  0.00     0.102 C 
HETATM   25  C   UNL     1      43.606 -17.043   5.452  1.00  0.00     0.056 C 
HETATM   26 BR   UNL     1      43.975 -17.046   7.336  1.00  0.00    -0.047 Br
HETATM   27  C   UNL     1      43.683 -18.272   4.728  1.00  0.00    -0.006 A 
HETATM   28  C   UNL     1      43.575 -18.221   3.319  1.00  0.00    -0.024 A 
HETATM   29  C   UNL     1      43.854 -19.555   5.311  1.00  0.00     0.014 A 
HETATM   30  C   UNL     1      43.428 -16.988   2.675  1.00  0.00     0.032 C 
HETATM   31  C   UNL     1      43.622 -19.399   2.555  1.00  0.00     0.012 A 
HETATM   32  C   UNL     1      43.775 -20.643   3.161  1.00  0.00     0.001 A 
HETATM   33  C   UNL     1      43.895 -20.721   4.540  1.00  0.00     0.001 A 
BRANCH  24  34
HETATM   34  O   UNL     1      43.180 -14.627   5.469  1.00  0.00    -0.353 OA
HETATM   35  C   UNL     1      41.897 -14.505   6.101  1.00  0.00     0.210 C 
ENDBRANCH  24  34
ENDBRANCH  20  23
ENDBRANCH   1  19
TORSDOF 6
ENDMDL
MODEL 5
REMARK VINA RESULT:      -9.2      5.828      8.177
REMARK  6 active torsions:
REMARK  status: ('A' for Active; 'I' for Inactive)
REMARK    1  A    between atoms: N_6  and  C_7 
REMARK    2  A    between atoms: C_8  and  N_9 
REMARK    3  A    between atoms: N_9  and  C_10 
REMARK    4  A    between atoms: C_10  and  N_11 
REMARK       I    between atoms: N_11  and  C_12 
REMARK    5  A    between atoms: C_12  and  C_13 
REMARK    6  A    between atoms: C_14  and  O_15 
ROOT
HETATM    1  C   UNL     1      41.680 -13.124   1.568  1.00  0.00     0.179 C 
HETATM    2  S   UNL     1      42.456 -12.066   2.620  1.00  0.00    -0.040 SA
ENDROOT
BRANCH   1   3
HETATM    3  N   UNL     1      40.468 -12.855   0.931  1.00  0.00    -0.331 N 
HETATM    4  H   UNL     1      39.772 -12.391   1.508  1.00  0.00     0.168 HD
BRANCH   3   5
HETATM    5  C   UNL     1      40.286 -12.673  -0.463  1.00  0.00     0.061 A 
HETATM    6  C   UNL     1      40.051 -11.374  -0.990  1.00  0.00     0.057 A 
HETATM    7  C   UNL     1      39.600 -11.327  -2.325  1.00  0.00     0.031 A 
HETATM    8  C   UNL     1      39.502 -12.474  -3.125  1.00  0.00     0.002 A 
HETATM    9  C   UNL     1      39.823 -13.717  -2.606  1.00  0.00     0.002 A 
HETATM   10  C   UNL     1      40.193 -13.820  -1.271  1.00  0.00     0.032 A 
BRANCH   6  11
HETATM   11  N   UNL     1      40.276 -10.199  -0.226  1.00  0.00    -0.376 N 
HETATM   12  C   UNL     1      39.331  -9.062  -0.371  1.00  0.00     0.150 C 
HETATM   13  C   UNL     1      39.651  -8.180  -1.608  1.00  0.00     0.254 C 
HETATM   14  N   UNL     1      41.114  -7.738  -1.618  1.00  0.00    -0.072 N 
HETATM   15  C   UNL     1      41.456  -6.944  -2.843  1.00  0.00     0.269 C 
HETATM   16  H   UNL     1      41.252  -7.126  -0.803  1.00  0.00     0.279 HD
HETATM   17  C   UNL     1      42.057  -8.930  -1.448  1.00  0.00     0.254 C 
HETATM   18  C   UNL     1      41.688  -9.718  -0.178  1.00  0.00     0.150 C 
ENDBRANCH   6  11
ENDBRANCH   3   5
ENDBRANCH   1   3
BRANCH   1  19
HETATM   19  N   UNL     1      42.109 -14.413   1.258  1.00  0.00    -0.299 N 
HETATM   20  C   UNL     1      41.463 -15.548   1.712  1.00  0.00     0.260 C 
HETATM   21  O   UNL     1      40.344 -15.866   1.319  1.00  0.00    -0.267 OA
HETATM   22  H   UNL     1      43.119 -14.481   1.284  1.00  0.00     0.171 HD
BRANCH  20  23
HETATM   23  C   UNL     1      42.196 -16.428   2.673  1.00  0.00     0.068 C 
HETATM   24  C   UNL     1      42.586 -16.062   3.970  1.00  0.00     0.102 C 
HETATM   25  C   UNL     1      43.355 -16.968   4.737  1.00  0.00     0.056 C 
HETATM   26 BR   UNL     1      44.178 -16.367   6.364  1.00  0.00    -0.047 Br
HETATM   27  C   UNL     1      43.600 -18.300   4.286  1.00  0.00    -0.006 A 
HETATM   28  C   UNL     1      43.125 -18.667   3.006  1.00  0.00    -0.024 A 
HETATM   29  C   UNL     1      44.283 -19.301   5.027  1.00  0.00     0.014 A 
HETATM   30  C   UNL     1      42.465 -17.725   2.211  1.00  0.00     0.032 C 
HETATM   31  C   UNL     1      43.318 -19.970   2.517  1.00  0.00     0.012 A 
HETATM   32  C   UNL     1      43.979 -20.932   3.277  1.00  0.00     0.001 A 
HETATM   33  C   UNL     1      44.465 -20.597   4.531  1.00  0.00     0.001 A 
BRANCH  24  34
HETATM   34  O   UNL     1      42.260 -14.797   4.409  1.00  0.00    -0.353 OA
HETATM   35  C   UNL     1      41.008 -14.746   5.109  1.00  0.00     0.210 C 
ENDBRANCH  24  34
ENDBRANCH  20  23
ENDBRANCH   1  19
TORSDOF 6
ENDMDL
MODEL 6
REMARK VINA RESULT:      -9.2      3.493      5.620
REMARK  6 active torsions:
REMARK  status: ('A' for Active; 'I' for Inactive)
REMARK    1  A    between atoms: N_6  and  C_7 
REMARK    2  A    between atoms: C_8  and  N_9 
REMARK    3  A    between atoms: N_9  and  C_10 
REMARK    4  A    between atoms: C_10  and  N_11 
REMARK       I    between atoms: N_11  and  C_12 
REMARK    5  A    between atoms: C_12  and  C_13 
REMARK    6  A    between atoms: C_14  and  O_15 
ROOT
HETATM    1  C   UNL     1      40.140 -14.159   1.984  1.00  0.00     0.179 C 
HETATM    2  S   UNL     1      40.099 -14.801   0.430  1.00  0.00    -0.040 SA
ENDROOT
BRANCH   1   3
HETATM    3  N   UNL     1      39.077 -13.485   2.587  1.00  0.00    -0.331 N 
HETATM    4  H   UNL     1      38.639 -13.977   3.361  1.00  0.00     0.168 HD
BRANCH   3   5
HETATM    5  C   UNL     1      38.891 -12.080   2.609  1.00  0.00     0.061 A 
HETATM    6  C   UNL     1      39.171 -11.340   3.790  1.00  0.00     0.057 A 
HETATM    7  C   UNL     1      38.689 -10.016   3.811  1.00  0.00     0.031 A 
HETATM    8  C   UNL     1      38.077  -9.421   2.698  1.00  0.00     0.002 A 
HETATM    9  C   UNL     1      37.898 -10.144   1.531  1.00  0.00     0.002 A 
HETATM   10  C   UNL     1      38.284 -11.478   1.493  1.00  0.00     0.032 A 
BRANCH   6  11
HETATM   11  N   UNL     1      39.907 -11.895   4.870  1.00  0.00    -0.376 N 
HETATM   12  C   UNL     1      39.213 -12.118   6.165  1.00  0.00     0.150 C 
HETATM   13  C   UNL     1      39.139 -10.829   7.027  1.00  0.00     0.254 C 
HETATM   14  N   UNL     1      40.517 -10.189   7.197  1.00  0.00    -0.072 N 
HETATM   15  C   UNL     1      40.452  -8.905   7.968  1.00  0.00     0.269 C 
HETATM   16  H   UNL     1      41.094 -10.847   7.737  1.00  0.00     0.279 HD
HETATM   17  C   UNL     1      41.209  -9.990   5.848  1.00  0.00     0.254 C 
HETATM   18  C   UNL     1      41.270 -11.326   5.084  1.00  0.00     0.150 C 
ENDBRANCH   6  11
ENDBRANCH   3   5
ENDBRANCH   1   3
BRANCH   1  19
HETATM   19  N   UNL     1      41.248 -14.159   2.828  1.00  0.00    -0.299 N 
HETATM   20  C   UNL     1      42.439 -14.780   2.502  1.00  0.00     0.260 C 
HETATM   21  O   UNL     1      43.169 -14.368   1.605  1.00  0.00    -0.267 OA
HETATM   22  H   UNL     1      40.974 -14.284   3.795  1.00  0.00     0.171 HD
BRANCH  20  23
HETATM   23  C   UNL     1      42.855 -15.961   3.319  1.00  0.00     0.068 C 
HETATM   24  C   UNL     1      43.053 -15.955   4.708  1.00  0.00     0.102 C 
HETATM   25  C   UNL     1      43.534 -17.126   5.339  1.00  0.00     0.056 C 
HETATM   26 BR   UNL     1      44.128 -17.042   7.163  1.00  0.00    -0.047 Br
HETATM   27  C   UNL     1      43.665 -18.354   4.622  1.00  0.00    -0.006 A 
HETATM   28  C   UNL     1      43.382 -18.349   3.237  1.00  0.00    -0.024 A 
HETATM   29  C   UNL     1      44.055 -19.595   5.192  1.00  0.00     0.014 A 
HETATM   30  C   UNL     1      43.016 -17.157   2.604  1.00  0.00     0.032 C 
HETATM   31  C   UNL     1      43.473 -19.532   2.484  1.00  0.00     0.012 A 
HETATM   32  C   UNL     1      43.843 -20.735   3.078  1.00  0.00     0.001 A 
HETATM   33  C   UNL     1      44.137 -20.767   4.433  1.00  0.00     0.001 A 
BRANCH  24  34
HETATM   34  O   UNL     1      42.836 -14.775   5.385  1.00  0.00    -0.353 OA
HETATM   35  C   UNL     1      41.699 -14.825   6.262  1.00  0.00     0.210 C 
ENDBRANCH  24  34
ENDBRANCH  20  23
ENDBRANCH   1  19
TORSDOF 6
ENDMDL
MODEL 7
REMARK VINA RESULT:      -9.2      5.256      7.650
REMARK  6 active torsions:
REMARK  status: ('A' for Active; 'I' for Inactive)
REMARK    1  A    between atoms: N_6  and  C_7 
REMARK    2  A    between atoms: C_8  and  N_9 
REMARK    3  A    between atoms: N_9  and  C_10 
REMARK    4  A    between atoms: C_10  and  N_11 
REMARK       I    between atoms: N_11  and  C_12 
REMARK    5  A    between atoms: C_12  and  C_13 
REMARK    6  A    between atoms: C_14  and  O_15 
ROOT
HETATM    1  C   UNL     1      42.461 -12.707   2.634  1.00  0.00     0.179 C 
HETATM    2  S   UNL     1      43.109 -11.341   3.372  1.00  0.00    -0.040 SA
ENDROOT
BRANCH   1   3
HETATM    3  N   UNL     1      41.102 -12.893   2.376  1.00  0.00    -0.331 N 
HETATM    4  H   UNL     1      40.762 -13.840   2.522  1.00  0.00     0.168 HD
BRANCH   3   5
HETATM    5  C   UNL     1      40.099 -11.895   2.451  1.00  0.00     0.061 A 
HETATM    6  C   UNL     1      39.754 -11.139   1.298  1.00  0.00     0.057 A 
HETATM    7  C   UNL     1      38.970  -9.991   1.530  1.00  0.00     0.031 A 
HETATM    8  C   UNL     1      38.458  -9.675   2.797  1.00  0.00     0.002 A 
HETATM    9  C   UNL     1      38.741 -10.482   3.885  1.00  0.00     0.002 A 
HETATM   10  C   UNL     1      39.578 -11.577   3.718  1.00  0.00     0.032 A 
BRANCH   6  11
HETATM   11  N   UNL     1      40.159 -11.528  -0.006  1.00  0.00    -0.376 N 
HETATM   12  C   UNL     1      40.346 -10.475  -1.038  1.00  0.00     0.150 C 
HETATM   13  C   UNL     1      39.008 -10.054  -1.703  1.00  0.00     0.254 C 
HETATM   14  N   UNL     1      38.236 -11.265  -2.227  1.00  0.00    -0.072 N 
HETATM   15  C   UNL     1      36.909 -10.881  -2.809  1.00  0.00     0.269 C 
HETATM   16  H   UNL     1      38.798 -11.681  -2.981  1.00  0.00     0.279 HD
HETATM   17  C   UNL     1      38.078 -12.335  -1.145  1.00  0.00     0.254 C 
HETATM   18  C   UNL     1      39.457 -12.715  -0.574  1.00  0.00     0.150 C 
ENDBRANCH   6  11
ENDBRANCH   3   5
ENDBRANCH   1   3
BRANCH   1  19
HETATM   19  N   UNL     1      43.180 -13.838   2.256  1.00  0.00    -0.299 N 
HETATM   20  C   UNL     1      42.589 -15.073   2.062  1.00  0.00     0.260 C 
HETATM   21  O   UNL     1      41.824 -15.293   1.127  1.00  0.00    -0.267 OA
HETATM   22  H   UNL     1      44.072 -13.884   2.734  1.00  0.00     0.171 HD
BRANCH  20  23
HETATM   23  C   UNL     1      42.953 -16.174   3.005  1.00  0.00     0.068 C 
HETATM   24  C   UNL     1      43.067 -16.043   4.397  1.00  0.00     0.102 C 
HETATM   25  C   UNL     1      43.509 -17.151   5.157  1.00  0.00     0.056 C 
HETATM   26 BR   UNL     1      43.992 -16.902   6.999  1.00  0.00    -0.047 Br
HETATM   27  C   UNL     1      43.680 -18.438   4.562  1.00  0.00    -0.006 A 
HETATM   28  C   UNL     1      43.479 -18.558   3.168  1.00  0.00    -0.024 A 
HETATM   29  C   UNL     1      44.032 -19.622   5.263  1.00  0.00     0.014 A 
HETATM   30  C   UNL     1      43.154 -17.429   2.411  1.00  0.00     0.032 C 
HETATM   31  C   UNL     1      43.613 -19.803   2.530  1.00  0.00     0.012 A 
HETATM   32  C   UNL     1      43.944 -20.947   3.251  1.00  0.00     0.001 A 
HETATM   33  C   UNL     1      44.157 -20.857   4.618  1.00  0.00     0.001 A 
BRANCH  24  34
HETATM   34  O   UNL     1      42.813 -14.808   4.952  1.00  0.00    -0.353 OA
HETATM   35  C   UNL     1      41.495 -14.699   5.510  1.00  0.00     0.210 C 
ENDBRANCH  24  34
ENDBRANCH  20  23
ENDBRANCH   1  19
TORSDOF 6
ENDMDL
MODEL 8
REMARK VINA RESULT:      -8.9      1.622      2.136
REMARK  6 active torsions:
REMARK  status: ('A' for Active; 'I' for Inactive)
REMARK    1  A    between atoms: N_6  and  C_7 
REMARK    2  A    between atoms: C_8  and  N_9 
REMARK    3  A    between atoms: N_9  and  C_10 
REMARK    4  A    between atoms: C_10  and  N_11 
REMARK       I    between atoms: N_11  and  C_12 
REMARK    5  A    between atoms: C_12  and  C_13 
REMARK    6  A    between atoms: C_14  and  O_15 
ROOT
HETATM    1  C   UNL     1      41.381 -10.019   6.228  1.00  0.00     0.179 C 
HETATM    2  S   UNL     1      41.492  -8.380   5.868  1.00  0.00    -0.040 SA
ENDROOT
BRANCH   1   3
HETATM    3  N   UNL     1      42.029 -10.636   7.299  1.00  0.00    -0.331 N 
HETATM    4  H   UNL     1      41.824 -11.625   7.414  1.00  0.00     0.168 HD
BRANCH   3   5
HETATM    5  C   UNL     1      43.257 -10.224   7.874  1.00  0.00     0.061 A 
HETATM    6  C   UNL     1      43.270  -9.259   8.917  1.00  0.00     0.057 A 
HETATM    7  C   UNL     1      44.529  -8.703   9.222  1.00  0.00     0.031 A 
HETATM    8  C   UNL     1      45.714  -9.155   8.623  1.00  0.00     0.002 A 
HETATM    9  C   UNL     1      45.676 -10.160   7.672  1.00  0.00     0.002 A 
HETATM   10  C   UNL     1      44.448 -10.679   7.281  1.00  0.00     0.032 A 
BRANCH   6  11
HETATM   11  N   UNL     1      42.092  -8.892   9.619  1.00  0.00    -0.376 N 
HETATM   12  C   UNL     1      41.864  -7.457   9.931  1.00  0.00     0.150 C 
HETATM   13  C   UNL     1      42.627  -6.999  11.203  1.00  0.00     0.254 C 
HETATM   14  N   UNL     1      42.336  -7.915  12.391  1.00  0.00    -0.072 N 
HETATM   15  C   UNL     1      43.121  -7.527  13.608  1.00  0.00     0.269 C 
HETATM   16  H   UNL     1      41.339  -7.812  12.618  1.00  0.00     0.279 HD
HETATM   17  C   UNL     1      42.563  -9.384  12.031  1.00  0.00     0.254 C 
HETATM   18  C   UNL     1      41.738  -9.755  10.784  1.00  0.00     0.150 C 
ENDBRANCH   6  11
ENDBRANCH   3   5
ENDBRANCH   1   3
BRANCH   1  19
HETATM   19  N   UNL     1      40.692 -10.966   5.474  1.00  0.00    -0.299 N 
HETATM   20  C   UNL     1      40.349 -12.212   5.967  1.00  0.00     0.260 C 
HETATM   21  O   UNL     1      39.509 -12.358   6.850  1.00  0.00    -0.267 OA
HETATM   22  H   UNL     1      41.020 -10.983   4.516  1.00  0.00     0.171 HD
BRANCH  20  23
HETATM   23  C   UNL     1      41.000 -13.407   5.349  1.00  0.00     0.068 C 
HETATM   24  C   UNL     1      40.695 -13.933   4.085  1.00  0.00     0.102 C 
HETATM   25  C   UNL     1      41.328 -15.125   3.665  1.00  0.00     0.056 C 
HETATM   26 BR   UNL     1      40.687 -16.038   2.102  1.00  0.00    -0.047 Br
HETATM   27  C   UNL     1      42.386 -15.711   4.426  1.00  0.00    -0.006 A 
HETATM   28  C   UNL     1      42.727 -15.113   5.660  1.00  0.00    -0.024 A 
HETATM   29  C   UNL     1      43.136 -16.853   4.038  1.00  0.00     0.014 A 
HETATM   30  C   UNL     1      42.014 -13.999   6.116  1.00  0.00     0.032 C 
HETATM   31  C   UNL     1      43.772 -15.632   6.442  1.00  0.00     0.012 A 
HETATM   32  C   UNL     1      44.498 -16.744   6.024  1.00  0.00     0.001 A 
HETATM   33  C   UNL     1      44.178 -17.358   4.823  1.00  0.00     0.001 A 
BRANCH  24  34
HETATM   34  O   UNL     1      39.729 -13.295   3.337  1.00  0.00    -0.353 OA
HETATM   35  C   UNL     1      40.272 -12.464   2.300  1.00  0.00     0.210 C 
ENDBRANCH  24  34
ENDBRANCH  20  23
ENDBRANCH   1  19
TORSDOF 6
ENDMDL
MODEL 9
REMARK VINA RESULT:      -8.8      1.594      2.110
REMARK  6 active torsions:
REMARK  status: ('A' for Active; 'I' for Inactive)
REMARK    1  A    between atoms: N_6  and  C_7 
REMARK    2  A    between atoms: C_8  and  N_9 
REMARK    3  A    between atoms: N_9  and  C_10 
REMARK    4  A    between atoms: C_10  and  N_11 
REMARK       I    between atoms: N_11  and  C_12 
REMARK    5  A    between atoms: C_12  and  C_13 
REMARK    6  A    between atoms: C_14  and  O_15 
ROOT
HETATM    1  C   UNL     1      43.682 -11.388   6.649  1.00  0.00     0.179 C 
HETATM    2  S   UNL     1      45.263 -11.562   6.103  1.00  0.00    -0.040 SA
ENDROOT
BRANCH   1   3
HETATM    3  N   UNL     1      43.179 -10.237   7.257  1.00  0.00    -0.331 N 
HETATM    4  H   UNL     1      42.361  -9.835   6.808  1.00  0.00     0.168 HD
BRANCH   3   5
HETATM    5  C   UNL     1      43.325  -9.891   8.624  1.00  0.00     0.061 A 
HETATM    6  C   UNL     1      42.496  -8.891   9.201  1.00  0.00     0.057 A 
HETATM    7  C   UNL     1      42.900  -8.414  10.464  1.00  0.00     0.031 A 
HETATM    8  C   UNL     1      43.980  -8.969  11.166  1.00  0.00     0.002 A 
HETATM    9  C   UNL     1      44.715 -10.003  10.612  1.00  0.00     0.002 A 
HETATM   10  C   UNL     1      44.403 -10.448   9.334  1.00  0.00     0.032 A 
BRANCH   6  11
HETATM   11  N   UNL     1      41.324  -8.418   8.553  1.00  0.00    -0.376 N 
HETATM   12  C   UNL     1      41.005  -6.968   8.625  1.00  0.00     0.150 C 
HETATM   13  C   UNL     1      40.290  -6.584   9.948  1.00  0.00     0.254 C 
HETATM   14  N   UNL     1      39.072  -7.471  10.205  1.00  0.00    -0.072 N 
HETATM   15  C   UNL     1      38.412  -7.159  11.514  1.00  0.00     0.269 C 
HETATM   16  H   UNL     1      38.391  -7.276   9.459  1.00  0.00     0.279 HD
HETATM   17  C   UNL     1      39.432  -8.954  10.105  1.00  0.00     0.254 C 
HETATM   18  C   UNL     1      40.098  -9.245   8.748  1.00  0.00     0.150 C 
ENDBRANCH   6  11
ENDBRANCH   3   5
ENDBRANCH   1   3
BRANCH   1  19
HETATM   19  N   UNL     1      42.706 -12.383   6.626  1.00  0.00    -0.299 N 
HETATM   20  C   UNL     1      43.001 -13.726   6.762  1.00  0.00     0.260 C 
HETATM   21  O   UNL     1      43.409 -14.204   7.816  1.00  0.00    -0.267 OA
HETATM   22  H   UNL     1      42.000 -12.189   5.925  1.00  0.00     0.171 HD
BRANCH  20  23
HETATM   23  C   UNL     1      42.756 -14.615   5.585  1.00  0.00     0.068 C 
HETATM   24  C   UNL     1      41.862 -14.345   4.539  1.00  0.00     0.102 C 
HETATM   25  C   UNL     1      41.665 -15.321   3.534  1.00  0.00     0.056 C 
HETATM   26 BR   UNL     1      40.215 -15.120   2.292  1.00  0.00    -0.047 Br
HETATM   27  C   UNL     1      42.473 -16.497   3.473  1.00  0.00    -0.006 A 
HETATM   28  C   UNL     1      43.424 -16.704   4.499  1.00  0.00    -0.024 A 
HETATM   29  C   UNL     1      42.406 -17.483   2.453  1.00  0.00     0.014 A 
HETATM   30  C   UNL     1      43.528 -15.786   5.548  1.00  0.00     0.032 C 
HETATM   31  C   UNL     1      44.261 -17.832   4.481  1.00  0.00     0.012 A 
HETATM   32  C   UNL     1      44.180 -18.771   3.456  1.00  0.00     0.001 A 
HETATM   33  C   UNL     1      43.249 -18.599   2.443  1.00  0.00     0.001 A 
BRANCH  24  34
HETATM   34  O   UNL     1      41.158 -13.161   4.581  1.00  0.00    -0.353 OA
HETATM   35  C   UNL     1      39.865 -13.293   5.192  1.00  0.00     0.210 C 
ENDBRANCH  24  34
ENDBRANCH  20  23
ENDBRANCH   1  19
TORSDOF 6
ENDMDL
MODEL 10
REMARK VINA RESULT:      -8.6      1.932      2.474
REMARK  6 active torsions:
REMARK  status: ('A' for Active; 'I' for Inactive)
REMARK    1  A    between atoms: N_6  and  C_7 
REMARK    2  A    between atoms: C_8  and  N_9 
REMARK    3  A    between atoms: N_9  and  C_10 
REMARK    4  A    between atoms: C_10  and  N_11 
REMARK       I    between atoms: N_11  and  C_12 
REMARK    5  A    between atoms: C_12  and  C_13 
REMARK    6  A    between atoms: C_14  and  O_15 
ROOT
HETATM    1  C   UNL     1      42.337 -11.222   6.502  1.00  0.00     0.179 C 
HETATM    2  S   UNL     1      43.995 -11.504   6.559  1.00  0.00    -0.040 SA
ENDROOT
BRANCH   1   3
HETATM    3  N   UNL     1      41.627 -10.498   7.460  1.00  0.00    -0.331 N 
HETATM    4  H   UNL     1      41.260 -11.049   8.231  1.00  0.00     0.168 HD
BRANCH   3   5
HETATM    5  C   UNL     1      41.798  -9.122   7.754  1.00  0.00     0.061 A 
HETATM    6  C   UNL     1      41.709  -8.662   9.095  1.00  0.00     0.057 A 
HETATM    7  C   UNL     1      41.603  -7.265   9.258  1.00  0.00     0.031 A 
HETATM    8  C   UNL     1      41.699  -6.375   8.179  1.00  0.00     0.002 A 
HETATM    9  C   UNL     1      41.873  -6.854   6.892  1.00  0.00     0.002 A 
HETATM   10  C   UNL     1      41.900  -8.226   6.676  1.00  0.00     0.032 A 
BRANCH   6  11
HETATM   11  N   UNL     1      41.744  -9.551  10.202  1.00  0.00    -0.376 N 
HETATM   12  C   UNL     1      40.779  -9.347  11.313  1.00  0.00     0.150 C 
HETATM   13  C   UNL     1      41.252  -8.261  12.317  1.00  0.00     0.254 C 
HETATM   14  N   UNL     1      42.673  -8.537  12.811  1.00  0.00    -0.072 N 
HETATM   15  C   UNL     1      43.171  -7.459  13.726  1.00  0.00     0.269 C 
HETATM   16  H   UNL     1      42.643  -9.413  13.348  1.00  0.00     0.279 HD
HETATM   17  C   UNL     1      43.635  -8.760  11.643  1.00  0.00     0.254 C 
HETATM   18  C   UNL     1      43.102  -9.877  10.727  1.00  0.00     0.150 C 
ENDBRANCH   6  11
ENDBRANCH   3   5
ENDBRANCH   1   3
BRANCH   1  19
HETATM   19  N   UNL     1      41.466 -11.728   5.539  1.00  0.00    -0.299 N 
HETATM   20  C   UNL     1      40.799 -12.930   5.689  1.00  0.00     0.260 C 
HETATM   21  O   UNL     1      39.911 -13.087   6.521  1.00  0.00    -0.267 OA
HETATM   22  H   UNL     1      41.821 -11.573   4.603  1.00  0.00     0.171 HD
BRANCH  20  23
HETATM   23  C   UNL     1      41.154 -14.043   4.757  1.00  0.00     0.068 C 
HETATM   24  C   UNL     1      40.618 -14.226   3.473  1.00  0.00     0.102 C 
HETATM   25  C   UNL     1      40.980 -15.378   2.736  1.00  0.00     0.056 C 
HETATM   26 BR   UNL     1      40.014 -15.819   1.136  1.00  0.00    -0.047 Br
HETATM   27  C   UNL     1      41.998 -16.267   3.199  1.00  0.00    -0.006 A 
HETATM   28  C   UNL     1      42.577 -16.012   4.463  1.00  0.00    -0.024 A 
HETATM   29  C   UNL     1      42.486 -17.394   2.486  1.00  0.00     0.014 A 
HETATM   30  C   UNL     1      42.129 -14.933   5.231  1.00  0.00     0.032 C 
HETATM   31  C   UNL     1      43.597 -16.839   4.963  1.00  0.00     0.012 A 
HETATM   32  C   UNL     1      44.063 -17.927   4.229  1.00  0.00     0.001 A 
HETATM   33  C   UNL     1      43.505 -18.207   2.991  1.00  0.00     0.001 A 
BRANCH  24  34
HETATM   34  O   UNL     1      39.701 -13.304   3.019  1.00  0.00    -0.353 OA
HETATM   35  C   UNL     1      40.278 -12.306   2.162  1.00  0.00     0.210 C 
ENDBRANCH  24  34
ENDBRANCH  20  23
ENDBRANCH   1  19
TORSDOF 6
ENDMDL
