MODEL 1
REMARK VINA RESULT:      -9.3      0.000      0.000
REMARK  3 active torsions:
REMARK  status: ('A' for Active; 'I' for Inactive)
REMARK    1  A    between atoms: C_3  and  C_4 
REMARK    2  A    between atoms: C_8  and  C_9 
REMARK       I    between atoms: C_9  and  N_10 
REMARK    3  A    between atoms: N_10  and  C_11 
ROOT
HETATM    1  C   UNL     1      43.489 -12.093   7.168  1.00  0.00     0.064 A 
HETATM    2  N   UNL     1      42.244 -11.832   6.658  1.00  0.00    -0.277 N 
HETATM    3  H   UNL     1      41.734 -10.955   6.709  1.00  0.00     0.189 HD
HETATM    4  N   UNL     1      41.655 -12.881   6.052  1.00  0.00    -0.169 NA
HETATM    5  C   UNL     1      42.555 -13.876   6.184  1.00  0.00     0.147 A 
HETATM    6  C   UNL     1      43.716 -13.420   6.855  1.00  0.00     0.071 A 
ENDROOT
BRANCH   5   7
HETATM    7  C   UNL     1      42.298 -15.239   5.686  1.00  0.00     0.276 C 
HETATM    8  N   UNL     1      43.310 -15.682   4.857  1.00  0.00    -0.322 N 
HETATM    9  H   UNL     1      44.069 -15.011   4.756  1.00  0.00     0.169 HD
HETATM   10  O   UNL     1      41.283 -15.853   5.999  1.00  0.00    -0.266 OA
BRANCH   8  11
HETATM   11  C   UNL     1      43.394 -16.891   4.147  1.00  0.00     0.035 A 
HETATM   12  C   UNL     1      43.746 -18.109   4.735  1.00  0.00     0.039 A 
HETATM   13  C   UNL     1      43.776 -19.247   3.942  1.00  0.00    -0.024 A 
HETATM   14  C   UNL     1      43.467 -19.199   2.594  1.00  0.00    -0.026 A 
HETATM   15  C   UNL     1      44.081 -20.647   4.327  1.00  0.00     0.207 C 
HETATM   16  C   UNL     1      43.552 -20.564   2.022  1.00  0.00     0.207 C 
HETATM   17  C   UNL     1      43.115 -18.007   1.987  1.00  0.00     0.012 A 
HETATM   18  O   UNL     1      44.127 -21.372   3.076  1.00  0.00    -0.382 OA
HETATM   19  C   UNL     1      43.082 -16.850   2.773  1.00  0.00     0.030 A 
ENDBRANCH   8  11
ENDBRANCH   5   7
BRANCH   1  20
HETATM   20  C   UNL     1      44.331 -11.108   7.859  1.00  0.00     0.014 A 
HETATM   21  C   UNL     1      43.864 -10.575   9.074  1.00  0.00     0.015 A 
HETATM   22  C   UNL     1      44.603  -9.626   9.785  1.00  0.00     0.001 A 
HETATM   23  C   UNL     1      45.826  -9.185   9.292  1.00  0.00     0.002 A 
HETATM   24  C   UNL     1      46.311  -9.696   8.090  1.00  0.00     0.025 A 
HETATM   25  C   UNL     1      45.573 -10.650   7.375  1.00  0.00     0.046 A 
HETATM   26 CL   UNL     1      46.259 -11.197   5.881  1.00  0.00    -0.083 Cl
ENDBRANCH   1  20
TORSDOF 3
ENDMDL
MODEL 2
REMARK VINA RESULT:      -8.5      2.912      8.978
REMARK  3 active torsions:
REMARK  status: ('A' for Active; 'I' for Inactive)
REMARK    1  A    between atoms: C_3  and  C_4 
REMARK    2  A    between atoms: C_8  and  C_9 
REMARK       I    between atoms: C_9  and  N_10 
REMARK    3  A    between atoms: N_10  and  C_11 
ROOT
HETATM    1  C   UNL     1      42.760 -16.770   3.752  1.00  0.00     0.064 A 
HETATM    2  N   UNL     1      41.513 -16.289   3.446  1.00  0.00    -0.277 N 
HETATM    3  H   UNL     1      40.737 -16.811   3.051  1.00  0.00     0.189 HD
HETATM    4  N   UNL     1      41.345 -14.975   3.687  1.00  0.00    -0.169 NA
HETATM    5  C   UNL     1      42.543 -14.578   4.161  1.00  0.00     0.147 A 
HETATM    6  C   UNL     1      43.443 -15.670   4.234  1.00  0.00     0.071 A 
ENDROOT
BRANCH   5   7
HETATM    7  C   UNL     1      42.820 -13.177   4.524  1.00  0.00     0.276 C 
HETATM    8  N   UNL     1      43.529 -13.083   5.706  1.00  0.00    -0.322 N 
HETATM    9  H   UNL     1      43.763 -13.989   6.106  1.00  0.00     0.169 HD
HETATM   10  O   UNL     1      42.434 -12.247   3.823  1.00  0.00    -0.266 OA
BRANCH   8  11
HETATM   11  C   UNL     1      43.921 -11.928   6.402  1.00  0.00     0.035 A 
HETATM   12  C   UNL     1      43.050 -10.881   6.713  1.00  0.00     0.039 A 
HETATM   13  C   UNL     1      43.541  -9.796   7.425  1.00  0.00    -0.024 A 
HETATM   14  C   UNL     1      44.864  -9.733   7.829  1.00  0.00    -0.026 A 
HETATM   15  C   UNL     1      42.823  -8.590   7.904  1.00  0.00     0.207 C 
HETATM   16  C   UNL     1      45.084  -8.482   8.594  1.00  0.00     0.207 C 
HETATM   17  C   UNL     1      45.747 -10.755   7.535  1.00  0.00     0.012 A 
HETATM   18  O   UNL     1      43.859  -7.729   8.434  1.00  0.00    -0.382 OA
HETATM   19  C   UNL     1      45.267 -11.855   6.815  1.00  0.00     0.030 A 
ENDBRANCH   8  11
ENDBRANCH   5   7
BRANCH   1  20
HETATM   20  C   UNL     1      43.177 -18.169   3.589  1.00  0.00     0.014 A 
HETATM   21  C   UNL     1      43.100 -18.737   2.304  1.00  0.00     0.015 A 
HETATM   22  C   UNL     1      43.469 -20.064   2.072  1.00  0.00     0.001 A 
HETATM   23  C   UNL     1      43.920 -20.855   3.123  1.00  0.00     0.002 A 
HETATM   24  C   UNL     1      44.005 -20.317   4.405  1.00  0.00     0.025 A 
HETATM   25  C   UNL     1      43.638 -18.985   4.642  1.00  0.00     0.046 A 
HETATM   26 CL   UNL     1      43.758 -18.429   6.278  1.00  0.00    -0.083 Cl
ENDBRANCH   1  20
TORSDOF 3
ENDMDL
MODEL 3
REMARK VINA RESULT:      -8.4      5.975      9.312
REMARK  3 active torsions:
REMARK  status: ('A' for Active; 'I' for Inactive)
REMARK    1  A    between atoms: C_3  and  C_4 
REMARK    2  A    between atoms: C_8  and  C_9 
REMARK       I    between atoms: C_9  and  N_10 
REMARK    3  A    between atoms: N_10  and  C_11 
ROOT
HETATM    1  C   UNL     1      42.681 -16.931   2.420  1.00  0.00     0.064 A 
HETATM    2  N   UNL     1      43.444 -15.880   1.981  1.00  0.00    -0.277 N 
HETATM    3  H   UNL     1      44.458 -15.815   1.992  1.00  0.00     0.189 HD
HETATM    4  N   UNL     1      42.740 -14.831   1.516  1.00  0.00    -0.169 NA
HETATM    5  C   UNL     1      41.456 -15.212   1.670  1.00  0.00     0.147 A 
HETATM    6  C   UNL     1      41.379 -16.519   2.212  1.00  0.00     0.071 A 
ENDROOT
BRANCH   5   7
HETATM    7  C   UNL     1      40.327 -14.332   1.316  1.00  0.00     0.276 C 
HETATM    8  N   UNL     1      40.233 -14.143  -0.049  1.00  0.00    -0.322 N 
HETATM    9  H   UNL     1      40.934 -14.662  -0.575  1.00  0.00     0.169 HD
HETATM   10  O   UNL     1      39.599 -13.850   2.176  1.00  0.00    -0.266 OA
BRANCH   8  11
HETATM   11  C   UNL     1      39.337 -13.329  -0.760  1.00  0.00     0.035 A 
HETATM   12  C   UNL     1      39.135 -11.975  -0.481  1.00  0.00     0.039 A 
HETATM   13  C   UNL     1      38.240 -11.260  -1.263  1.00  0.00    -0.024 A 
HETATM   14  C   UNL     1      37.550 -11.857  -2.305  1.00  0.00    -0.026 A 
HETATM   15  C   UNL     1      37.878  -9.823  -1.194  1.00  0.00     0.207 C 
HETATM   16  C   UNL     1      36.700 -10.843  -2.975  1.00  0.00     0.207 C 
HETATM   17  C   UNL     1      37.731 -13.195  -2.603  1.00  0.00     0.012 A 
HETATM   18  O   UNL     1      36.785  -9.671  -2.131  1.00  0.00    -0.382 OA
HETATM   19  C   UNL     1      38.629 -13.930  -1.821  1.00  0.00     0.030 A 
ENDBRANCH   8  11
ENDBRANCH   5   7
BRANCH   1  20
HETATM   20  C   UNL     1      43.221 -18.187   2.957  1.00  0.00     0.014 A 
HETATM   21  C   UNL     1      43.136 -19.340   2.154  1.00  0.00     0.015 A 
HETATM   22  C   UNL     1      43.618 -20.573   2.599  1.00  0.00     0.001 A 
HETATM   23  C   UNL     1      44.192 -20.682   3.861  1.00  0.00     0.002 A 
HETATM   24  C   UNL     1      44.287 -19.556   4.676  1.00  0.00     0.025 A 
HETATM   25  C   UNL     1      43.807 -18.316   4.232  1.00  0.00     0.046 A 
HETATM   26 CL   UNL     1      43.953 -16.990   5.337  1.00  0.00    -0.083 Cl
ENDBRANCH   1  20
TORSDOF 3
ENDMDL
MODEL 4
REMARK VINA RESULT:      -8.3      6.167      9.128
REMARK  3 active torsions:
REMARK  status: ('A' for Active; 'I' for Inactive)
REMARK    1  A    between atoms: C_3  and  C_4 
REMARK    2  A    between atoms: C_8  and  C_9 
REMARK       I    between atoms: C_9  and  N_10 
REMARK    3  A    between atoms: N_10  and  C_11 
ROOT
HETATM    1  C   UNL     1      42.936 -17.471   2.841  1.00  0.00     0.064 A 
HETATM    2  N   UNL     1      43.772 -16.714   2.062  1.00  0.00    -0.277 N 
HETATM    3  H   UNL     1      44.774 -16.833   1.947  1.00  0.00     0.189 HD
HETATM    4  N   UNL     1      43.169 -15.699   1.414  1.00  0.00    -0.169 NA
HETATM    5  C   UNL     1      41.880 -15.793   1.799  1.00  0.00     0.147 A 
HETATM    6  C   UNL     1      41.692 -16.894   2.671  1.00  0.00     0.071 A 
ENDROOT
BRANCH   5   7
HETATM    7  C   UNL     1      40.853 -14.836   1.346  1.00  0.00     0.276 C 
HETATM    8  N   UNL     1      41.035 -14.474   0.027  1.00  0.00    -0.322 N 
HETATM    9  H   UNL     1      41.822 -14.947  -0.415  1.00  0.00     0.169 HD
HETATM   10  O   UNL     1      39.972 -14.441   2.102  1.00  0.00    -0.266 OA
BRANCH   8  11
HETATM   11  C   UNL     1      40.307 -13.546  -0.735  1.00  0.00     0.035 A 
HETATM   12  C   UNL     1      40.664 -12.200  -0.861  1.00  0.00     0.039 A 
HETATM   13  C   UNL     1      39.883 -11.377  -1.658  1.00  0.00    -0.024 A 
HETATM   14  C   UNL     1      38.769 -11.857  -2.325  1.00  0.00    -0.026 A 
HETATM   15  C   UNL     1      40.066  -9.939  -1.979  1.00  0.00     0.207 C 
HETATM   16  C   UNL     1      38.162 -10.762  -3.119  1.00  0.00     0.207 C 
HETATM   17  C   UNL     1      38.394 -13.184  -2.219  1.00  0.00     0.012 A 
HETATM   18  O   UNL     1      38.872  -9.569  -2.710  1.00  0.00    -0.382 OA
HETATM   19  C   UNL     1      39.170 -14.027  -1.416  1.00  0.00     0.030 A 
ENDBRANCH   8  11
ENDBRANCH   5   7
BRANCH   1  20
HETATM   20  C   UNL     1      43.358 -18.636   3.630  1.00  0.00     0.014 A 
HETATM   21  C   UNL     1      43.562 -18.461   5.011  1.00  0.00     0.015 A 
HETATM   22  C   UNL     1      43.973 -19.519   5.826  1.00  0.00     0.001 A 
HETATM   23  C   UNL     1      44.195 -20.776   5.275  1.00  0.00     0.002 A 
HETATM   24  C   UNL     1      44.001 -20.976   3.910  1.00  0.00     0.025 A 
HETATM   25  C   UNL     1      43.586 -19.918   3.089  1.00  0.00     0.046 A 
HETATM   26 CL   UNL     1      43.402 -20.273   1.404  1.00  0.00    -0.083 Cl
ENDBRANCH   1  20
TORSDOF 3
ENDMDL
MODEL 5
REMARK VINA RESULT:      -8.2      2.879      9.194
REMARK  3 active torsions:
REMARK  status: ('A' for Active; 'I' for Inactive)
REMARK    1  A    between atoms: C_3  and  C_4 
REMARK    2  A    between atoms: C_8  and  C_9 
REMARK       I    between atoms: C_9  and  N_10 
REMARK    3  A    between atoms: N_10  and  C_11 
ROOT
HETATM    1  C   UNL     1      43.795 -16.945   5.043  1.00  0.00     0.064 A 
HETATM    2  N   UNL     1      44.593 -16.798   6.148  1.00  0.00    -0.277 N 
HETATM    3  H   UNL     1      45.208 -17.498   6.554  1.00  0.00     0.189 HD
HETATM    4  N   UNL     1      44.510 -15.595   6.745  1.00  0.00    -0.169 NA
HETATM    5  C   UNL     1      43.605 -14.928   6.000  1.00  0.00     0.147 A 
HETATM    6  C   UNL     1      43.152 -15.728   4.922  1.00  0.00     0.071 A 
ENDROOT
BRANCH   5   7
HETATM    7  C   UNL     1      43.176 -13.556   6.326  1.00  0.00     0.276 C 
HETATM    8  N   UNL     1      44.223 -12.789   6.798  1.00  0.00    -0.322 N 
HETATM    9  H   UNL     1      45.111 -13.288   6.812  1.00  0.00     0.169 HD
HETATM   10  O   UNL     1      42.012 -13.199   6.182  1.00  0.00    -0.266 OA
BRANCH   8  11
HETATM   11  C   UNL     1      44.198 -11.466   7.266  1.00  0.00     0.035 A 
HETATM   12  C   UNL     1      43.156 -10.572   7.001  1.00  0.00     0.039 A 
HETATM   13  C   UNL     1      43.224  -9.294   7.533  1.00  0.00    -0.024 A 
HETATM   14  C   UNL     1      44.293  -8.890   8.315  1.00  0.00    -0.026 A 
HETATM   15  C   UNL     1      42.245  -8.184   7.429  1.00  0.00     0.207 C 
HETATM   16  C   UNL     1      44.072  -7.494   8.765  1.00  0.00     0.207 C 
HETATM   17  C   UNL     1      45.337  -9.753   8.594  1.00  0.00     0.012 A 
HETATM   18  O   UNL     1      42.910  -7.047   8.030  1.00  0.00    -0.382 OA
HETATM   19  C   UNL     1      45.284 -11.046   8.062  1.00  0.00     0.030 A 
ENDBRANCH   8  11
ENDBRANCH   5   7
BRANCH   1  20
HETATM   20  C   UNL     1      43.724 -18.159   4.220  1.00  0.00     0.014 A 
HETATM   21  C   UNL     1      43.994 -19.394   4.838  1.00  0.00     0.015 A 
HETATM   22  C   UNL     1      43.956 -20.591   4.119  1.00  0.00     0.001 A 
HETATM   23  C   UNL     1      43.651 -20.579   2.763  1.00  0.00     0.002 A 
HETATM   24  C   UNL     1      43.380 -19.369   2.126  1.00  0.00     0.025 A 
HETATM   25  C   UNL     1      43.415 -18.166   2.845  1.00  0.00     0.046 A 
HETATM   26 CL   UNL     1      43.088 -16.721   1.947  1.00  0.00    -0.083 Cl
ENDBRANCH   1  20
TORSDOF 3
ENDMDL
MODEL 6
REMARK VINA RESULT:      -8.2      3.129      4.568
REMARK  3 active torsions:
REMARK  status: ('A' for Active; 'I' for Inactive)
REMARK    1  A    between atoms: C_3  and  C_4 
REMARK    2  A    between atoms: C_8  and  C_9 
REMARK       I    between atoms: C_9  and  N_10 
REMARK    3  A    between atoms: N_10  and  C_11 
ROOT
HETATM    1  C   UNL     1      44.020  -9.425  10.027  1.00  0.00     0.064 A 
HETATM    2  N   UNL     1      45.303  -9.899  10.124  1.00  0.00    -0.277 N 
HETATM    3  H   UNL     1      45.992  -9.655  10.830  1.00  0.00     0.189 HD
HETATM    4  N   UNL     1      45.660 -10.758   9.151  1.00  0.00    -0.169 NA
HETATM    5  C   UNL     1      44.560 -10.838   8.375  1.00  0.00     0.147 A 
HETATM    6  C   UNL     1      43.514 -10.039   8.897  1.00  0.00     0.071 A 
ENDROOT
BRANCH   5   7
HETATM    7  C   UNL     1      44.521 -11.658   7.150  1.00  0.00     0.276 C 
HETATM    8  N   UNL     1      43.679 -12.744   7.285  1.00  0.00    -0.322 N 
HETATM    9  H   UNL     1      43.210 -12.777   8.188  1.00  0.00     0.169 HD
HETATM   10  O   UNL     1      45.186 -11.363   6.163  1.00  0.00    -0.266 OA
BRANCH   8  11
HETATM   11  C   UNL     1      43.429 -13.777   6.368  1.00  0.00     0.035 A 
HETATM   12  C   UNL     1      43.941 -15.071   6.504  1.00  0.00     0.039 A 
HETATM   13  C   UNL     1      43.611 -16.021   5.549  1.00  0.00    -0.024 A 
HETATM   14  C   UNL     1      42.792 -15.715   4.475  1.00  0.00    -0.026 A 
HETATM   15  C   UNL     1      43.991 -17.454   5.485  1.00  0.00     0.207 C 
HETATM   16  C   UNL     1      42.592 -16.931   3.649  1.00  0.00     0.207 C 
HETATM   17  C   UNL     1      42.273 -14.444   4.316  1.00  0.00     0.012 A 
HETATM   18  O   UNL     1      43.508 -17.907   4.197  1.00  0.00    -0.382 OA
HETATM   19  C   UNL     1      42.598 -13.473   5.270  1.00  0.00     0.030 A 
ENDBRANCH   8  11
ENDBRANCH   5   7
BRANCH   1  20
HETATM   20  C   UNL     1      43.401  -8.490  10.975  1.00  0.00     0.014 A 
HETATM   21  C   UNL     1      43.276  -8.896  12.317  1.00  0.00     0.015 A 
HETATM   22  C   UNL     1      42.689  -8.066  13.276  1.00  0.00     0.001 A 
HETATM   23  C   UNL     1      42.211  -6.813  12.913  1.00  0.00     0.002 A 
HETATM   24  C   UNL     1      42.323  -6.387  11.591  1.00  0.00     0.025 A 
HETATM   25  C   UNL     1      42.912  -7.215  10.626  1.00  0.00     0.046 A 
HETATM   26 CL   UNL     1      42.975  -6.596   9.009  1.00  0.00    -0.083 Cl
ENDBRANCH   1  20
TORSDOF 3
ENDMDL
MODEL 7
REMARK VINA RESULT:      -8.0      6.135      9.145
REMARK  3 active torsions:
REMARK  status: ('A' for Active; 'I' for Inactive)
REMARK    1  A    between atoms: C_3  and  C_4 
REMARK    2  A    between atoms: C_8  and  C_9 
REMARK       I    between atoms: C_9  and  N_10 
REMARK    3  A    between atoms: N_10  and  C_11 
ROOT
HETATM    1  C   UNL     1      41.738 -16.156   2.699  1.00  0.00     0.064 A 
HETATM    2  N   UNL     1      40.592 -15.867   3.394  1.00  0.00    -0.277 N 
HETATM    3  H   UNL     1      40.224 -16.366   4.199  1.00  0.00     0.189 HD
HETATM    4  N   UNL     1      39.893 -14.821   2.914  1.00  0.00    -0.169 NA
HETATM    5  C   UNL     1      40.613 -14.416   1.848  1.00  0.00     0.147 A 
HETATM    6  C   UNL     1      41.777 -15.209   1.693  1.00  0.00     0.071 A 
ENDROOT
BRANCH   5   7
HETATM    7  C   UNL     1      40.184 -13.297   0.990  1.00  0.00     0.276 C 
HETATM    8  N   UNL     1      41.049 -13.099  -0.068  1.00  0.00    -0.322 N 
HETATM    9  H   UNL     1      41.813 -13.772  -0.092  1.00  0.00     0.169 HD
HETATM   10  O   UNL     1      39.172 -12.651   1.241  1.00  0.00    -0.266 OA
BRANCH   8  11
HETATM   11  C   UNL     1      41.012 -12.102  -1.055  1.00  0.00     0.035 A 
HETATM   12  C   UNL     1      41.326 -10.761  -0.811  1.00  0.00     0.039 A 
HETATM   13  C   UNL     1      41.278  -9.864  -1.867  1.00  0.00    -0.024 A 
HETATM   14  C   UNL     1      40.929 -10.266  -3.145  1.00  0.00    -0.026 A 
HETATM   15  C   UNL     1      41.595  -8.414  -1.877  1.00  0.00     0.207 C 
HETATM   16  C   UNL     1      40.998  -9.102  -4.062  1.00  0.00     0.207 C 
HETATM   17  C   UNL     1      40.614 -11.585  -3.415  1.00  0.00     0.012 A 
HETATM   18  O   UNL     1      41.211  -7.961  -3.197  1.00  0.00    -0.382 OA
HETATM   19  C   UNL     1      40.656 -12.503  -2.359  1.00  0.00     0.030 A 
ENDBRANCH   8  11
ENDBRANCH   5   7
BRANCH   1  20
HETATM   20  C   UNL     1      42.669 -17.240   3.038  1.00  0.00     0.014 A 
HETATM   21  C   UNL     1      42.711 -18.364   2.193  1.00  0.00     0.015 A 
HETATM   22  C   UNL     1      43.564 -19.440   2.455  1.00  0.00     0.001 A 
HETATM   23  C   UNL     1      44.389 -19.417   3.573  1.00  0.00     0.002 A 
HETATM   24  C   UNL     1      44.366 -18.316   4.427  1.00  0.00     0.025 A 
HETATM   25  C   UNL     1      43.514 -17.234   4.166  1.00  0.00     0.046 A 
HETATM   26 CL   UNL     1      43.548 -15.931   5.308  1.00  0.00    -0.083 Cl
ENDBRANCH   1  20
TORSDOF 3
ENDMDL
MODEL 8
REMARK VINA RESULT:      -7.9     15.921     17.444
REMARK  3 active torsions:
REMARK  status: ('A' for Active; 'I' for Inactive)
REMARK    1  A    between atoms: C_3  and  C_4 
REMARK    2  A    between atoms: C_8  and  C_9 
REMARK       I    between atoms: C_9  and  N_10 
REMARK    3  A    between atoms: N_10  and  C_11 
ROOT
HETATM    1  C   UNL     1      48.550 -29.509   2.526  1.00  0.00     0.064 A 
HETATM    2  N   UNL     1      48.044 -28.247   2.701  1.00  0.00    -0.277 N 
HETATM    3  H   UNL     1      48.034 -27.707   3.562  1.00  0.00     0.189 HD
HETATM    4  N   UNL     1      47.488 -27.707   1.600  1.00  0.00    -0.169 NA
HETATM    5  C   UNL     1      47.629 -28.669   0.665  1.00  0.00     0.147 A 
HETATM    6  C   UNL     1      48.301 -29.797   1.198  1.00  0.00     0.071 A 
ENDROOT
BRANCH   5   7
HETATM    7  C   UNL     1      47.116 -28.511  -0.708  1.00  0.00     0.276 C 
HETATM    8  N   UNL     1      46.332 -29.581  -1.090  1.00  0.00    -0.322 N 
HETATM    9  H   UNL     1      46.218 -30.277  -0.355  1.00  0.00     0.169 HD
HETATM   10  O   UNL     1      47.394 -27.526  -1.384  1.00  0.00    -0.266 OA
BRANCH   8  11
HETATM   11  C   UNL     1      45.724 -29.822  -2.332  1.00  0.00     0.035 A 
HETATM   12  C   UNL     1      46.303 -30.600  -3.339  1.00  0.00     0.039 A 
HETATM   13  C   UNL     1      45.602 -30.790  -4.520  1.00  0.00    -0.024 A 
HETATM   14  C   UNL     1      44.352 -30.231  -4.719  1.00  0.00    -0.026 A 
HETATM   15  C   UNL     1      45.977 -31.591  -5.711  1.00  0.00     0.207 C 
HETATM   16  C   UNL     1      43.840 -30.633  -6.051  1.00  0.00     0.207 C 
HETATM   17  C   UNL     1      43.755 -29.457  -3.741  1.00  0.00     0.012 A 
HETATM   18  O   UNL     1      44.956 -31.293  -6.693  1.00  0.00    -0.382 OA
HETATM   19  C   UNL     1      44.451 -29.253  -2.544  1.00  0.00     0.030 A 
ENDBRANCH   8  11
ENDBRANCH   5   7
BRANCH   1  20
HETATM   20  C   UNL     1      49.214 -30.294   3.574  1.00  0.00     0.014 A 
HETATM   21  C   UNL     1      50.612 -30.191   3.693  1.00  0.00     0.015 A 
HETATM   22  C   UNL     1      51.316 -30.914   4.659  1.00  0.00     0.001 A 
HETATM   23  C   UNL     1      50.636 -31.762   5.526  1.00  0.00     0.002 A 
HETATM   24  C   UNL     1      49.252 -31.883   5.429  1.00  0.00     0.025 A 
HETATM   25  C   UNL     1      48.542 -31.158   4.462  1.00  0.00     0.046 A 
HETATM   26 CL   UNL     1      46.828 -31.406   4.415  1.00  0.00    -0.083 Cl
ENDBRANCH   1  20
TORSDOF 3
ENDMDL
MODEL 9
REMARK VINA RESULT:      -7.6      6.239      8.731
REMARK  3 active torsions:
REMARK  status: ('A' for Active; 'I' for Inactive)
REMARK    1  A    between atoms: C_3  and  C_4 
REMARK    2  A    between atoms: C_8  and  C_9 
REMARK       I    between atoms: C_9  and  N_10 
REMARK    3  A    between atoms: N_10  and  C_11 
ROOT
HETATM    1  C   UNL     1      42.506 -15.866   3.272  1.00  0.00     0.064 A 
HETATM    2  N   UNL     1      43.316 -14.869   2.795  1.00  0.00    -0.277 N 
HETATM    3  H   UNL     1      44.213 -14.577   3.173  1.00  0.00     0.189 HD
HETATM    4  N   UNL     1      42.828 -14.213   1.725  1.00  0.00    -0.169 NA
HETATM    5  C   UNL     1      41.637 -14.803   1.502  1.00  0.00     0.147 A 
HETATM    6  C   UNL     1      41.410 -15.848   2.431  1.00  0.00     0.071 A 
ENDROOT
BRANCH   5   7
HETATM    7  C   UNL     1      40.731 -14.364   0.425  1.00  0.00     0.276 C 
HETATM    8  N   UNL     1      41.075 -13.116  -0.058  1.00  0.00    -0.322 N 
HETATM    9  H   UNL     1      41.905 -12.729   0.387  1.00  0.00     0.169 HD
HETATM   10  O   UNL     1      39.796 -15.064   0.051  1.00  0.00    -0.266 OA
BRANCH   8  11
HETATM   11  C   UNL     1      40.422 -12.343  -1.030  1.00  0.00     0.035 A 
HETATM   12  C   UNL     1      39.057 -12.041  -0.989  1.00  0.00     0.039 A 
HETATM   13  C   UNL     1      38.520 -11.249  -1.992  1.00  0.00    -0.024 A 
HETATM   14  C   UNL     1      39.302 -10.757  -3.024  1.00  0.00    -0.026 A 
HETATM   15  C   UNL     1      37.128 -10.762  -2.156  1.00  0.00     0.207 C 
HETATM   16  C   UNL     1      38.464  -9.922  -3.919  1.00  0.00     0.207 C 
HETATM   17  C   UNL     1      40.653 -11.040  -3.090  1.00  0.00     0.012 A 
HETATM   18  O   UNL     1      37.109 -10.126  -3.456  1.00  0.00    -0.382 OA
HETATM   19  C   UNL     1      41.210 -11.840  -2.086  1.00  0.00     0.030 A 
ENDBRANCH   8  11
ENDBRANCH   5   7
BRANCH   1  20
HETATM   20  C   UNL     1      42.828 -16.726   4.418  1.00  0.00     0.014 A 
HETATM   21  C   UNL     1      42.439 -16.294   5.699  1.00  0.00     0.015 A 
HETATM   22  C   UNL     1      42.719 -17.053   6.839  1.00  0.00     0.001 A 
HETATM   23  C   UNL     1      43.399 -18.260   6.722  1.00  0.00     0.002 A 
HETATM   24  C   UNL     1      43.795 -18.710   5.464  1.00  0.00     0.025 A 
HETATM   25  C   UNL     1      43.515 -17.953   4.319  1.00  0.00     0.046 A 
HETATM   26 CL   UNL     1      44.078 -18.595   2.811  1.00  0.00    -0.083 Cl
ENDBRANCH   1  20
TORSDOF 3
ENDMDL
MODEL 10
REMARK VINA RESULT:      -7.6      3.860      8.738
REMARK  3 active torsions:
REMARK  status: ('A' for Active; 'I' for Inactive)
REMARK    1  A    between atoms: C_3  and  C_4 
REMARK    2  A    between atoms: C_8  and  C_9 
REMARK       I    between atoms: C_9  and  N_10 
REMARK    3  A    between atoms: N_10  and  C_11 
ROOT
HETATM    1  C   UNL     1      43.598 -17.008   5.052  1.00  0.00     0.064 A 
HETATM    2  N   UNL     1      44.187 -16.658   6.240  1.00  0.00    -0.277 N 
HETATM    3  H   UNL     1      44.735 -17.258   6.850  1.00  0.00     0.189 HD
HETATM    4  N   UNL     1      43.976 -15.383   6.617  1.00  0.00    -0.169 NA
HETATM    5  C   UNL     1      43.202 -14.881   5.633  1.00  0.00     0.147 A 
HETATM    6  C   UNL     1      42.961 -15.855   4.633  1.00  0.00     0.071 A 
ENDROOT
BRANCH   5   7
HETATM    7  C   UNL     1      42.695 -13.497   5.661  1.00  0.00     0.276 C 
HETATM    8  N   UNL     1      41.337 -13.442   5.413  1.00  0.00    -0.322 N 
HETATM    9  H   UNL     1      40.916 -14.360   5.283  1.00  0.00     0.169 HD
HETATM   10  O   UNL     1      43.440 -12.548   5.878  1.00  0.00    -0.266 OA
BRANCH   8  11
HETATM   11  C   UNL     1      40.514 -12.311   5.297  1.00  0.00     0.035 A 
HETATM   12  C   UNL     1      40.473 -11.499   4.159  1.00  0.00     0.039 A 
HETATM   13  C   UNL     1      39.603 -10.418   4.144  1.00  0.00    -0.024 A 
HETATM   14  C   UNL     1      38.784 -10.132   5.223  1.00  0.00    -0.026 A 
HETATM   15  C   UNL     1      39.349  -9.438   3.060  1.00  0.00     0.207 C 
HETATM   16  C   UNL     1      37.949  -8.949   4.904  1.00  0.00     0.207 C 
HETATM   17  C   UNL     1      38.804 -10.918   6.360  1.00  0.00     0.012 A 
HETATM   18  O   UNL     1      38.479  -8.446   3.655  1.00  0.00    -0.382 OA
HETATM   19  C   UNL     1      39.678 -12.011   6.392  1.00  0.00     0.030 A 
ENDBRANCH   8  11
ENDBRANCH   5   7
BRANCH   1  20
HETATM   20  C   UNL     1      43.697 -18.334   4.431  1.00  0.00     0.014 A 
HETATM   21  C   UNL     1      43.949 -19.439   5.266  1.00  0.00     0.015 A 
HETATM   22  C   UNL     1      44.066 -20.731   4.747  1.00  0.00     0.001 A 
HETATM   23  C   UNL     1      43.938 -20.946   3.380  1.00  0.00     0.002 A 
HETATM   24  C   UNL     1      43.689 -19.870   2.531  1.00  0.00     0.025 A 
HETATM   25  C   UNL     1      43.568 -18.573   3.048  1.00  0.00     0.046 A 
HETATM   26 CL   UNL     1      43.285 -17.307   1.899  1.00  0.00    -0.083 Cl
ENDBRANCH   1  20
TORSDOF 3
ENDMDL
