MODEL 1
REMARK VINA RESULT:      -7.5      0.000      0.000
REMARK  8 active torsions:
REMARK  status: ('A' for Active; 'I' for Inactive)
REMARK    1  A    between atoms: O_2  and  C_3 
REMARK    2  A    between atoms: C_4  and  O_5 
REMARK    3  A    between atoms: O_5  and  C_6 
REMARK    4  A    between atoms: C_6  and  C_7 
REMARK       I    between atoms: C_7  and  N_8 
REMARK    5  A    between atoms: N_8  and  C_9 
REMARK    6  A    between atoms: C_9  and  N_10 
REMARK    7  A    between atoms: N_10  and  N_11 
REMARK       I    between atoms: N_11  and  C_12 
REMARK       I    between atoms: C_12  and  N_13 
REMARK    8  A    between atoms: N_13  and  C_14 
ROOT
HETATM    1  C   UNL     1      43.108 -13.523   5.736  1.00  0.00     0.189 C 
HETATM    2  S   UNL     1      43.581 -11.958   6.059  1.00  0.00    -0.039 SA
ENDROOT
BRANCH   1   3
HETATM    3  N   UNL     1      43.774 -14.689   6.071  1.00  0.00    -0.301 N 
HETATM    4  C   UNL     1      43.440 -15.651   7.031  1.00  0.00     0.248 C 
HETATM    5  O   UNL     1      42.913 -15.409   8.111  1.00  0.00    -0.271 OA
HETATM    6  H   UNL     1      44.495 -14.945   5.418  1.00  0.00     0.171 HD
BRANCH   4   7
HETATM    7  C   UNL     1      43.883 -17.057   6.604  1.00  0.00     0.278 C 
BRANCH   7   8
HETATM    8  O   UNL     1      44.585 -17.033   5.374  1.00  0.00    -0.339 OA
BRANCH   8   9
HETATM    9  C   UNL     1      44.118 -17.792   4.337  1.00  0.00     0.102 A 
HETATM   10  C   UNL     1      43.341 -17.165   3.347  1.00  0.00     0.101 A 
HETATM   11  C   UNL     1      42.814 -17.930   2.294  1.00  0.00     0.039 A 
HETATM   12  C   UNL     1      43.061 -19.298   2.202  1.00  0.00     0.003 A 
HETATM   13  C   UNL     1      43.830 -19.920   3.176  1.00  0.00     0.003 A 
HETATM   14  C   UNL     1      44.348 -19.175   4.240  1.00  0.00     0.039 A 
BRANCH  10  15
HETATM   15  O   UNL     1      42.981 -15.844   3.254  1.00  0.00    -0.353 OA
HETATM   16  C   UNL     1      43.536 -15.060   2.207  1.00  0.00     0.210 C 
ENDBRANCH  10  15
ENDBRANCH   8   9
ENDBRANCH   7   8
ENDBRANCH   4   7
ENDBRANCH   1   3
BRANCH   1  17
HETATM   17  N   UNL     1      41.894 -13.713   5.109  1.00  0.00    -0.289 N 
HETATM   18  H   UNL     1      41.912 -14.078   4.156  1.00  0.00     0.183 HD
BRANCH  17  19
HETATM   19  N   UNL     1      40.665 -13.777   5.800  1.00  0.00    -0.153 NA
HETATM   20  C   UNL     1      39.583 -13.088   5.326  1.00  0.00     0.317 C 
HETATM   21  N   UNL     1      39.375 -12.899   4.002  1.00  0.00    -0.312 N 
HETATM   22  O   UNL     1      38.841 -12.542   6.145  1.00  0.00    -0.252 OA
HETATM   23  H   UNL     1      38.716 -12.144   3.845  1.00  0.00     0.170 HD
HETATM   24  H   UNL     1      40.725 -13.574   6.793  1.00  0.00     0.157 HD
BRANCH  21  25
HETATM   25  C   UNL     1      39.726 -13.630   2.855  1.00  0.00     0.035 A 
HETATM   26  C   UNL     1      39.575 -15.011   2.729  1.00  0.00     0.029 A 
HETATM   27  C   UNL     1      39.944 -15.654   1.544  1.00  0.00     0.002 A 
HETATM   28  C   UNL     1      40.448 -14.919   0.471  1.00  0.00     0.000 A 
HETATM   29  C   UNL     1      40.571 -13.538   0.576  1.00  0.00     0.002 A 
HETATM   30  C   UNL     1      40.202 -12.896   1.760  1.00  0.00     0.029 A 
ENDBRANCH  21  25
ENDBRANCH  17  19
ENDBRANCH   1  17
TORSDOF 8
ENDMDL
MODEL 2
REMARK VINA RESULT:      -7.2      4.231      6.586
REMARK  8 active torsions:
REMARK  status: ('A' for Active; 'I' for Inactive)
REMARK    1  A    between atoms: O_2  and  C_3 
REMARK    2  A    between atoms: C_4  and  O_5 
REMARK    3  A    between atoms: O_5  and  C_6 
REMARK    4  A    between atoms: C_6  and  C_7 
REMARK       I    between atoms: C_7  and  N_8 
REMARK    5  A    between atoms: N_8  and  C_9 
REMARK    6  A    between atoms: C_9  and  N_10 
REMARK    7  A    between atoms: N_10  and  N_11 
REMARK       I    between atoms: N_11  and  C_12 
REMARK       I    between atoms: C_12  and  N_13 
REMARK    8  A    between atoms: N_13  and  C_14 
ROOT
HETATM    1  C   UNL     1      42.745 -11.154   6.553  1.00  0.00     0.189 C 
HETATM    2  S   UNL     1      41.684  -9.901   6.267  1.00  0.00    -0.039 SA
ENDROOT
BRANCH   1   3
HETATM    3  N   UNL     1      43.117 -12.159   5.676  1.00  0.00    -0.301 N 
HETATM    4  C   UNL     1      43.040 -13.546   5.842  1.00  0.00     0.248 C 
HETATM    5  O   UNL     1      43.216 -14.136   6.902  1.00  0.00    -0.271 OA
HETATM    6  H   UNL     1      43.307 -11.832   4.744  1.00  0.00     0.171 HD
BRANCH   4   7
HETATM    7  C   UNL     1      42.781 -14.264   4.510  1.00  0.00     0.278 C 
BRANCH   7   8
HETATM    8  O   UNL     1      42.160 -15.522   4.707  1.00  0.00    -0.339 OA
BRANCH   8   9
HETATM    9  C   UNL     1      42.686 -16.618   4.082  1.00  0.00     0.102 A 
HETATM   10  C   UNL     1      43.677 -17.358   4.753  1.00  0.00     0.101 A 
HETATM   11  C   UNL     1      44.264 -18.464   4.117  1.00  0.00     0.039 A 
HETATM   12  C   UNL     1      43.872 -18.852   2.837  1.00  0.00     0.003 A 
HETATM   13  C   UNL     1      42.893 -18.126   2.173  1.00  0.00     0.003 A 
HETATM   14  C   UNL     1      42.311 -17.013   2.786  1.00  0.00     0.039 A 
BRANCH  10  15
HETATM   15  O   UNL     1      44.202 -17.144   6.002  1.00  0.00    -0.353 OA
HETATM   16  C   UNL     1      43.466 -17.584   7.135  1.00  0.00     0.210 C 
ENDBRANCH  10  15
ENDBRANCH   8   9
ENDBRANCH   7   8
ENDBRANCH   4   7
ENDBRANCH   1   3
BRANCH   1  17
HETATM   17  N   UNL     1      43.381 -11.194   7.777  1.00  0.00    -0.289 N 
HETATM   18  H   UNL     1      42.790 -11.224   8.609  1.00  0.00     0.183 HD
BRANCH  17  19
HETATM   19  N   UNL     1      44.737 -11.548   7.936  1.00  0.00    -0.153 NA
HETATM   20  C   UNL     1      45.700 -10.578   7.908  1.00  0.00     0.317 C 
HETATM   21  N   UNL     1      45.476  -9.329   8.380  1.00  0.00    -0.312 N 
HETATM   22  O   UNL     1      46.763 -10.833   7.339  1.00  0.00    -0.252 OA
HETATM   23  H   UNL     1      46.168  -8.679   8.023  1.00  0.00     0.170 HD
HETATM   24  H   UNL     1      45.057 -12.291   7.322  1.00  0.00     0.157 HD
BRANCH  21  25
HETATM   25  C   UNL     1      44.628  -8.808   9.372  1.00  0.00     0.035 A 
HETATM   26  C   UNL     1      44.557  -9.295  10.677  1.00  0.00     0.029 A 
HETATM   27  C   UNL     1      43.688  -8.709  11.601  1.00  0.00     0.002 A 
HETATM   28  C   UNL     1      42.899  -7.619  11.233  1.00  0.00     0.000 A 
HETATM   29  C   UNL     1      42.987  -7.106   9.943  1.00  0.00     0.002 A 
HETATM   30  C   UNL     1      43.855  -7.693   9.020  1.00  0.00     0.029 A 
ENDBRANCH  21  25
ENDBRANCH  17  19
ENDBRANCH   1  17
TORSDOF 8
ENDMDL
MODEL 3
REMARK VINA RESULT:      -7.0      3.429      5.592
REMARK  8 active torsions:
REMARK  status: ('A' for Active; 'I' for Inactive)
REMARK    1  A    between atoms: O_2  and  C_3 
REMARK    2  A    between atoms: C_4  and  O_5 
REMARK    3  A    between atoms: O_5  and  C_6 
REMARK    4  A    between atoms: C_6  and  C_7 
REMARK       I    between atoms: C_7  and  N_8 
REMARK    5  A    between atoms: N_8  and  C_9 
REMARK    6  A    between atoms: C_9  and  N_10 
REMARK    7  A    between atoms: N_10  and  N_11 
REMARK       I    between atoms: N_11  and  C_12 
REMARK       I    between atoms: C_12  and  N_13 
REMARK    8  A    between atoms: N_13  and  C_14 
ROOT
HETATM    1  C   UNL     1      42.394 -13.318   6.426  1.00  0.00     0.189 C 
HETATM    2  S   UNL     1      41.032 -12.802   5.617  1.00  0.00    -0.039 SA
ENDROOT
BRANCH   1   3
HETATM    3  N   UNL     1      42.987 -14.568   6.362  1.00  0.00    -0.301 N 
HETATM    4  C   UNL     1      43.078 -15.551   7.354  1.00  0.00     0.248 C 
HETATM    5  O   UNL     1      43.217 -15.328   8.551  1.00  0.00    -0.271 OA
HETATM    6  H   UNL     1      43.232 -14.852   5.430  1.00  0.00     0.171 HD
BRANCH   4   7
HETATM    7  C   UNL     1      43.060 -16.964   6.755  1.00  0.00     0.278 C 
BRANCH   7   8
HETATM    8  O   UNL     1      44.106 -17.147   5.817  1.00  0.00    -0.339 OA
BRANCH   8   9
HETATM    9  C   UNL     1      43.826 -17.780   4.637  1.00  0.00     0.102 A 
HETATM   10  C   UNL     1      43.113 -17.072   3.652  1.00  0.00     0.101 A 
HETATM   11  C   UNL     1      42.777 -17.711   2.449  1.00  0.00     0.039 A 
HETATM   12  C   UNL     1      43.149 -19.032   2.204  1.00  0.00     0.003 A 
HETATM   13  C   UNL     1      43.855 -19.733   3.173  1.00  0.00     0.003 A 
HETATM   14  C   UNL     1      44.183 -19.115   4.383  1.00  0.00     0.039 A 
BRANCH  10  15
HETATM   15  O   UNL     1      42.655 -15.779   3.695  1.00  0.00    -0.353 OA
HETATM   16  C   UNL     1      43.122 -14.858   2.719  1.00  0.00     0.210 C 
ENDBRANCH  10  15
ENDBRANCH   8   9
ENDBRANCH   7   8
ENDBRANCH   4   7
ENDBRANCH   1   3
BRANCH   1  17
HETATM   17  N   UNL     1      43.058 -12.405   7.218  1.00  0.00    -0.289 N 
HETATM   18  H   UNL     1      42.504 -11.895   7.908  1.00  0.00     0.183 HD
BRANCH  17  19
HETATM   19  N   UNL     1      44.460 -12.391   7.379  1.00  0.00    -0.153 NA
HETATM   20  C   UNL     1      45.123 -11.198   7.450  1.00  0.00     0.317 C 
HETATM   21  N   UNL     1      44.569 -10.099   8.014  1.00  0.00    -0.312 N 
HETATM   22  O   UNL     1      46.216 -11.109   6.887  1.00  0.00    -0.252 OA
HETATM   23  H   UNL     1      45.059  -9.259   7.725  1.00  0.00     0.170 HD
HETATM   24  H   UNL     1      44.969 -12.966   6.715  1.00  0.00     0.157 HD
BRANCH  21  25
HETATM   25  C   UNL     1      43.611  -9.911   9.024  1.00  0.00     0.035 A 
HETATM   26  C   UNL     1      42.350  -9.352   8.814  1.00  0.00     0.029 A 
HETATM   27  C   UNL     1      41.456  -9.211   9.879  1.00  0.00     0.002 A 
HETATM   28  C   UNL     1      41.809  -9.644  11.157  1.00  0.00     0.000 A 
HETATM   29  C   UNL     1      43.051 -10.232  11.369  1.00  0.00     0.002 A 
HETATM   30  C   UNL     1      43.944 -10.373  10.305  1.00  0.00     0.029 A 
ENDBRANCH  21  25
ENDBRANCH  17  19
ENDBRANCH   1  17
TORSDOF 8
ENDMDL
MODEL 4
REMARK VINA RESULT:      -7.0      4.258      6.442
REMARK  8 active torsions:
REMARK  status: ('A' for Active; 'I' for Inactive)
REMARK    1  A    between atoms: O_2  and  C_3 
REMARK    2  A    between atoms: C_4  and  O_5 
REMARK    3  A    between atoms: O_5  and  C_6 
REMARK    4  A    between atoms: C_6  and  C_7 
REMARK       I    between atoms: C_7  and  N_8 
REMARK    5  A    between atoms: N_8  and  C_9 
REMARK    6  A    between atoms: C_9  and  N_10 
REMARK    7  A    between atoms: N_10  and  N_11 
REMARK       I    between atoms: N_11  and  C_12 
REMARK       I    between atoms: C_12  and  N_13 
REMARK    8  A    between atoms: N_13  and  C_14 
ROOT
HETATM    1  C   UNL     1      42.756 -11.143   6.597  1.00  0.00     0.189 C 
HETATM    2  S   UNL     1      41.820  -9.800   6.287  1.00  0.00    -0.039 SA
ENDROOT
BRANCH   1   3
HETATM    3  N   UNL     1      43.033 -12.193   5.739  1.00  0.00    -0.301 N 
HETATM    4  C   UNL     1      42.960 -13.570   5.978  1.00  0.00     0.248 C 
HETATM    5  O   UNL     1      43.231 -14.111   7.044  1.00  0.00    -0.271 OA
HETATM    6  H   UNL     1      43.137 -11.913   4.778  1.00  0.00     0.171 HD
BRANCH   4   7
HETATM    7  C   UNL     1      42.568 -14.346   4.713  1.00  0.00     0.278 C 
BRANCH   7   8
HETATM    8  O   UNL     1      42.197 -15.680   5.012  1.00  0.00    -0.339 OA
BRANCH   8   9
HETATM    9  C   UNL     1      42.823 -16.699   4.350  1.00  0.00     0.102 A 
HETATM   10  C   UNL     1      42.381 -17.025   3.054  1.00  0.00     0.101 A 
HETATM   11  C   UNL     1      42.978 -18.094   2.369  1.00  0.00     0.039 A 
HETATM   12  C   UNL     1      44.013 -18.831   2.942  1.00  0.00     0.003 A 
HETATM   13  C   UNL     1      44.453 -18.511   4.219  1.00  0.00     0.003 A 
HETATM   14  C   UNL     1      43.857 -17.459   4.921  1.00  0.00     0.039 A 
BRANCH  10  15
HETATM   15  O   UNL     1      41.385 -16.433   2.319  1.00  0.00    -0.353 OA
HETATM   16  C   UNL     1      41.742 -15.455   1.352  1.00  0.00     0.210 C 
ENDBRANCH  10  15
ENDBRANCH   8   9
ENDBRANCH   7   8
ENDBRANCH   4   7
ENDBRANCH   1   3
BRANCH   1  17
HETATM   17  N   UNL     1      43.382 -11.222   7.824  1.00  0.00    -0.289 N 
HETATM   18  H   UNL     1      42.785 -11.288   8.650  1.00  0.00     0.183 HD
BRANCH  17  19
HETATM   19  N   UNL     1      44.740 -11.569   7.982  1.00  0.00    -0.153 NA
HETATM   20  C   UNL     1      45.698 -10.595   7.950  1.00  0.00     0.317 C 
HETATM   21  N   UNL     1      45.470  -9.346   8.419  1.00  0.00    -0.312 N 
HETATM   22  O   UNL     1      46.762 -10.847   7.380  1.00  0.00    -0.252 OA
HETATM   23  H   UNL     1      46.159  -8.694   8.060  1.00  0.00     0.170 HD
HETATM   24  H   UNL     1      45.063 -12.312   7.369  1.00  0.00     0.157 HD
BRANCH  21  25
HETATM   25  C   UNL     1      44.621  -8.827   9.411  1.00  0.00     0.035 A 
HETATM   26  C   UNL     1      44.556  -9.310  10.718  1.00  0.00     0.029 A 
HETATM   27  C   UNL     1      43.686  -8.725  11.643  1.00  0.00     0.002 A 
HETATM   28  C   UNL     1      42.890  -7.641  11.273  1.00  0.00     0.000 A 
HETATM   29  C   UNL     1      42.972  -7.133   9.981  1.00  0.00     0.002 A 
HETATM   30  C   UNL     1      43.841  -7.718   9.057  1.00  0.00     0.029 A 
ENDBRANCH  21  25
ENDBRANCH  17  19
ENDBRANCH   1  17
TORSDOF 8
ENDMDL
MODEL 5
REMARK VINA RESULT:      -6.8      1.754      3.025
REMARK  8 active torsions:
REMARK  status: ('A' for Active; 'I' for Inactive)
REMARK    1  A    between atoms: O_2  and  C_3 
REMARK    2  A    between atoms: C_4  and  O_5 
REMARK    3  A    between atoms: O_5  and  C_6 
REMARK    4  A    between atoms: C_6  and  C_7 
REMARK       I    between atoms: C_7  and  N_8 
REMARK    5  A    between atoms: N_8  and  C_9 
REMARK    6  A    between atoms: C_9  and  N_10 
REMARK    7  A    between atoms: N_10  and  N_11 
REMARK       I    between atoms: N_11  and  C_12 
REMARK       I    between atoms: C_12  and  N_13 
REMARK    8  A    between atoms: N_13  and  C_14 
ROOT
HETATM    1  C   UNL     1      43.306 -13.847   6.432  1.00  0.00     0.189 C 
HETATM    2  S   UNL     1      44.298 -12.521   6.623  1.00  0.00    -0.039 SA
ENDROOT
BRANCH   1   3
HETATM    3  N   UNL     1      43.518 -15.130   6.905  1.00  0.00    -0.301 N 
HETATM    4  C   UNL     1      42.670 -16.242   6.846  1.00  0.00     0.248 C 
HETATM    5  O   UNL     1      41.448 -16.197   6.939  1.00  0.00    -0.271 OA
HETATM    6  H   UNL     1      44.470 -15.311   7.173  1.00  0.00     0.171 HD
BRANCH   4   7
HETATM    7  C   UNL     1      43.459 -17.552   6.726  1.00  0.00     0.278 C 
BRANCH   7   8
HETATM    8  O   UNL     1      44.321 -17.542   5.601  1.00  0.00    -0.339 OA
BRANCH   8   9
HETATM    9  C   UNL     1      44.034 -18.365   4.547  1.00  0.00     0.102 A 
HETATM   10  C   UNL     1      43.537 -17.787   3.364  1.00  0.00     0.101 A 
HETATM   11  C   UNL     1      43.195 -18.614   2.282  1.00  0.00     0.039 A 
HETATM   12  C   UNL     1      43.353 -19.996   2.352  1.00  0.00     0.003 A 
HETATM   13  C   UNL     1      43.845 -20.570   3.517  1.00  0.00     0.003 A 
HETATM   14  C   UNL     1      44.175 -19.762   4.609  1.00  0.00     0.039 A 
BRANCH  10  15
HETATM   15  O   UNL     1      43.306 -16.462   3.095  1.00  0.00    -0.353 OA
HETATM   16  C   UNL     1      43.367 -16.021   1.745  1.00  0.00     0.210 C 
ENDBRANCH  10  15
ENDBRANCH   8   9
ENDBRANCH   7   8
ENDBRANCH   4   7
ENDBRANCH   1   3
BRANCH   1  17
HETATM   17  N   UNL     1      42.106 -13.664   5.776  1.00  0.00    -0.289 N 
HETATM   18  H   UNL     1      41.477 -12.950   6.145  1.00  0.00     0.183 HD
BRANCH  17  19
HETATM   19  N   UNL     1      41.859 -14.129   4.467  1.00  0.00    -0.153 NA
HETATM   20  C   UNL     1      40.572 -14.247   4.021  1.00  0.00     0.317 C 
HETATM   21  N   UNL     1      39.593 -13.402   4.418  1.00  0.00    -0.312 N 
HETATM   22  O   UNL     1      40.290 -15.220   3.318  1.00  0.00    -0.252 OA
HETATM   23  H   UNL     1      38.677 -13.799   4.234  1.00  0.00     0.170 HD
HETATM   24  H   UNL     1      42.329 -14.997   4.229  1.00  0.00     0.157 HD
BRANCH  21  25
HETATM   25  C   UNL     1      39.586 -12.063   4.844  1.00  0.00     0.035 A 
HETATM   26  C   UNL     1      39.909 -10.980   4.027  1.00  0.00     0.029 A 
HETATM   27  C   UNL     1      39.866  -9.678   4.534  1.00  0.00     0.002 A 
HETATM   28  C   UNL     1      39.481  -9.448   5.854  1.00  0.00     0.000 A 
HETATM   29  C   UNL     1      39.126 -10.520   6.666  1.00  0.00     0.002 A 
HETATM   30  C   UNL     1      39.169 -11.821   6.160  1.00  0.00     0.029 A 
ENDBRANCH  21  25
ENDBRANCH  17  19
ENDBRANCH   1  17
TORSDOF 8
ENDMDL
MODEL 6
REMARK VINA RESULT:      -6.8      2.389      4.623
REMARK  8 active torsions:
REMARK  status: ('A' for Active; 'I' for Inactive)
REMARK    1  A    between atoms: O_2  and  C_3 
REMARK    2  A    between atoms: C_4  and  O_5 
REMARK    3  A    between atoms: O_5  and  C_6 
REMARK    4  A    between atoms: C_6  and  C_7 
REMARK       I    between atoms: C_7  and  N_8 
REMARK    5  A    between atoms: N_8  and  C_9 
REMARK    6  A    between atoms: C_9  and  N_10 
REMARK    7  A    between atoms: N_10  and  N_11 
REMARK       I    between atoms: N_11  and  C_12 
REMARK       I    between atoms: C_12  and  N_13 
REMARK    8  A    between atoms: N_13  and  C_14 
ROOT
HETATM    1  C   UNL     1      41.666 -14.124   4.747  1.00  0.00     0.189 C 
HETATM    2  S   UNL     1      41.549 -14.021   6.406  1.00  0.00    -0.039 SA
ENDROOT
BRANCH   1   3
HETATM    3  N   UNL     1      42.039 -15.227   3.997  1.00  0.00    -0.301 N 
HETATM    4  C   UNL     1      41.322 -15.897   2.999  1.00  0.00     0.248 C 
HETATM    5  O   UNL     1      40.107 -16.061   3.000  1.00  0.00    -0.271 OA
HETATM    6  H   UNL     1      43.014 -15.459   4.076  1.00  0.00     0.171 HD
BRANCH   4   7
HETATM    7  C   UNL     1      42.252 -16.478   1.926  1.00  0.00     0.278 C 
BRANCH   7   8
HETATM    8  O   UNL     1      43.497 -16.877   2.473  1.00  0.00    -0.339 OA
BRANCH   8   9
HETATM    9  C   UNL     1      43.618 -18.145   2.971  1.00  0.00     0.102 A 
HETATM   10  C   UNL     1      43.940 -18.300   4.332  1.00  0.00     0.101 A 
HETATM   11  C   UNL     1      44.112 -19.589   4.859  1.00  0.00     0.039 A 
HETATM   12  C   UNL     1      43.954 -20.722   4.063  1.00  0.00     0.003 A 
HETATM   13  C   UNL     1      43.634 -20.573   2.720  1.00  0.00     0.003 A 
HETATM   14  C   UNL     1      43.476 -19.295   2.176  1.00  0.00     0.039 A 
BRANCH  10  15
HETATM   15  O   UNL     1      44.140 -17.325   5.277  1.00  0.00    -0.353 OA
HETATM   16  C   UNL     1      43.522 -17.473   6.548  1.00  0.00     0.210 C 
ENDBRANCH  10  15
ENDBRANCH   8   9
ENDBRANCH   7   8
ENDBRANCH   4   7
ENDBRANCH   1   3
BRANCH   1  17
HETATM   17  N   UNL     1      41.310 -13.017   4.005  1.00  0.00    -0.289 N 
HETATM   18  H   UNL     1      40.678 -12.345   4.444  1.00  0.00     0.183 HD
BRANCH  17  19
HETATM   19  N   UNL     1      42.019 -12.585   2.865  1.00  0.00    -0.153 NA
HETATM   20  C   UNL     1      42.338 -11.264   2.724  1.00  0.00     0.317 C 
HETATM   21  N   UNL     1      42.622 -10.475   3.787  1.00  0.00    -0.312 N 
HETATM   22  O   UNL     1      42.259 -10.766   1.599  1.00  0.00    -0.252 OA
HETATM   23  H   UNL     1      42.546  -9.494   3.539  1.00  0.00     0.170 HD
HETATM   24  H   UNL     1      41.621 -12.883   1.979  1.00  0.00     0.157 HD
BRANCH  21  25
HETATM   25  C   UNL     1      43.162 -10.726   5.059  1.00  0.00     0.035 A 
HETATM   26  C   UNL     1      42.563 -10.333   6.256  1.00  0.00     0.029 A 
HETATM   27  C   UNL     1      43.169 -10.634   7.479  1.00  0.00     0.002 A 
HETATM   28  C   UNL     1      44.367 -11.348   7.515  1.00  0.00     0.000 A 
HETATM   29  C   UNL     1      44.954 -11.772   6.328  1.00  0.00     0.002 A 
HETATM   30  C   UNL     1      44.349 -11.470   5.106  1.00  0.00     0.029 A 
ENDBRANCH  21  25
ENDBRANCH  17  19
ENDBRANCH   1  17
TORSDOF 8
ENDMDL
MODEL 7
REMARK VINA RESULT:      -6.8      2.895      4.455
REMARK  8 active torsions:
REMARK  status: ('A' for Active; 'I' for Inactive)
REMARK    1  A    between atoms: O_2  and  C_3 
REMARK    2  A    between atoms: C_4  and  O_5 
REMARK    3  A    between atoms: O_5  and  C_6 
REMARK    4  A    between atoms: C_6  and  C_7 
REMARK       I    between atoms: C_7  and  N_8 
REMARK    5  A    between atoms: N_8  and  C_9 
REMARK    6  A    between atoms: C_9  and  N_10 
REMARK    7  A    between atoms: N_10  and  N_11 
REMARK       I    between atoms: N_11  and  C_12 
REMARK       I    between atoms: C_12  and  N_13 
REMARK    8  A    between atoms: N_13  and  C_14 
ROOT
HETATM    1  C   UNL     1      39.249 -12.602   2.741  1.00  0.00     0.189 C 
HETATM    2  S   UNL     1      39.740 -11.094   3.252  1.00  0.00    -0.039 SA
ENDROOT
BRANCH   1   3
HETATM    3  N   UNL     1      39.522 -13.822   3.336  1.00  0.00    -0.301 N 
HETATM    4  C   UNL     1      40.147 -14.949   2.789  1.00  0.00     0.248 C 
HETATM    5  O   UNL     1      40.031 -15.319   1.626  1.00  0.00    -0.271 OA
HETATM    6  H   UNL     1      39.400 -13.822   4.334  1.00  0.00     0.171 HD
BRANCH   4   7
HETATM    7  C   UNL     1      40.945 -15.724   3.846  1.00  0.00     0.278 C 
BRANCH   7   8
HETATM    8  O   UNL     1      42.304 -15.869   3.472  1.00  0.00    -0.339 OA
BRANCH   8   9
HETATM    9  C   UNL     1      42.827 -17.128   3.374  1.00  0.00     0.102 A 
HETATM   10  C   UNL     1      43.641 -17.598   4.422  1.00  0.00     0.101 A 
HETATM   11  C   UNL     1      44.224 -18.871   4.327  1.00  0.00     0.039 A 
HETATM   12  C   UNL     1      44.000 -19.687   3.219  1.00  0.00     0.003 A 
HETATM   13  C   UNL     1      43.196 -19.228   2.184  1.00  0.00     0.003 A 
HETATM   14  C   UNL     1      42.621 -17.956   2.257  1.00  0.00     0.039 A 
BRANCH  10  15
HETATM   15  O   UNL     1      43.986 -16.958   5.585  1.00  0.00    -0.353 OA
HETATM   16  C   UNL     1      43.452 -17.439   6.811  1.00  0.00     0.210 C 
ENDBRANCH  10  15
ENDBRANCH   8   9
ENDBRANCH   7   8
ENDBRANCH   4   7
ENDBRANCH   1   3
BRANCH   1  17
HETATM   17  N   UNL     1      38.434 -12.673   1.630  1.00  0.00    -0.289 N 
HETATM   18  H   UNL     1      38.432 -13.550   1.108  1.00  0.00     0.183 HD
BRANCH  17  19
HETATM   19  N   UNL     1      37.374 -11.774   1.387  1.00  0.00    -0.153 NA
HETATM   20  C   UNL     1      37.485 -10.848   0.389  1.00  0.00     0.317 C 
HETATM   21  N   UNL     1      38.165 -11.099  -0.754  1.00  0.00    -0.312 N 
HETATM   22  O   UNL     1      37.033  -9.719   0.594  1.00  0.00    -0.252 OA
HETATM   23  H   UNL     1      38.392 -10.236  -1.236  1.00  0.00     0.170 HD
HETATM   24  H   UNL     1      37.042 -11.277   2.209  1.00  0.00     0.157 HD
BRANCH  21  25
HETATM   25  C   UNL     1      38.446 -12.273  -1.473  1.00  0.00     0.035 A 
HETATM   26  C   UNL     1      37.498 -12.990  -2.203  1.00  0.00     0.029 A 
HETATM   27  C   UNL     1      37.870 -14.145  -2.896  1.00  0.00     0.002 A 
HETATM   28  C   UNL     1      39.195 -14.580  -2.881  1.00  0.00     0.000 A 
HETATM   29  C   UNL     1      40.152 -13.853  -2.183  1.00  0.00     0.002 A 
HETATM   30  C   UNL     1      39.781 -12.699  -1.490  1.00  0.00     0.029 A 
ENDBRANCH  21  25
ENDBRANCH  17  19
ENDBRANCH   1  17
TORSDOF 8
ENDMDL
MODEL 8
REMARK VINA RESULT:      -6.6      3.377      5.042
REMARK  8 active torsions:
REMARK  status: ('A' for Active; 'I' for Inactive)
REMARK    1  A    between atoms: O_2  and  C_3 
REMARK    2  A    between atoms: C_4  and  O_5 
REMARK    3  A    between atoms: O_5  and  C_6 
REMARK    4  A    between atoms: C_6  and  C_7 
REMARK       I    between atoms: C_7  and  N_8 
REMARK    5  A    between atoms: N_8  and  C_9 
REMARK    6  A    between atoms: C_9  and  N_10 
REMARK    7  A    between atoms: N_10  and  N_11 
REMARK       I    between atoms: N_11  and  C_12 
REMARK       I    between atoms: C_12  and  N_13 
REMARK    8  A    between atoms: N_13  and  C_14 
ROOT
HETATM    1  C   UNL     1      39.293 -12.555   1.657  1.00  0.00     0.189 C 
HETATM    2  S   UNL     1      37.995 -11.517   1.544  1.00  0.00    -0.039 SA
ENDROOT
BRANCH   1   3
HETATM    3  N   UNL     1      39.341 -13.774   2.314  1.00  0.00    -0.301 N 
HETATM    4  C   UNL     1      39.939 -14.971   1.906  1.00  0.00     0.248 C 
HETATM    5  O   UNL     1      39.990 -15.370   0.747  1.00  0.00    -0.271 OA
HETATM    6  H   UNL     1      39.049 -13.727   3.275  1.00  0.00     0.171 HD
BRANCH   4   7
HETATM    7  C   UNL     1      40.465 -15.779   3.100  1.00  0.00     0.278 C 
BRANCH   7   8
HETATM    8  O   UNL     1      41.872 -15.674   3.223  1.00  0.00    -0.339 OA
BRANCH   8   9
HETATM    9  C   UNL     1      42.596 -16.809   3.462  1.00  0.00     0.102 A 
HETATM   10  C   UNL     1      43.014 -17.070   4.780  1.00  0.00     0.101 A 
HETATM   11  C   UNL     1      43.794 -18.206   5.047  1.00  0.00     0.039 A 
HETATM   12  C   UNL     1      44.150 -19.091   4.031  1.00  0.00     0.003 A 
HETATM   13  C   UNL     1      43.737 -18.839   2.729  1.00  0.00     0.003 A 
HETATM   14  C   UNL     1      42.974 -17.703   2.446  1.00  0.00     0.039 A 
BRANCH  10  15
HETATM   15  O   UNL     1      42.776 -16.331   5.912  1.00  0.00    -0.353 OA
HETATM   16  C   UNL     1      43.650 -15.252   6.216  1.00  0.00     0.210 C 
ENDBRANCH  10  15
ENDBRANCH   8   9
ENDBRANCH   7   8
ENDBRANCH   4   7
ENDBRANCH   1   3
BRANCH   1  17
HETATM   17  N   UNL     1      40.451 -12.215   0.990  1.00  0.00    -0.289 N 
HETATM   18  H   UNL     1      40.993 -12.975   0.576  1.00  0.00     0.183 HD
BRANCH  17  19
HETATM   19  N   UNL     1      40.735 -10.906   0.546  1.00  0.00    -0.153 NA
HETATM   20  C   UNL     1      41.327 -10.715  -0.672  1.00  0.00     0.317 C 
HETATM   21  N   UNL     1      41.087 -11.533  -1.724  1.00  0.00    -0.312 N 
HETATM   22  O   UNL     1      42.181  -9.831  -0.768  1.00  0.00    -0.252 OA
HETATM   23  H   UNL     1      41.807 -11.430  -2.431  1.00  0.00     0.170 HD
HETATM   24  H   UNL     1      41.248 -10.334   1.210  1.00  0.00     0.157 HD
BRANCH  21  25
HETATM   25  C   UNL     1      39.989 -12.323  -2.103  1.00  0.00     0.035 A 
HETATM   26  C   UNL     1      38.689 -11.839  -2.247  1.00  0.00     0.029 A 
HETATM   27  C   UNL     1      37.658 -12.698  -2.638  1.00  0.00     0.002 A 
HETATM   28  C   UNL     1      37.923 -14.041  -2.905  1.00  0.00     0.000 A 
HETATM   29  C   UNL     1      39.222 -14.524  -2.795  1.00  0.00     0.002 A 
HETATM   30  C   UNL     1      40.252 -13.666  -2.405  1.00  0.00     0.029 A 
ENDBRANCH  21  25
ENDBRANCH  17  19
ENDBRANCH   1  17
TORSDOF 8
ENDMDL
MODEL 9
REMARK VINA RESULT:      -6.6      4.350      7.155
REMARK  8 active torsions:
REMARK  status: ('A' for Active; 'I' for Inactive)
REMARK    1  A    between atoms: O_2  and  C_3 
REMARK    2  A    between atoms: C_4  and  O_5 
REMARK    3  A    between atoms: O_5  and  C_6 
REMARK    4  A    between atoms: C_6  and  C_7 
REMARK       I    between atoms: C_7  and  N_8 
REMARK    5  A    between atoms: N_8  and  C_9 
REMARK    6  A    between atoms: C_9  and  N_10 
REMARK    7  A    between atoms: N_10  and  N_11 
REMARK       I    between atoms: N_11  and  C_12 
REMARK       I    between atoms: C_12  and  N_13 
REMARK    8  A    between atoms: N_13  and  C_14 
ROOT
HETATM    1  C   UNL     1      43.543 -12.375   6.046  1.00  0.00     0.189 C 
HETATM    2  S   UNL     1      43.130 -11.357   4.794  1.00  0.00    -0.039 SA
ENDROOT
BRANCH   1   3
HETATM    3  N   UNL     1      44.270 -12.061   7.182  1.00  0.00    -0.301 N 
HETATM    4  C   UNL     1      45.434 -11.294   7.298  1.00  0.00     0.248 C 
HETATM    5  O   UNL     1      46.338 -11.262   6.470  1.00  0.00    -0.271 OA
HETATM    6  H   UNL     1      43.795 -12.281   8.040  1.00  0.00     0.171 HD
BRANCH   4   7
HETATM    7  C   UNL     1      45.487 -10.542   8.635  1.00  0.00     0.278 C 
BRANCH   7   8
HETATM    8  O   UNL     1      44.322 -10.767   9.407  1.00  0.00    -0.339 OA
BRANCH   8   9
HETATM    9  C   UNL     1      43.780  -9.719  10.099  1.00  0.00     0.102 A 
HETATM   10  C   UNL     1      42.976  -8.801   9.399  1.00  0.00     0.101 A 
HETATM   11  C   UNL     1      42.442  -7.693  10.077  1.00  0.00     0.039 A 
HETATM   12  C   UNL     1      42.681  -7.493  11.435  1.00  0.00     0.003 A 
HETATM   13  C   UNL     1      43.472  -8.399  12.130  1.00  0.00     0.003 A 
HETATM   14  C   UNL     1      44.024  -9.498  11.465  1.00  0.00     0.039 A 
BRANCH  10  15
HETATM   15  O   UNL     1      42.625  -8.812   8.073  1.00  0.00    -0.353 OA
HETATM   16  C   UNL     1      41.453  -9.515   7.685  1.00  0.00     0.210 C 
ENDBRANCH  10  15
ENDBRANCH   8   9
ENDBRANCH   7   8
ENDBRANCH   4   7
ENDBRANCH   1   3
BRANCH   1  17
HETATM   17  N   UNL     1      43.079 -13.674   6.000  1.00  0.00    -0.289 N 
HETATM   18  H   UNL     1      43.756 -14.403   5.770  1.00  0.00     0.183 HD
BRANCH  17  19
HETATM   19  N   UNL     1      41.862 -14.085   6.582  1.00  0.00    -0.153 NA
HETATM   20  C   UNL     1      40.715 -14.071   5.838  1.00  0.00     0.317 C 
HETATM   21  N   UNL     1      40.716 -14.326   4.509  1.00  0.00    -0.312 N 
HETATM   22  O   UNL     1      39.672 -13.711   6.389  1.00  0.00    -0.252 OA
HETATM   23  H   UNL     1      39.862 -13.993   4.077  1.00  0.00     0.170 HD
HETATM   24  H   UNL     1      41.640 -13.635   7.465  1.00  0.00     0.157 HD
BRANCH  21  25
HETATM   25  C   UNL     1      41.544 -15.096   3.674  1.00  0.00     0.035 A 
HETATM   26  C   UNL     1      41.654 -16.485   3.745  1.00  0.00     0.029 A 
HETATM   27  C   UNL     1      42.498 -17.170   2.866  1.00  0.00     0.002 A 
HETATM   28  C   UNL     1      43.222 -16.474   1.898  1.00  0.00     0.000 A 
HETATM   29  C   UNL     1      43.093 -15.093   1.800  1.00  0.00     0.002 A 
HETATM   30  C   UNL     1      42.250 -14.409   2.678  1.00  0.00     0.029 A 
ENDBRANCH  21  25
ENDBRANCH  17  19
ENDBRANCH   1  17
TORSDOF 8
ENDMDL
MODEL 10
REMARK VINA RESULT:      -6.6      3.020      6.161
REMARK  8 active torsions:
REMARK  status: ('A' for Active; 'I' for Inactive)
REMARK    1  A    between atoms: O_2  and  C_3 
REMARK    2  A    between atoms: C_4  and  O_5 
REMARK    3  A    between atoms: O_5  and  C_6 
REMARK    4  A    between atoms: C_6  and  C_7 
REMARK       I    between atoms: C_7  and  N_8 
REMARK    5  A    between atoms: N_8  and  C_9 
REMARK    6  A    between atoms: C_9  and  N_10 
REMARK    7  A    between atoms: N_10  and  N_11 
REMARK       I    between atoms: N_11  and  C_12 
REMARK       I    between atoms: C_12  and  N_13 
REMARK    8  A    between atoms: N_13  and  C_14 
ROOT
HETATM    1  C   UNL     1      39.951 -13.168   3.543  1.00  0.00     0.189 C 
HETATM    2  S   UNL     1      39.053 -12.103   2.630  1.00  0.00    -0.039 SA
ENDROOT
BRANCH   1   3
HETATM    3  N   UNL     1      40.768 -12.872   4.621  1.00  0.00    -0.301 N 
HETATM    4  C   UNL     1      40.851 -13.509   5.864  1.00  0.00     0.248 C 
HETATM    5  O   UNL     1      39.902 -14.000   6.465  1.00  0.00    -0.271 OA
HETATM    6  H   UNL     1      41.502 -12.220   4.405  1.00  0.00     0.171 HD
BRANCH   4   7
HETATM    7  C   UNL     1      42.275 -13.456   6.434  1.00  0.00     0.278 C 
BRANCH   7   8
HETATM    8  O   UNL     1      43.046 -12.438   5.821  1.00  0.00    -0.339 OA
BRANCH   8   9
HETATM    9  C   UNL     1      43.774 -11.597   6.617  1.00  0.00     0.102 A 
HETATM   10  C   UNL     1      43.115 -10.506   7.214  1.00  0.00     0.101 A 
HETATM   11  C   UNL     1      43.848  -9.604   8.002  1.00  0.00     0.039 A 
HETATM   12  C   UNL     1      45.214  -9.776   8.216  1.00  0.00     0.003 A 
HETATM   13  C   UNL     1      45.867 -10.853   7.630  1.00  0.00     0.003 A 
HETATM   14  C   UNL     1      45.154 -11.751   6.830  1.00  0.00     0.039 A 
BRANCH  10  15
HETATM   15  O   UNL     1      41.791 -10.158   7.127  1.00  0.00    -0.353 OA
HETATM   16  C   UNL     1      41.386  -9.277   6.089  1.00  0.00     0.210 C 
ENDBRANCH  10  15
ENDBRANCH   8   9
ENDBRANCH   7   8
ENDBRANCH   4   7
ENDBRANCH   1   3
BRANCH   1  17
HETATM   17  N   UNL     1      39.852 -14.512   3.248  1.00  0.00    -0.289 N 
HETATM   18  H   UNL     1      39.787 -15.160   4.035  1.00  0.00     0.183 HD
BRANCH  17  19
HETATM   19  N   UNL     1      39.483 -15.003   1.977  1.00  0.00    -0.153 NA
HETATM   20  C   UNL     1      40.410 -15.051   0.973  1.00  0.00     0.317 C 
HETATM   21  N   UNL     1      41.719 -15.294   1.214  1.00  0.00    -0.312 N 
HETATM   22  O   UNL     1      40.043 -14.762  -0.168  1.00  0.00    -0.252 OA
HETATM   23  H   UNL     1      42.290 -15.009   0.426  1.00  0.00     0.170 HD
HETATM   24  H   UNL     1      38.651 -14.575   1.582  1.00  0.00     0.157 HD
BRANCH  21  25
HETATM   25  C   UNL     1      42.402 -16.004   2.217  1.00  0.00     0.035 A 
HETATM   26  C   UNL     1      42.922 -15.421   3.373  1.00  0.00     0.029 A 
HETATM   27  C   UNL     1      43.580 -16.208   4.323  1.00  0.00     0.002 A 
HETATM   28  C   UNL     1      43.706 -17.584   4.133  1.00  0.00     0.000 A 
HETATM   29  C   UNL     1      43.162 -18.177   2.999  1.00  0.00     0.002 A 
HETATM   30  C   UNL     1      42.505 -17.391   2.050  1.00  0.00     0.029 A 
ENDBRANCH  21  25
ENDBRANCH  17  19
ENDBRANCH   1  17
TORSDOF 8
ENDMDL
