MODEL 1
REMARK VINA RESULT:      -9.0      0.000      0.000
REMARK  8 active torsions:
REMARK  status: ('A' for Active; 'I' for Inactive)
REMARK    1  A    between atoms: N_2  and  C_3 
REMARK    2  A    between atoms: C_6  and  C_7 
REMARK    3  A    between atoms: N_8  and  C_9 
REMARK    4  A    between atoms: C_9  and  C_10 
REMARK    5  A    between atoms: C_14  and  N_15 
REMARK    6  A    between atoms: C_17  and  N_18 
REMARK    7  A    between atoms: C_19  and  C_20 
REMARK    8  A    between atoms: C_26  and  C_27 
ROOT
HETATM    1  C   UNL     1      43.593 -13.626   5.873  1.00  0.00     0.141 A 
HETATM    2  N   UNL     1      42.635 -13.517   4.879  1.00  0.00    -0.324 N 
HETATM    3  C   UNL     1      42.456 -14.778   4.313  1.00  0.00     0.076 A 
HETATM    4  C   UNL     1      43.278 -15.604   5.071  1.00  0.00     0.097 A 
HETATM    5  N   UNL     1      44.008 -14.871   5.968  1.00  0.00    -0.227 NA
ENDROOT
BRANCH   2   6
HETATM    6  C   UNL     1      41.888 -12.299   4.559  1.00  0.00     0.178 C 
BRANCH   6   7
HETATM    7  C   UNL     1      41.030 -11.691   5.629  1.00  0.00     0.068 A 
HETATM    8  C   UNL     1      41.413 -10.308   6.002  1.00  0.00     0.259 A 
HETATM    9  O   UNL     1      42.383  -9.736   5.510  1.00  0.00    -0.267 OA
HETATM   10  N   UNL     1      40.613  -9.685   6.903  1.00  0.00    -0.298 N 
HETATM   11  C   UNL     1      39.507 -10.276   7.407  1.00  0.00     0.181 A 
HETATM   12  H   UNL     1      40.829  -8.725   7.114  1.00  0.00     0.171 HD
HETATM   13  N   UNL     1      39.161 -11.481   7.103  1.00  0.00    -0.208 NA
HETATM   14  C   UNL     1      39.917 -12.193   6.205  1.00  0.00     0.117 A 
BRANCH  11  15
HETATM   15  N   UNL     1      38.764  -9.536   8.267  1.00  0.00    -0.272 NA
HETATM   16  H   UNL     1      38.506  -9.971   9.142  1.00  0.00     0.127 HD
HETATM   17  H   UNL     1      37.983  -9.083   7.803  1.00  0.00     0.127 HD
ENDBRANCH  11  15
BRANCH  14  18
HETATM   18  N   UNL     1      39.439 -13.449   5.888  1.00  0.00    -0.286 NA
HETATM   19  H   UNL     1      40.003 -14.190   6.294  1.00  0.00     0.125 HD
HETATM   20  H   UNL     1      38.490 -13.510   6.249  1.00  0.00     0.125 HD
ENDBRANCH  14  18
ENDBRANCH   6   7
ENDBRANCH   2   6
BRANCH   1  21
HETATM   21  C   UNL     1      44.132 -12.550   6.702  1.00  0.00     0.010 A 
HETATM   22  C   UNL     1      45.144 -11.704   6.256  1.00  0.00     0.017 A 
HETATM   23  C   UNL     1      45.567 -10.622   7.047  1.00  0.00     0.030 A 
HETATM   24  C   UNL     1      44.980 -10.321   8.290  1.00  0.00     0.029 A 
HETATM   25  C   UNL     1      43.981 -11.209   8.724  1.00  0.00     0.030 A 
HETATM   26  C   UNL     1      43.555 -12.293   7.945  1.00  0.00     0.017 A 
BRANCH  24  27
HETATM   27  N   UNL     1      45.389  -9.221   9.060  1.00  0.00    -0.390 N 
HETATM   28  C   UNL     1      44.934  -7.890   8.656  1.00  0.00     0.149 C 
HETATM   29  C   UNL     1      45.560  -9.405  10.502  1.00  0.00     0.149 C 
ENDBRANCH  24  27
ENDBRANCH   1  21
BRANCH   3  30
HETATM   30  C   UNL     1      41.657 -15.067   3.122  1.00  0.00    -0.007 A 
HETATM   31  C   UNL     1      40.433 -15.737   3.265  1.00  0.00     0.014 A 
HETATM   32  C   UNL     1      39.638 -16.016   2.153  1.00  0.00     0.001 A 
HETATM   33  C   UNL     1      40.062 -15.628   0.884  1.00  0.00     0.000 A 
HETATM   34  C   UNL     1      41.275 -14.959   0.730  1.00  0.00     0.001 A 
HETATM   35  C   UNL     1      42.069 -14.673   1.845  1.00  0.00     0.014 A 
ENDBRANCH   3  30
BRANCH   4  36
HETATM   36  C   UNL     1      43.439 -17.050   4.987  1.00  0.00    -0.005 A 
HETATM   37  C   UNL     1      43.809 -17.622   3.760  1.00  0.00     0.014 A 
HETATM   38  C   UNL     1      44.036 -18.996   3.650  1.00  0.00     0.001 A 
HETATM   39  C   UNL     1      43.901 -19.814   4.769  1.00  0.00     0.000 A 
HETATM   40  C   UNL     1      43.543 -19.259   5.996  1.00  0.00     0.001 A 
HETATM   41  C   UNL     1      43.319 -17.882   6.106  1.00  0.00     0.014 A 
ENDBRANCH   4  36
TORSDOF 8
ENDMDL
MODEL 2
REMARK VINA RESULT:      -8.9      2.747      6.273
REMARK  8 active torsions:
REMARK  status: ('A' for Active; 'I' for Inactive)
REMARK    1  A    between atoms: N_2  and  C_3 
REMARK    2  A    between atoms: C_6  and  C_7 
REMARK    3  A    between atoms: N_8  and  C_9 
REMARK    4  A    between atoms: C_9  and  C_10 
REMARK    5  A    between atoms: C_14  and  N_15 
REMARK    6  A    between atoms: C_17  and  N_18 
REMARK    7  A    between atoms: C_19  and  C_20 
REMARK    8  A    between atoms: C_26  and  C_27 
ROOT
HETATM    1  C   UNL     1      41.565 -14.911   1.658  1.00  0.00     0.141 A 
HETATM    2  N   UNL     1      41.901 -14.424   2.910  1.00  0.00    -0.324 N 
HETATM    3  C   UNL     1      42.399 -15.485   3.665  1.00  0.00     0.076 A 
HETATM    4  C   UNL     1      42.406 -16.554   2.776  1.00  0.00     0.097 A 
HETATM    5  N   UNL     1      41.833 -16.197   1.584  1.00  0.00    -0.227 NA
ENDROOT
BRANCH   2   6
HETATM    6  C   UNL     1      41.825 -13.020   3.316  1.00  0.00     0.178 C 
BRANCH   6   7
HETATM    7  C   UNL     1      40.907 -12.657   4.446  1.00  0.00     0.068 A 
HETATM    8  C   UNL     1      41.589 -12.030   5.604  1.00  0.00     0.259 A 
HETATM    9  O   UNL     1      42.806 -11.873   5.649  1.00  0.00    -0.267 OA
HETATM   10  N   UNL     1      40.788 -11.605   6.615  1.00  0.00    -0.298 N 
HETATM   11  C   UNL     1      39.442 -11.714   6.555  1.00  0.00     0.181 A 
HETATM   12  H   UNL     1      41.235 -11.122   7.375  1.00  0.00     0.171 HD
HETATM   13  N   UNL     1      38.831 -12.265   5.562  1.00  0.00    -0.208 NA
HETATM   14  C   UNL     1      39.560 -12.732   4.497  1.00  0.00     0.117 A 
BRANCH  11  15
HETATM   15  N   UNL     1      38.748 -11.215   7.608  1.00  0.00    -0.272 NA
HETATM   16  H   UNL     1      37.935 -11.733   7.909  1.00  0.00     0.127 HD
HETATM   17  H   UNL     1      38.572 -10.220   7.510  1.00  0.00     0.127 HD
ENDBRANCH  11  15
BRANCH  14  18
HETATM   18  N   UNL     1      38.822 -13.246   3.450  1.00  0.00    -0.286 NA
HETATM   19  H   UNL     1      37.918 -12.793   3.355  1.00  0.00     0.125 HD
HETATM   20  H   UNL     1      39.364 -13.102   2.600  1.00  0.00     0.125 HD
ENDBRANCH  14  18
ENDBRANCH   6   7
ENDBRANCH   2   6
BRANCH   1  21
HETATM   21  C   UNL     1      40.963 -14.167   0.553  1.00  0.00     0.010 A 
HETATM   22  C   UNL     1      39.961 -14.708  -0.249  1.00  0.00     0.017 A 
HETATM   23  C   UNL     1      39.342 -13.925  -1.238  1.00  0.00     0.030 A 
HETATM   24  C   UNL     1      39.669 -12.572  -1.445  1.00  0.00     0.029 A 
HETATM   25  C   UNL     1      40.702 -12.064  -0.638  1.00  0.00     0.030 A 
HETATM   26  C   UNL     1      41.330 -12.838   0.348  1.00  0.00     0.017 A 
BRANCH  24  27
HETATM   27  N   UNL     1      39.026 -11.789  -2.416  1.00  0.00    -0.390 N 
HETATM   28  C   UNL     1      37.563 -11.739  -2.402  1.00  0.00     0.149 C 
HETATM   29  C   UNL     1      39.683 -10.563  -2.870  1.00  0.00     0.149 C 
ENDBRANCH  24  27
ENDBRANCH   1  21
BRANCH   3  30
HETATM   30  C   UNL     1      42.711 -15.436   5.093  1.00  0.00    -0.007 A 
HETATM   31  C   UNL     1      41.731 -15.820   6.021  1.00  0.00     0.014 A 
HETATM   32  C   UNL     1      41.998 -15.799   7.391  1.00  0.00     0.001 A 
HETATM   33  C   UNL     1      43.250 -15.392   7.846  1.00  0.00     0.000 A 
HETATM   34  C   UNL     1      44.233 -15.011   6.933  1.00  0.00     0.001 A 
HETATM   35  C   UNL     1      43.968 -15.038   5.560  1.00  0.00     0.014 A 
ENDBRANCH   3  30
BRANCH   4  36
HETATM   36  C   UNL     1      42.900 -17.908   2.987  1.00  0.00    -0.005 A 
HETATM   37  C   UNL     1      42.658 -18.880   2.003  1.00  0.00     0.014 A 
HETATM   38  C   UNL     1      43.167 -20.174   2.135  1.00  0.00     0.001 A 
HETATM   39  C   UNL     1      43.931 -20.510   3.249  1.00  0.00     0.000 A 
HETATM   40  C   UNL     1      44.187 -19.554   4.229  1.00  0.00     0.001 A 
HETATM   41  C   UNL     1      43.679 -18.257   4.096  1.00  0.00     0.014 A 
ENDBRANCH   4  36
TORSDOF 8
ENDMDL
MODEL 3
REMARK VINA RESULT:      -8.8      2.511      7.525
REMARK  8 active torsions:
REMARK  status: ('A' for Active; 'I' for Inactive)
REMARK    1  A    between atoms: N_2  and  C_3 
REMARK    2  A    between atoms: C_6  and  C_7 
REMARK    3  A    between atoms: N_8  and  C_9 
REMARK    4  A    between atoms: C_9  and  C_10 
REMARK    5  A    between atoms: C_14  and  N_15 
REMARK    6  A    between atoms: C_17  and  N_18 
REMARK    7  A    between atoms: C_19  and  C_20 
REMARK    8  A    between atoms: C_26  and  C_27 
ROOT
HETATM    1  C   UNL     1      42.902 -14.583   5.140  1.00  0.00     0.141 A 
HETATM    2  N   UNL     1      41.797 -13.760   5.006  1.00  0.00    -0.324 N 
HETATM    3  C   UNL     1      42.050 -12.582   5.709  1.00  0.00     0.076 A 
HETATM    4  C   UNL     1      43.352 -12.740   6.167  1.00  0.00     0.097 A 
HETATM    5  N   UNL     1      43.825 -13.990   5.865  1.00  0.00    -0.227 NA
ENDROOT
BRANCH   2   6
HETATM    6  C   UNL     1      40.618 -14.057   4.190  1.00  0.00     0.178 C 
BRANCH   6   7
HETATM    7  C   UNL     1      40.744 -13.954   2.699  1.00  0.00     0.068 A 
HETATM    8  C   UNL     1      39.982 -14.984   1.953  1.00  0.00     0.259 A 
HETATM    9  O   UNL     1      39.348 -15.873   2.515  1.00  0.00    -0.267 OA
HETATM   10  N   UNL     1      39.995 -14.879   0.600  1.00  0.00    -0.298 N 
HETATM   11  C   UNL     1      40.636 -13.871  -0.034  1.00  0.00     0.181 A 
HETATM   12  H   UNL     1      39.430 -15.535   0.088  1.00  0.00     0.171 HD
HETATM   13  N   UNL     1      41.312 -12.971   0.596  1.00  0.00    -0.208 NA
HETATM   14  C   UNL     1      41.363 -13.002   1.967  1.00  0.00     0.117 A 
BRANCH  11  15
HETATM   15  N   UNL     1      40.541 -13.850  -1.386  1.00  0.00    -0.272 NA
HETATM   16  H   UNL     1      39.611 -13.866  -1.781  1.00  0.00     0.127 HD
HETATM   17  H   UNL     1      41.170 -14.516  -1.822  1.00  0.00     0.127 HD
ENDBRANCH  11  15
BRANCH  14  18
HETATM   18  N   UNL     1      42.053 -11.965   2.562  1.00  0.00    -0.286 NA
HETATM   19  H   UNL     1      42.184 -11.178   1.933  1.00  0.00     0.125 HD
HETATM   20  H   UNL     1      41.511 -11.666   3.370  1.00  0.00     0.125 HD
ENDBRANCH  14  18
ENDBRANCH   6   7
ENDBRANCH   2   6
BRANCH   1  21
HETATM   21  C   UNL     1      43.066 -15.935   4.609  1.00  0.00     0.010 A 
HETATM   22  C   UNL     1      43.180 -16.189   3.244  1.00  0.00     0.017 A 
HETATM   23  C   UNL     1      43.433 -17.492   2.783  1.00  0.00     0.030 A 
HETATM   24  C   UNL     1      43.615 -18.581   3.656  1.00  0.00     0.029 A 
HETATM   25  C   UNL     1      43.467 -18.296   5.024  1.00  0.00     0.030 A 
HETATM   26  C   UNL     1      43.210 -17.002   5.495  1.00  0.00     0.017 A 
BRANCH  24  27
HETATM   27  N   UNL     1      43.896 -19.873   3.187  1.00  0.00    -0.390 N 
HETATM   28  C   UNL     1      43.927 -20.967   4.158  1.00  0.00     0.149 C 
HETATM   29  C   UNL     1      43.432 -20.245   1.850  1.00  0.00     0.149 C 
ENDBRANCH  24  27
ENDBRANCH   1  21
BRANCH   3  30
HETATM   30  C   UNL     1      41.076 -11.520   5.962  1.00  0.00    -0.007 A 
HETATM   31  C   UNL     1      41.365 -10.213   5.542  1.00  0.00     0.014 A 
HETATM   32  C   UNL     1      40.454  -9.178   5.752  1.00  0.00     0.001 A 
HETATM   33  C   UNL     1      39.243  -9.440   6.387  1.00  0.00     0.000 A 
HETATM   34  C   UNL     1      38.942 -10.736   6.806  1.00  0.00     0.001 A 
HETATM   35  C   UNL     1      39.852 -11.775   6.589  1.00  0.00     0.014 A 
ENDBRANCH   3  30
BRANCH   4  36
HETATM   36  C   UNL     1      44.180 -11.789   6.898  1.00  0.00    -0.005 A 
HETATM   37  C   UNL     1      43.721 -11.295   8.129  1.00  0.00     0.014 A 
HETATM   38  C   UNL     1      44.510 -10.431   8.893  1.00  0.00     0.001 A 
HETATM   39  C   UNL     1      45.770 -10.056   8.437  1.00  0.00     0.000 A 
HETATM   40  C   UNL     1      46.243 -10.545   7.221  1.00  0.00     0.001 A 
HETATM   41  C   UNL     1      45.454 -11.413   6.458  1.00  0.00     0.014 A 
ENDBRANCH   4  36
TORSDOF 8
ENDMDL
MODEL 4
REMARK VINA RESULT:      -8.4      3.148      6.884
REMARK  8 active torsions:
REMARK  status: ('A' for Active; 'I' for Inactive)
REMARK    1  A    between atoms: N_2  and  C_3 
REMARK    2  A    between atoms: C_6  and  C_7 
REMARK    3  A    between atoms: N_8  and  C_9 
REMARK    4  A    between atoms: C_9  and  C_10 
REMARK    5  A    between atoms: C_14  and  N_15 
REMARK    6  A    between atoms: C_17  and  N_18 
REMARK    7  A    between atoms: C_19  and  C_20 
REMARK    8  A    between atoms: C_26  and  C_27 
ROOT
HETATM    1  C   UNL     1      41.310 -14.687   1.564  1.00  0.00     0.141 A 
HETATM    2  N   UNL     1      41.370 -13.317   1.754  1.00  0.00    -0.324 N 
HETATM    3  C   UNL     1      40.668 -12.708   0.714  1.00  0.00     0.076 A 
HETATM    4  C   UNL     1      40.151 -13.775  -0.011  1.00  0.00     0.097 A 
HETATM    5  N   UNL     1      40.609 -14.966   0.487  1.00  0.00    -0.227 NA
ENDROOT
BRANCH   2   6
HETATM    6  C   UNL     1      41.988 -12.652   2.902  1.00  0.00     0.178 C 
BRANCH   6   7
HETATM    7  C   UNL     1      41.151 -12.427   4.127  1.00  0.00     0.068 A 
HETATM    8  C   UNL     1      41.858 -11.721   5.224  1.00  0.00     0.259 A 
HETATM    9  O   UNL     1      43.040 -11.399   5.147  1.00  0.00    -0.267 OA
HETATM   10  N   UNL     1      41.116 -11.418   6.319  1.00  0.00    -0.298 N 
HETATM   11  C   UNL     1      39.799 -11.711   6.395  1.00  0.00     0.181 A 
HETATM   12  H   UNL     1      41.570 -10.885   7.041  1.00  0.00     0.171 HD
HETATM   13  N   UNL     1      39.168 -12.332   5.457  1.00  0.00    -0.208 NA
HETATM   14  C   UNL     1      39.840 -12.687   4.313  1.00  0.00     0.117 A 
BRANCH  11  15
HETATM   15  N   UNL     1      39.156 -11.320   7.523  1.00  0.00    -0.272 NA
HETATM   16  H   UNL     1      38.155 -11.196   7.462  1.00  0.00     0.127 HD
HETATM   17  H   UNL     1      39.626 -10.543   7.978  1.00  0.00     0.127 HD
ENDBRANCH  11  15
BRANCH  14  18
HETATM   18  N   UNL     1      39.074 -13.289   3.335  1.00  0.00    -0.286 NA
HETATM   19  H   UNL     1      39.382 -14.236   3.133  1.00  0.00     0.125 HD
HETATM   20  H   UNL     1      38.115 -13.311   3.675  1.00  0.00     0.125 HD
ENDBRANCH  14  18
ENDBRANCH   6   7
ENDBRANCH   2   6
BRANCH   1  21
HETATM   21  C   UNL     1      41.941 -15.721   2.382  1.00  0.00     0.010 A 
HETATM   22  C   UNL     1      43.037 -16.456   1.936  1.00  0.00     0.017 A 
HETATM   23  C   UNL     1      43.674 -17.372   2.790  1.00  0.00     0.030 A 
HETATM   24  C   UNL     1      43.271 -17.567   4.125  1.00  0.00     0.029 A 
HETATM   25  C   UNL     1      42.147 -16.830   4.536  1.00  0.00     0.030 A 
HETATM   26  C   UNL     1      41.501 -15.918   3.691  1.00  0.00     0.017 A 
BRANCH  24  27
HETATM   27  N   UNL     1      43.931 -18.462   4.980  1.00  0.00    -0.390 N 
HETATM   28  C   UNL     1      43.574 -18.451   6.399  1.00  0.00     0.149 C 
HETATM   29  C   UNL     1      44.324 -19.769   4.451  1.00  0.00     0.149 C 
ENDBRANCH  24  27
ENDBRANCH   1  21
BRANCH   3  30
HETATM   30  C   UNL     1      40.629 -11.270   0.447  1.00  0.00    -0.007 A 
HETATM   31  C   UNL     1      41.469 -10.735  -0.541  1.00  0.00     0.014 A 
HETATM   32  C   UNL     1      41.448  -9.371  -0.833  1.00  0.00     0.001 A 
HETATM   33  C   UNL     1      40.587  -8.527  -0.136  1.00  0.00     0.000 A 
HETATM   34  C   UNL     1      39.745  -9.047   0.846  1.00  0.00     0.001 A 
HETATM   35  C   UNL     1      39.761 -10.416   1.134  1.00  0.00     0.014 A 
ENDBRANCH   3  30
BRANCH   4  36
HETATM   36  C   UNL     1      39.264 -13.744  -1.166  1.00  0.00    -0.005 A 
HETATM   37  C   UNL     1      39.305 -14.806  -2.082  1.00  0.00     0.014 A 
HETATM   38  C   UNL     1      38.429 -14.848  -3.170  1.00  0.00     0.001 A 
HETATM   39  C   UNL     1      37.497 -13.830  -3.350  1.00  0.00     0.000 A 
HETATM   40  C   UNL     1      37.438 -12.774  -2.443  1.00  0.00     0.001 A 
HETATM   41  C   UNL     1      38.314 -12.733  -1.353  1.00  0.00     0.014 A 
ENDBRANCH   4  36
TORSDOF 8
ENDMDL
MODEL 5
REMARK VINA RESULT:      -8.4      3.447      6.881
REMARK  8 active torsions:
REMARK  status: ('A' for Active; 'I' for Inactive)
REMARK    1  A    between atoms: N_2  and  C_3 
REMARK    2  A    between atoms: C_6  and  C_7 
REMARK    3  A    between atoms: N_8  and  C_9 
REMARK    4  A    between atoms: C_9  and  C_10 
REMARK    5  A    between atoms: C_14  and  N_15 
REMARK    6  A    between atoms: C_17  and  N_18 
REMARK    7  A    between atoms: C_19  and  C_20 
REMARK    8  A    between atoms: C_26  and  C_27 
ROOT
HETATM    1  C   UNL     1      40.582 -14.167   2.187  1.00  0.00     0.141 A 
HETATM    2  N   UNL     1      40.152 -12.869   2.405  1.00  0.00    -0.324 N 
HETATM    3  C   UNL     1      39.548 -12.413   1.233  1.00  0.00     0.076 A 
HETATM    4  C   UNL     1      39.583 -13.516   0.388  1.00  0.00     0.097 A 
HETATM    5  N   UNL     1      40.274 -14.548   0.966  1.00  0.00    -0.227 NA
ENDROOT
BRANCH   2   6
HETATM    6  C   UNL     1      40.243 -12.154   3.679  1.00  0.00     0.178 C 
BRANCH   6   7
HETATM    7  C   UNL     1      41.606 -11.857   4.230  1.00  0.00     0.068 A 
HETATM    8  C   UNL     1      41.851 -12.420   5.580  1.00  0.00     0.259 A 
HETATM    9  O   UNL     1      40.989 -13.029   6.208  1.00  0.00    -0.267 OA
HETATM   10  N   UNL     1      43.100 -12.252   6.084  1.00  0.00    -0.298 N 
HETATM   11  C   UNL     1      44.078 -11.637   5.382  1.00  0.00     0.181 A 
HETATM   12  H   UNL     1      43.293 -12.684   6.971  1.00  0.00     0.171 HD
HETATM   13  N   UNL     1      43.883 -11.133   4.211  1.00  0.00    -0.208 NA
HETATM   14  C   UNL     1      42.647 -11.248   3.624  1.00  0.00     0.117 A 
BRANCH  11  15
HETATM   15  N   UNL     1      45.296 -11.568   5.975  1.00  0.00    -0.272 NA
HETATM   16  H   UNL     1      45.529 -12.301   6.630  1.00  0.00     0.127 HD
HETATM   17  H   UNL     1      45.493 -10.638   6.331  1.00  0.00     0.127 HD
ENDBRANCH  11  15
BRANCH  14  18
HETATM   18  N   UNL     1      42.545 -10.738   2.346  1.00  0.00    -0.286 NA
HETATM   19  H   UNL     1      41.615 -10.857   1.956  1.00  0.00     0.125 HD
HETATM   20  H   UNL     1      42.765  -9.745   2.399  1.00  0.00     0.125 HD
ENDBRANCH  14  18
ENDBRANCH   6   7
ENDBRANCH   2   6
BRANCH   1  21
HETATM   21  C   UNL     1      41.309 -15.025   3.120  1.00  0.00     0.010 A 
HETATM   22  C   UNL     1      42.700 -15.082   3.149  1.00  0.00     0.017 A 
HETATM   23  C   UNL     1      43.361 -15.846   4.126  1.00  0.00     0.030 A 
HETATM   24  C   UNL     1      42.669 -16.552   5.129  1.00  0.00     0.029 A 
HETATM   25  C   UNL     1      41.266 -16.495   5.056  1.00  0.00     0.030 A 
HETATM   26  C   UNL     1      40.597 -15.740   4.083  1.00  0.00     0.017 A 
BRANCH  24  27
HETATM   27  N   UNL     1      43.337 -17.288   6.118  1.00  0.00    -0.390 N 
HETATM   28  C   UNL     1      43.662 -18.687   5.834  1.00  0.00     0.149 C 
HETATM   29  C   UNL     1      44.297 -16.592   6.976  1.00  0.00     0.149 C 
ENDBRANCH  24  27
ENDBRANCH   1  21
BRANCH   3  30
HETATM   30  C   UNL     1      39.109 -11.040   0.986  1.00  0.00    -0.007 A 
HETATM   31  C   UNL     1      39.922 -10.190   0.221  1.00  0.00     0.014 A 
HETATM   32  C   UNL     1      39.530  -8.878  -0.049  1.00  0.00     0.001 A 
HETATM   33  C   UNL     1      38.317  -8.403   0.447  1.00  0.00     0.000 A 
HETATM   34  C   UNL     1      37.499  -9.240   1.206  1.00  0.00     0.001 A 
HETATM   35  C   UNL     1      37.890 -10.556   1.470  1.00  0.00     0.014 A 
ENDBRANCH   3  30
BRANCH   4  36
HETATM   36  C   UNL     1      39.022 -13.654  -0.949  1.00  0.00    -0.005 A 
HETATM   37  C   UNL     1      39.418 -14.742  -1.742  1.00  0.00     0.014 A 
HETATM   38  C   UNL     1      38.859 -14.949  -3.006  1.00  0.00     0.001 A 
HETATM   39  C   UNL     1      37.891 -14.072  -3.488  1.00  0.00     0.000 A 
HETATM   40  C   UNL     1      37.481 -12.993  -2.708  1.00  0.00     0.001 A 
HETATM   41  C   UNL     1      38.040 -12.788  -1.442  1.00  0.00     0.014 A 
ENDBRANCH   4  36
TORSDOF 8
ENDMDL
MODEL 6
REMARK VINA RESULT:      -8.4      2.949      6.656
REMARK  8 active torsions:
REMARK  status: ('A' for Active; 'I' for Inactive)
REMARK    1  A    between atoms: N_2  and  C_3 
REMARK    2  A    between atoms: C_6  and  C_7 
REMARK    3  A    between atoms: N_8  and  C_9 
REMARK    4  A    between atoms: C_9  and  C_10 
REMARK    5  A    between atoms: C_14  and  N_15 
REMARK    6  A    between atoms: C_17  and  N_18 
REMARK    7  A    between atoms: C_19  and  C_20 
REMARK    8  A    between atoms: C_26  and  C_27 
ROOT
HETATM    1  C   UNL     1      41.297 -14.516   1.657  1.00  0.00     0.141 A 
HETATM    2  N   UNL     1      41.476 -14.165   2.985  1.00  0.00    -0.324 N 
HETATM    3  C   UNL     1      42.052 -15.251   3.643  1.00  0.00     0.076 A 
HETATM    4  C   UNL     1      42.261 -16.182   2.632  1.00  0.00     0.097 A 
HETATM    5  N   UNL     1      41.735 -15.738   1.448  1.00  0.00    -0.227 NA
ENDROOT
BRANCH   2   6
HETATM    6  C   UNL     1      41.188 -12.848   3.555  1.00  0.00     0.178 C 
BRANCH   6   7
HETATM    7  C   UNL     1      42.232 -12.205   4.419  1.00  0.00     0.068 A 
HETATM    8  C   UNL     1      41.819 -12.014   5.830  1.00  0.00     0.259 A 
HETATM    9  O   UNL     1      40.698 -12.310   6.236  1.00  0.00    -0.267 OA
HETATM   10  N   UNL     1      42.761 -11.516   6.670  1.00  0.00    -0.298 N 
HETATM   11  C   UNL     1      44.018 -11.241   6.254  1.00  0.00     0.181 A 
HETATM   12  H   UNL     1      42.509 -11.441   7.641  1.00  0.00     0.171 HD
HETATM   13  N   UNL     1      44.395 -11.392   5.030  1.00  0.00    -0.208 NA
HETATM   14  C   UNL     1      43.506 -11.883   4.106  1.00  0.00     0.117 A 
BRANCH  11  15
HETATM   15  N   UNL     1      44.881 -10.788   7.197  1.00  0.00    -0.272 NA
HETATM   16  H   UNL     1      45.765 -10.423   6.871  1.00  0.00     0.127 HD
HETATM   17  H   UNL     1      44.980 -11.441   7.967  1.00  0.00     0.127 HD
ENDBRANCH  11  15
BRANCH  14  18
HETATM   18  N   UNL     1      44.011 -12.073   2.836  1.00  0.00    -0.286 NA
HETATM   19  H   UNL     1      43.289 -12.023   2.122  1.00  0.00     0.125 HD
HETATM   20  H   UNL     1      44.699 -11.341   2.673  1.00  0.00     0.125 HD
ENDBRANCH  14  18
ENDBRANCH   6   7
ENDBRANCH   2   6
BRANCH   1  21
HETATM   21  C   UNL     1      40.685 -13.707   0.605  1.00  0.00     0.010 A 
HETATM   22  C   UNL     1      41.054 -12.384   0.374  1.00  0.00     0.017 A 
HETATM   23  C   UNL     1      40.511 -11.673  -0.709  1.00  0.00     0.030 A 
HETATM   24  C   UNL     1      39.611 -12.256  -1.620  1.00  0.00     0.029 A 
HETATM   25  C   UNL     1      39.238 -13.583  -1.344  1.00  0.00     0.030 A 
HETATM   26  C   UNL     1      39.770 -14.300  -0.264  1.00  0.00     0.017 A 
BRANCH  24  27
HETATM   27  N   UNL     1      39.096 -11.547  -2.716  1.00  0.00    -0.390 N 
HETATM   28  C   UNL     1      37.655 -11.296  -2.759  1.00  0.00     0.149 C 
HETATM   29  C   UNL     1      39.924 -10.504  -3.322  1.00  0.00     0.149 C 
ENDBRANCH  24  27
ENDBRANCH   1  21
BRANCH   3  30
HETATM   30  C   UNL     1      42.251 -15.357   5.089  1.00  0.00    -0.007 A 
HETATM   31  C   UNL     1      43.512 -15.061   5.628  1.00  0.00     0.014 A 
HETATM   32  C   UNL     1      43.735 -15.136   7.003  1.00  0.00     0.001 A 
HETATM   33  C   UNL     1      42.697 -15.512   7.853  1.00  0.00     0.000 A 
HETATM   34  C   UNL     1      41.439 -15.806   7.329  1.00  0.00     0.001 A 
HETATM   35  C   UNL     1      41.214 -15.724   5.951  1.00  0.00     0.014 A 
ENDBRANCH   3  30
BRANCH   4  36
HETATM   36  C   UNL     1      42.911 -17.483   2.716  1.00  0.00    -0.005 A 
HETATM   37  C   UNL     1      43.861 -17.704   3.724  1.00  0.00     0.014 A 
HETATM   38  C   UNL     1      44.463 -18.956   3.880  1.00  0.00     0.001 A 
HETATM   39  C   UNL     1      44.115 -20.004   3.031  1.00  0.00     0.000 A 
HETATM   40  C   UNL     1      43.166 -19.801   2.032  1.00  0.00     0.001 A 
HETATM   41  C   UNL     1      42.563 -18.548   1.877  1.00  0.00     0.014 A 
ENDBRANCH   4  36
TORSDOF 8
ENDMDL
MODEL 7
REMARK VINA RESULT:      -8.3      2.041      2.821
REMARK  8 active torsions:
REMARK  status: ('A' for Active; 'I' for Inactive)
REMARK    1  A    between atoms: N_2  and  C_3 
REMARK    2  A    between atoms: C_6  and  C_7 
REMARK    3  A    between atoms: N_8  and  C_9 
REMARK    4  A    between atoms: C_9  and  C_10 
REMARK    5  A    between atoms: C_14  and  N_15 
REMARK    6  A    between atoms: C_17  and  N_18 
REMARK    7  A    between atoms: C_19  and  C_20 
REMARK    8  A    between atoms: C_26  and  C_27 
ROOT
HETATM    1  C   UNL     1      43.532 -13.779   5.884  1.00  0.00     0.141 A 
HETATM    2  N   UNL     1      42.501 -13.677   4.965  1.00  0.00    -0.324 N 
HETATM    3  C   UNL     1      42.374 -14.907   4.321  1.00  0.00     0.076 A 
HETATM    4  C   UNL     1      43.306 -15.717   4.962  1.00  0.00     0.097 A 
HETATM    5  N   UNL     1      44.042 -14.991   5.861  1.00  0.00    -0.227 NA
ENDROOT
BRANCH   2   6
HETATM    6  C   UNL     1      41.647 -12.502   4.784  1.00  0.00     0.178 C 
BRANCH   6   7
HETATM    7  C   UNL     1      41.570 -11.884   3.419  1.00  0.00     0.068 A 
HETATM    8  C   UNL     1      40.216 -11.913   2.814  1.00  0.00     0.259 A 
HETATM    9  O   UNL     1      39.258 -12.445   3.367  1.00  0.00    -0.267 OA
HETATM   10  N   UNL     1      40.079 -11.289   1.617  1.00  0.00    -0.298 N 
HETATM   11  C   UNL     1      41.109 -10.645   1.023  1.00  0.00     0.181 A 
HETATM   12  H   UNL     1      39.152 -11.249   1.230  1.00  0.00     0.171 HD
HETATM   13  N   UNL     1      42.296 -10.616   1.527  1.00  0.00    -0.208 NA
HETATM   14  C   UNL     1      42.532 -11.229   2.733  1.00  0.00     0.117 A 
BRANCH  11  15
HETATM   15  N   UNL     1      40.837 -10.023  -0.150  1.00  0.00    -0.272 NA
HETATM   16  H   UNL     1      39.929  -9.590  -0.240  1.00  0.00     0.127 HD
HETATM   17  H   UNL     1      41.086 -10.596  -0.951  1.00  0.00     0.127 HD
ENDBRANCH  11  15
BRANCH  14  18
HETATM   18  N   UNL     1      43.812 -11.093   3.230  1.00  0.00    -0.286 NA
HETATM   19  H   UNL     1      44.481 -11.680   2.738  1.00  0.00     0.125 HD
HETATM   20  H   UNL     1      44.076 -10.116   3.122  1.00  0.00     0.125 HD
ENDBRANCH  14  18
ENDBRANCH   6   7
ENDBRANCH   2   6
BRANCH   1  21
HETATM   21  C   UNL     1      44.049 -12.724   6.752  1.00  0.00     0.010 A 
HETATM   22  C   UNL     1      45.212 -12.017   6.453  1.00  0.00     0.017 A 
HETATM   23  C   UNL     1      45.621 -10.946   7.264  1.00  0.00     0.030 A 
HETATM   24  C   UNL     1      44.877 -10.514   8.378  1.00  0.00     0.029 A 
HETATM   25  C   UNL     1      43.724 -11.263   8.668  1.00  0.00     0.030 A 
HETATM   26  C   UNL     1      43.309 -12.337   7.869  1.00  0.00     0.017 A 
BRANCH  24  27
HETATM   27  N   UNL     1      45.278  -9.424   9.165  1.00  0.00    -0.390 N 
HETATM   28  C   UNL     1      44.958  -8.077   8.692  1.00  0.00     0.149 C 
HETATM   29  C   UNL     1      45.289  -9.582  10.620  1.00  0.00     0.149 C 
ENDBRANCH  24  27
ENDBRANCH   1  21
BRANCH   3  30
HETATM   30  C   UNL     1      41.517 -15.175   3.167  1.00  0.00    -0.007 A 
HETATM   31  C   UNL     1      40.263 -15.771   3.370  1.00  0.00     0.014 A 
HETATM   32  C   UNL     1      39.413 -16.028   2.294  1.00  0.00     0.001 A 
HETATM   33  C   UNL     1      39.810 -15.692   1.002  1.00  0.00     0.000 A 
HETATM   34  C   UNL     1      41.053 -15.097   0.788  1.00  0.00     0.001 A 
HETATM   35  C   UNL     1      41.902 -14.833   1.867  1.00  0.00     0.014 A 
ENDBRANCH   3  30
BRANCH   4  36
HETATM   36  C   UNL     1      43.565 -17.136   4.763  1.00  0.00    -0.005 A 
HETATM   37  C   UNL     1      43.859 -17.598   3.470  1.00  0.00     0.014 A 
HETATM   38  C   UNL     1      44.176 -18.940   3.244  1.00  0.00     0.001 A 
HETATM   39  C   UNL     1      44.208 -19.835   4.310  1.00  0.00     0.000 A 
HETATM   40  C   UNL     1      43.927 -19.389   5.600  1.00  0.00     0.001 A 
HETATM   41  C   UNL     1      43.613 -18.045   5.826  1.00  0.00     0.014 A 
ENDBRANCH   4  36
TORSDOF 8
ENDMDL
MODEL 8
REMARK VINA RESULT:      -7.9      2.389      5.605
REMARK  8 active torsions:
REMARK  status: ('A' for Active; 'I' for Inactive)
REMARK    1  A    between atoms: N_2  and  C_3 
REMARK    2  A    between atoms: C_6  and  C_7 
REMARK    3  A    between atoms: N_8  and  C_9 
REMARK    4  A    between atoms: C_9  and  C_10 
REMARK    5  A    between atoms: C_14  and  N_15 
REMARK    6  A    between atoms: C_17  and  N_18 
REMARK    7  A    between atoms: C_19  and  C_20 
REMARK    8  A    between atoms: C_26  and  C_27 
ROOT
HETATM    1  C   UNL     1      40.397 -12.084   4.209  1.00  0.00     0.141 A 
HETATM    2  N   UNL     1      41.269 -13.159   4.207  1.00  0.00    -0.324 N 
HETATM    3  C   UNL     1      41.219 -13.752   2.947  1.00  0.00     0.076 A 
HETATM    4  C   UNL     1      40.359 -12.932   2.225  1.00  0.00     0.097 A 
HETATM    5  N   UNL     1      39.821 -11.965   3.032  1.00  0.00    -0.227 NA
ENDROOT
BRANCH   2   6
HETATM    6  C   UNL     1      42.148 -13.532   5.317  1.00  0.00     0.178 C 
BRANCH   6   7
HETATM    7  C   UNL     1      43.298 -12.627   5.647  1.00  0.00     0.068 A 
HETATM    8  C   UNL     1      43.802 -12.766   7.035  1.00  0.00     0.259 A 
HETATM    9  O   UNL     1      43.284 -13.521   7.853  1.00  0.00    -0.267 OA
HETATM   10  N   UNL     1      44.897 -12.031   7.353  1.00  0.00    -0.298 N 
HETATM   11  C   UNL     1      45.517 -11.241   6.448  1.00  0.00     0.181 A 
HETATM   12  H   UNL     1      45.283 -12.166   8.272  1.00  0.00     0.171 HD
HETATM   13  N   UNL     1      45.090 -11.099   5.239  1.00  0.00    -0.208 NA
HETATM   14  C   UNL     1      43.982 -11.798   4.829  1.00  0.00     0.117 A 
BRANCH  11  15
HETATM   15  N   UNL     1      46.627 -10.588   6.874  1.00  0.00    -0.272 NA
HETATM   16  H   UNL     1      46.871  -9.735   6.391  1.00  0.00     0.127 HD
HETATM   17  H   UNL     1      47.414 -11.217   6.995  1.00  0.00     0.127 HD
ENDBRANCH  11  15
BRANCH  14  18
HETATM   18  N   UNL     1      43.633 -11.637   3.503  1.00  0.00    -0.286 NA
HETATM   19  H   UNL     1      44.108 -12.298   2.896  1.00  0.00     0.125 HD
HETATM   20  H   UNL     1      42.627 -11.779   3.437  1.00  0.00     0.125 HD
ENDBRANCH  14  18
ENDBRANCH   6   7
ENDBRANCH   2   6
BRANCH   1  21
HETATM   21  C   UNL     1      40.088 -11.198   5.330  1.00  0.00     0.010 A 
HETATM   22  C   UNL     1      39.187 -11.552   6.332  1.00  0.00     0.017 A 
HETATM   23  C   UNL     1      38.992 -10.713   7.442  1.00  0.00     0.030 A 
HETATM   24  C   UNL     1      39.707  -9.513   7.616  1.00  0.00     0.029 A 
HETATM   25  C   UNL     1      40.588  -9.171   6.576  1.00  0.00     0.030 A 
HETATM   26  C   UNL     1      40.786  -9.998   5.462  1.00  0.00     0.017 A 
BRANCH  24  27
HETATM   27  N   UNL     1      39.527  -8.695   8.743  1.00  0.00    -0.390 N 
HETATM   28  C   UNL     1      40.402  -8.909   9.896  1.00  0.00     0.149 C 
HETATM   29  C   UNL     1      39.100  -7.311   8.538  1.00  0.00     0.149 C 
ENDBRANCH  24  27
ENDBRANCH   1  21
BRANCH   3  30
HETATM   30  C   UNL     1      41.861 -15.014   2.578  1.00  0.00    -0.007 A 
HETATM   31  C   UNL     1      43.067 -14.983   1.860  1.00  0.00     0.014 A 
HETATM   32  C   UNL     1      43.715 -16.165   1.504  1.00  0.00     0.001 A 
HETATM   33  C   UNL     1      43.162 -17.393   1.861  1.00  0.00     0.000 A 
HETATM   34  C   UNL     1      41.966 -17.436   2.577  1.00  0.00     0.001 A 
HETATM   35  C   UNL     1      41.320 -16.251   2.940  1.00  0.00     0.014 A 
ENDBRANCH   3  30
BRANCH   4  36
HETATM   36  C   UNL     1      39.990 -13.016   0.819  1.00  0.00    -0.005 A 
HETATM   37  C   UNL     1      39.798 -11.829   0.095  1.00  0.00     0.014 A 
HETATM   38  C   UNL     1      39.504 -11.862  -1.270  1.00  0.00     0.001 A 
HETATM   39  C   UNL     1      39.407 -13.084  -1.930  1.00  0.00     0.000 A 
HETATM   40  C   UNL     1      39.604 -14.270  -1.227  1.00  0.00     0.001 A 
HETATM   41  C   UNL     1      39.900 -14.237   0.140  1.00  0.00     0.014 A 
ENDBRANCH   4  36
TORSDOF 8
ENDMDL
MODEL 9
REMARK VINA RESULT:      -7.8      5.657      8.306
REMARK  8 active torsions:
REMARK  status: ('A' for Active; 'I' for Inactive)
REMARK    1  A    between atoms: N_2  and  C_3 
REMARK    2  A    between atoms: C_6  and  C_7 
REMARK    3  A    between atoms: N_8  and  C_9 
REMARK    4  A    between atoms: C_9  and  C_10 
REMARK    5  A    between atoms: C_14  and  N_15 
REMARK    6  A    between atoms: C_17  and  N_18 
REMARK    7  A    between atoms: C_19  and  C_20 
REMARK    8  A    between atoms: C_26  and  C_27 
ROOT
HETATM    1  C   UNL     1      41.513 -10.713   0.582  1.00  0.00     0.141 A 
HETATM    2  N   UNL     1      41.379 -12.087   0.469  1.00  0.00    -0.324 N 
HETATM    3  C   UNL     1      41.797 -12.660   1.669  1.00  0.00     0.076 A 
HETATM    4  C   UNL     1      42.089 -11.568   2.478  1.00  0.00     0.097 A 
HETATM    5  N   UNL     1      41.972 -10.399   1.774  1.00  0.00    -0.227 NA
ENDROOT
BRANCH   2   6
HETATM    6  C   UNL     1      40.810 -12.785  -0.685  1.00  0.00     0.178 C 
BRANCH   6   7
HETATM    7  C   UNL     1      39.537 -12.257  -1.277  1.00  0.00     0.068 A 
HETATM    8  C   UNL     1      39.586 -12.062  -2.747  1.00  0.00     0.259 A 
HETATM    9  O   UNL     1      40.601 -12.268  -3.407  1.00  0.00    -0.267 OA
HETATM   10  N   UNL     1      38.430 -11.669  -3.339  1.00  0.00    -0.298 N 
HETATM   11  C   UNL     1      37.288 -11.497  -2.637  1.00  0.00     0.181 A 
HETATM   12  H   UNL     1      38.437 -11.595  -4.342  1.00  0.00     0.171 HD
HETATM   13  N   UNL     1      37.227 -11.652  -1.358  1.00  0.00    -0.208 NA
HETATM   14  C   UNL     1      38.350 -12.042  -0.671  1.00  0.00     0.117 A 
BRANCH  11  15
HETATM   15  N   UNL     1      36.188 -11.144  -3.348  1.00  0.00    -0.272 NA
HETATM   16  H   UNL     1      35.290 -11.386  -2.953  1.00  0.00     0.127 HD
HETATM   17  H   UNL     1      36.273 -11.393  -4.328  1.00  0.00     0.127 HD
ENDBRANCH  11  15
BRANCH  14  18
HETATM   18  N   UNL     1      38.179 -12.246   0.683  1.00  0.00    -0.286 NA
HETATM   19  H   UNL     1      37.829 -11.419   1.157  1.00  0.00     0.125 HD
HETATM   20  H   UNL     1      37.510 -13.006   0.791  1.00  0.00     0.125 HD
ENDBRANCH  14  18
ENDBRANCH   6   7
ENDBRANCH   2   6
BRANCH   1  21
HETATM   21  C   UNL     1      41.239  -9.711  -0.446  1.00  0.00     0.010 A 
HETATM   22  C   UNL     1      40.112  -8.893  -0.404  1.00  0.00     0.017 A 
HETATM   23  C   UNL     1      39.935  -7.877  -1.359  1.00  0.00     0.030 A 
HETATM   24  C   UNL     1      40.883  -7.614  -2.366  1.00  0.00     0.029 A 
HETATM   25  C   UNL     1      41.994  -8.473  -2.397  1.00  0.00     0.030 A 
HETATM   26  C   UNL     1      42.178  -9.492  -1.452  1.00  0.00     0.017 A 
BRANCH  24  27
HETATM   27  N   UNL     1      40.712  -6.578  -3.298  1.00  0.00    -0.390 N 
HETATM   28  C   UNL     1      41.840  -5.679  -3.542  1.00  0.00     0.149 C 
HETATM   29  C   UNL     1      39.850  -6.818  -4.455  1.00  0.00     0.149 C 
ENDBRANCH  24  27
ENDBRANCH   1  21
BRANCH   3  30
HETATM   30  C   UNL     1      41.971 -14.093   1.908  1.00  0.00    -0.007 A 
HETATM   31  C   UNL     1      40.867 -14.859   2.309  1.00  0.00     0.014 A 
HETATM   32  C   UNL     1      40.992 -16.231   2.532  1.00  0.00     0.001 A 
HETATM   33  C   UNL     1      42.228 -16.850   2.356  1.00  0.00     0.000 A 
HETATM   34  C   UNL     1      43.332 -16.100   1.953  1.00  0.00     0.001 A 
HETATM   35  C   UNL     1      43.204 -14.726   1.724  1.00  0.00     0.014 A 
ENDBRANCH   3  30
BRANCH   4  36
HETATM   36  C   UNL     1      42.496 -11.556   3.876  1.00  0.00    -0.005 A 
HETATM   37  C   UNL     1      43.864 -11.611   4.185  1.00  0.00     0.014 A 
HETATM   38  C   UNL     1      44.303 -11.539   5.510  1.00  0.00     0.001 A 
HETATM   39  C   UNL     1      43.378 -11.404   6.541  1.00  0.00     0.000 A 
HETATM   40  C   UNL     1      42.017 -11.339   6.249  1.00  0.00     0.001 A 
HETATM   41  C   UNL     1      41.578 -11.410   4.922  1.00  0.00     0.014 A 
ENDBRANCH   4  36
TORSDOF 8
ENDMDL
MODEL 10
REMARK VINA RESULT:      -7.8      2.788      7.012
REMARK  8 active torsions:
REMARK  status: ('A' for Active; 'I' for Inactive)
REMARK    1  A    between atoms: N_2  and  C_3 
REMARK    2  A    between atoms: C_6  and  C_7 
REMARK    3  A    between atoms: N_8  and  C_9 
REMARK    4  A    between atoms: C_9  and  C_10 
REMARK    5  A    between atoms: C_14  and  N_15 
REMARK    6  A    between atoms: C_17  and  N_18 
REMARK    7  A    between atoms: C_19  and  C_20 
REMARK    8  A    between atoms: C_26  and  C_27 
ROOT
HETATM    1  C   UNL     1      41.871 -14.834   2.218  1.00  0.00     0.141 A 
HETATM    2  N   UNL     1      41.220 -13.857   2.952  1.00  0.00    -0.324 N 
HETATM    3  C   UNL     1      40.798 -12.864   2.069  1.00  0.00     0.076 A 
HETATM    4  C   UNL     1      41.161 -13.353   0.819  1.00  0.00     0.097 A 
HETATM    5  N   UNL     1      41.870 -14.519   0.941  1.00  0.00    -0.227 NA
ENDROOT
BRANCH   2   6
HETATM    6  C   UNL     1      40.951 -13.922   4.390  1.00  0.00     0.178 C 
BRANCH   6   7
HETATM    7  C   UNL     1      41.286 -12.724   5.229  1.00  0.00     0.068 A 
HETATM    8  C   UNL     1      40.147 -12.200   6.021  1.00  0.00     0.259 A 
HETATM    9  O   UNL     1      39.018 -12.678   5.950  1.00  0.00    -0.267 OA
HETATM   10  N   UNL     1      40.423 -11.171   6.861  1.00  0.00    -0.298 N 
HETATM   11  C   UNL     1      41.673 -10.673   6.998  1.00  0.00     0.181 A 
HETATM   12  H   UNL     1      39.672 -10.851   7.448  1.00  0.00     0.171 HD
HETATM   13  N   UNL     1      42.675 -11.108   6.312  1.00  0.00    -0.208 NA
HETATM   14  C   UNL     1      42.489 -12.143   5.429  1.00  0.00     0.117 A 
BRANCH  11  15
HETATM   15  N   UNL     1      41.830  -9.673   7.900  1.00  0.00    -0.272 NA
HETATM   16  H   UNL     1      41.406  -8.784   7.678  1.00  0.00     0.127 HD
HETATM   17  H   UNL     1      42.793  -9.589   8.209  1.00  0.00     0.127 HD
ENDBRANCH  11  15
BRANCH  14  18
HETATM   18  N   UNL     1      43.626 -12.589   4.785  1.00  0.00    -0.286 NA
HETATM   19  H   UNL     1      44.072 -13.357   5.279  1.00  0.00     0.125 HD
HETATM   20  H   UNL     1      43.344 -12.900   3.858  1.00  0.00     0.125 HD
ENDBRANCH  14  18
ENDBRANCH   6   7
ENDBRANCH   2   6
BRANCH   1  21
HETATM   21  C   UNL     1      42.519 -16.040   2.731  1.00  0.00     0.010 A 
HETATM   22  C   UNL     1      43.048 -16.110   4.018  1.00  0.00     0.017 A 
HETATM   23  C   UNL     1      43.575 -17.317   4.505  1.00  0.00     0.030 A 
HETATM   24  C   UNL     1      43.565 -18.505   3.750  1.00  0.00     0.029 A 
HETATM   25  C   UNL     1      43.049 -18.395   2.447  1.00  0.00     0.030 A 
HETATM   26  C   UNL     1      42.526 -17.194   1.949  1.00  0.00     0.017 A 
BRANCH  24  27
HETATM   27  N   UNL     1      44.067 -19.714   4.256  1.00  0.00    -0.390 N 
HETATM   28  C   UNL     1      43.972 -19.951   5.696  1.00  0.00     0.149 C 
HETATM   29  C   UNL     1      43.964 -20.913   3.424  1.00  0.00     0.149 C 
ENDBRANCH  24  27
ENDBRANCH   1  21
BRANCH   3  30
HETATM   30  C   UNL     1      40.219 -11.577   2.454  1.00  0.00    -0.007 A 
HETATM   31  C   UNL     1      38.829 -11.475   2.618  1.00  0.00     0.014 A 
HETATM   32  C   UNL     1      38.242 -10.268   2.999  1.00  0.00     0.001 A 
HETATM   33  C   UNL     1      39.042  -9.149   3.219  1.00  0.00     0.000 A 
HETATM   34  C   UNL     1      40.425  -9.239   3.062  1.00  0.00     0.001 A 
HETATM   35  C   UNL     1      41.013 -10.451   2.687  1.00  0.00     0.014 A 
ENDBRANCH   3  30
BRANCH   4  36
HETATM   36  C   UNL     1      40.901 -12.776  -0.493  1.00  0.00    -0.005 A 
HETATM   37  C   UNL     1      40.184 -13.528  -1.436  1.00  0.00     0.014 A 
HETATM   38  C   UNL     1      39.858 -12.990  -2.684  1.00  0.00     0.001 A 
HETATM   39  C   UNL     1      40.241 -11.689  -3.000  1.00  0.00     0.000 A 
HETATM   40  C   UNL     1      40.944 -10.927  -2.071  1.00  0.00     0.001 A 
HETATM   41  C   UNL     1      41.269 -11.465  -0.820  1.00  0.00     0.014 A 
ENDBRANCH   4  36
TORSDOF 8
ENDMDL
