MODEL 1
REMARK VINA RESULT:      -8.4      0.000      0.000
REMARK  10 active torsions:
REMARK  status: ('A' for Active; 'I' for Inactive)
REMARK    1  A    between atoms: C_6  and  C_7 
REMARK    2  A    between atoms: C_7  and  C_8 
REMARK       I    between atoms: C_8  and  N_9 
REMARK    3  A    between atoms: N_9  and  C_10 
REMARK    4  A    between atoms: C_10  and  C_11 
REMARK    5  A    between atoms: C_11  and  N_12 
REMARK    6  A    between atoms: C_19  and  C_20 
REMARK    7  A    between atoms: C_29  and  C_30 
REMARK    8  A    between atoms: C_30  and  O_31 
REMARK    9  A    between atoms: O_31  and  C_32 
REMARK   10  A    between atoms: C_32  and  C_33 
ROOT
HETATM    1  C   UNL     1      40.639 -16.084   6.566  1.00  0.00     0.071 C 
HETATM    2  C   UNL     1      41.002 -15.054   5.525  1.00  0.00     0.048 C 
HETATM    3  N   UNL     1      40.173 -13.940   5.516  1.00  0.00    -0.229 NA
HETATM    4  C   UNL     1      40.632 -12.876   4.950  1.00  0.00     0.170 C 
HETATM    5  N   UNL     1      42.024 -12.824   4.272  1.00  0.00    -0.319 N 
HETATM    6  C   UNL     1      42.591 -11.697   4.539  1.00  0.00     0.011 C 
HETATM    7  C   UNL     1      42.380 -14.123   3.666  1.00  0.00     0.166 C 
HETATM    8  S   UNL     1      39.967 -11.295   5.133  1.00  0.00    -0.086 SA
HETATM    9  C   UNL     1      41.637 -10.579   4.938  1.00  0.00     0.135 C 
HETATM   10  C   UNL     1      42.058 -15.166   4.691  1.00  0.00     0.069 C 
ENDROOT
BRANCH   6  11
HETATM   11  C   UNL     1      44.086 -11.554   4.514  1.00  0.00     0.156 C 
BRANCH  11  12
HETATM   12  C   UNL     1      44.649 -11.506   5.925  1.00  0.00     0.223 C 
HETATM   13  N   UNL     1      45.867 -10.870   6.081  1.00  0.00    -0.359 N 
HETATM   14  H   UNL     1      46.079 -10.115   5.434  1.00  0.00     0.162 HD
HETATM   15  O   UNL     1      44.113 -12.142   6.824  1.00  0.00    -0.273 OA
BRANCH  13  16
HETATM   16  C   UNL     1      46.461 -10.774   7.421  1.00  0.00     0.150 C 
BRANCH  16  17
HETATM   17  C   UNL     1      46.011  -9.529   8.216  1.00  0.00     0.254 C 
BRANCH  17  18
HETATM   18  N   UNL     1      44.764  -9.791   9.031  1.00  0.00    -0.070 N 
HETATM   19  H   UNL     1      44.432 -10.746   8.829  1.00  0.00     0.279 HD
HETATM   20  C   UNL     1      43.601  -8.845   8.755  1.00  0.00     0.235 C 
HETATM   21  C   UNL     1      43.461  -8.031  10.025  1.00  0.00     0.029 C 
HETATM   22  C   UNL     1      43.807  -9.028  11.108  1.00  0.00     0.029 C 
HETATM   23  C   UNL     1      45.016  -9.743  10.539  1.00  0.00     0.235 C 
ENDBRANCH  17  18
ENDBRANCH  16  17
ENDBRANCH  13  16
ENDBRANCH  11  12
ENDBRANCH   6  11
BRANCH   7  24
HETATM   24  C   UNL     1      41.619 -14.288   2.335  1.00  0.00    -0.030 A 
HETATM   25  C   UNL     1      41.681 -13.287   1.344  1.00  0.00     0.011 A 
HETATM   26  C   UNL     1      40.913 -13.377   0.175  1.00  0.00     0.024 A 
HETATM   27  C   UNL     1      40.092 -14.480  -0.040  1.00  0.00     0.034 A 
HETATM   28 CL   UNL     1      39.126 -14.571  -1.457  1.00  0.00    -0.084 Cl
HETATM   29  C   UNL     1      40.048 -15.504   0.895  1.00  0.00     0.024 A 
HETATM   30  C   UNL     1      40.808 -15.413   2.067  1.00  0.00     0.011 A 
ENDBRANCH   7  24
BRANCH  10  31
HETATM   31  C   UNL     1      43.009 -16.283   4.752  1.00  0.00     0.294 C 
HETATM   32  O   UNL     1      43.973 -16.318   5.487  1.00  0.00    -0.259 OA
BRANCH  31  33
HETATM   33  O   UNL     1      42.548 -17.247   3.923  1.00  0.00    -0.314 OA
BRANCH  33  34
HETATM   34  C   UNL     1      43.594 -17.917   3.203  1.00  0.00     0.206 C 
BRANCH  34  35
HETATM   35  C   UNL     1      43.001 -18.951   2.289  1.00  0.00    -0.011 C 
HETATM   36  C   UNL     1      43.499 -20.160   1.992  1.00  0.00     0.009 C 
ENDBRANCH  34  35
ENDBRANCH  33  34
ENDBRANCH  31  33
ENDBRANCH  10  31
TORSDOF 10
ENDMDL
MODEL 2
REMARK VINA RESULT:      -7.8      1.655      2.225
REMARK  10 active torsions:
REMARK  status: ('A' for Active; 'I' for Inactive)
REMARK    1  A    between atoms: C_6  and  C_7 
REMARK    2  A    between atoms: C_7  and  C_8 
REMARK       I    between atoms: C_8  and  N_9 
REMARK    3  A    between atoms: N_9  and  C_10 
REMARK    4  A    between atoms: C_10  and  C_11 
REMARK    5  A    between atoms: C_11  and  N_12 
REMARK    6  A    between atoms: C_19  and  C_20 
REMARK    7  A    between atoms: C_29  and  C_30 
REMARK    8  A    between atoms: C_30  and  O_31 
REMARK    9  A    between atoms: O_31  and  C_32 
REMARK   10  A    between atoms: C_32  and  C_33 
ROOT
HETATM    1  C   UNL     1      40.143 -15.890   6.695  1.00  0.00     0.071 C 
HETATM    2  C   UNL     1      40.595 -14.624   6.013  1.00  0.00     0.048 C 
HETATM    3  N   UNL     1      39.757 -13.535   6.219  1.00  0.00    -0.229 NA
HETATM    4  C   UNL     1      40.257 -12.366   6.009  1.00  0.00     0.170 C 
HETATM    5  N   UNL     1      41.710 -12.153   5.517  1.00  0.00    -0.319 N 
HETATM    6  C   UNL     1      42.231 -11.148   6.134  1.00  0.00     0.011 C 
HETATM    7  C   UNL     1      42.144 -13.247   4.623  1.00  0.00     0.166 C 
HETATM    8  S   UNL     1      39.555 -10.883   6.542  1.00  0.00    -0.086 SA
HETATM    9  C   UNL     1      41.227 -10.165   6.718  1.00  0.00     0.135 C 
HETATM   10  C   UNL     1      41.733 -14.522   5.291  1.00  0.00     0.069 C 
ENDROOT
BRANCH   6  11
HETATM   11  C   UNL     1      43.719 -11.025   6.301  1.00  0.00     0.156 C 
BRANCH  11  12
HETATM   12  C   UNL     1      44.081 -10.761   7.752  1.00  0.00     0.223 C 
HETATM   13  N   UNL     1      44.444  -9.465   8.070  1.00  0.00    -0.359 N 
HETATM   14  H   UNL     1      44.029  -8.720   7.516  1.00  0.00     0.162 HD
HETATM   15  O   UNL     1      44.191 -11.692   8.540  1.00  0.00    -0.273 OA
BRANCH  13  16
HETATM   16  C   UNL     1      44.790  -9.135   9.460  1.00  0.00     0.150 C 
BRANCH  16  17
HETATM   17  C   UNL     1      43.598  -8.623  10.296  1.00  0.00     0.254 C 
BRANCH  17  18
HETATM   18  N   UNL     1      43.667  -9.086  11.734  1.00  0.00    -0.070 N 
HETATM   19  H   UNL     1      44.646  -9.323  11.958  1.00  0.00     0.279 HD
HETATM   20  C   UNL     1      42.824 -10.314  12.060  1.00  0.00     0.235 C 
HETATM   21  C   UNL     1      41.731  -9.796  12.972  1.00  0.00     0.029 C 
HETATM   22  C   UNL     1      42.437  -8.728  13.777  1.00  0.00     0.029 C 
HETATM   23  C   UNL     1      43.258  -8.000  12.731  1.00  0.00     0.235 C 
ENDBRANCH  17  18
ENDBRANCH  16  17
ENDBRANCH  13  16
ENDBRANCH  11  12
ENDBRANCH   6  11
BRANCH   7  24
HETATM   24  C   UNL     1      41.525 -13.037   3.227  1.00  0.00    -0.030 A 
HETATM   25  C   UNL     1      41.934 -11.959   2.415  1.00  0.00     0.011 A 
HETATM   26  C   UNL     1      41.308 -11.698   1.188  1.00  0.00     0.024 A 
HETATM   27  C   UNL     1      40.282 -12.521   0.737  1.00  0.00     0.034 A 
HETATM   28 CL   UNL     1      39.493 -12.178  -0.749  1.00  0.00    -0.084 Cl
HETATM   29  C   UNL     1      39.891 -13.619   1.491  1.00  0.00     0.024 A 
HETATM   30  C   UNL     1      40.510 -13.878   2.720  1.00  0.00     0.011 A 
ENDBRANCH   7  24
BRANCH  10  31
HETATM   31  C   UNL     1      42.688 -15.628   5.146  1.00  0.00     0.294 C 
HETATM   32  O   UNL     1      43.700 -15.745   5.804  1.00  0.00    -0.259 OA
BRANCH  31  33
HETATM   33  O   UNL     1      42.173 -16.485   4.236  1.00  0.00    -0.314 OA
BRANCH  33  34
HETATM   34  C   UNL     1      43.179 -17.212   3.515  1.00  0.00     0.206 C 
BRANCH  34  35
HETATM   35  C   UNL     1      43.120 -16.853   2.057  1.00  0.00    -0.011 C 
HETATM   36  C   UNL     1      43.463 -15.687   1.490  1.00  0.00     0.009 C 
ENDBRANCH  34  35
ENDBRANCH  33  34
ENDBRANCH  31  33
ENDBRANCH  10  31
TORSDOF 10
ENDMDL
MODEL 3
REMARK VINA RESULT:      -7.3      3.152      5.102
REMARK  10 active torsions:
REMARK  status: ('A' for Active; 'I' for Inactive)
REMARK    1  A    between atoms: C_6  and  C_7 
REMARK    2  A    between atoms: C_7  and  C_8 
REMARK       I    between atoms: C_8  and  N_9 
REMARK    3  A    between atoms: N_9  and  C_10 
REMARK    4  A    between atoms: C_10  and  C_11 
REMARK    5  A    between atoms: C_11  and  N_12 
REMARK    6  A    between atoms: C_19  and  C_20 
REMARK    7  A    between atoms: C_29  and  C_30 
REMARK    8  A    between atoms: C_30  and  O_31 
REMARK    9  A    between atoms: O_31  and  C_32 
REMARK   10  A    between atoms: C_32  and  C_33 
ROOT
HETATM    1  C   UNL     1      41.660 -10.459   0.622  1.00  0.00     0.071 C 
HETATM    2  C   UNL     1      41.631 -11.384   1.813  1.00  0.00     0.048 C 
HETATM    3  N   UNL     1      42.733 -11.266   2.651  1.00  0.00    -0.229 NA
HETATM    4  C   UNL     1      42.603 -11.716   3.852  1.00  0.00     0.170 C 
HETATM    5  N   UNL     1      41.305 -12.394   4.355  1.00  0.00    -0.319 N 
HETATM    6  C   UNL     1      41.058 -12.009   5.561  1.00  0.00     0.011 C 
HETATM    7  C   UNL     1      40.629 -13.140   3.274  1.00  0.00     0.166 C 
HETATM    8  S   UNL     1      43.668 -11.357   5.161  1.00  0.00    -0.086 SA
HETATM    9  C   UNL     1      42.265 -11.485   6.326  1.00  0.00     0.135 C 
HETATM   10  C   UNL     1      40.616 -12.233   2.083  1.00  0.00     0.069 C 
ENDROOT
BRANCH   6  11
HETATM   11  C   UNL     1      39.660 -12.029   6.113  1.00  0.00     0.156 C 
BRANCH  11  12
HETATM   12  C   UNL     1      39.330 -10.713   6.797  1.00  0.00     0.223 C 
HETATM   13  N   UNL     1      39.739 -10.582   8.112  1.00  0.00    -0.359 N 
HETATM   14  H   UNL     1      40.574 -11.092   8.387  1.00  0.00     0.162 HD
HETATM   15  O   UNL     1      38.604  -9.896   6.244  1.00  0.00    -0.273 OA
BRANCH  13  16
HETATM   16  C   UNL     1      39.466  -9.329   8.828  1.00  0.00     0.150 C 
BRANCH  16  17
HETATM   17  C   UNL     1      40.710  -8.711   9.501  1.00  0.00     0.254 C 
BRANCH  17  18
HETATM   18  N   UNL     1      41.624  -9.763  10.089  1.00  0.00    -0.070 N 
HETATM   19  H   UNL     1      41.287 -10.693   9.797  1.00  0.00     0.279 HD
HETATM   20  C   UNL     1      41.701  -9.772  11.612  1.00  0.00     0.235 C 
HETATM   21  C   UNL     1      43.111  -9.319  11.927  1.00  0.00     0.029 C 
HETATM   22  C   UNL     1      43.922  -9.923  10.802  1.00  0.00     0.029 C 
HETATM   23  C   UNL     1      43.063  -9.656   9.581  1.00  0.00     0.235 C 
ENDBRANCH  17  18
ENDBRANCH  16  17
ENDBRANCH  13  16
ENDBRANCH  11  12
ENDBRANCH   6  11
BRANCH   7  24
HETATM   24  C   UNL     1      41.364 -14.475   3.043  1.00  0.00    -0.030 A 
HETATM   25  C   UNL     1      41.306 -15.502   4.008  1.00  0.00     0.011 A 
HETATM   26  C   UNL     1      42.052 -16.680   3.857  1.00  0.00     0.024 A 
HETATM   27  C   UNL     1      42.846 -16.866   2.731  1.00  0.00     0.034 A 
HETATM   28 CL   UNL     1      43.786 -18.294   2.566  1.00  0.00    -0.084 Cl
HETATM   29  C   UNL     1      42.885 -15.894   1.741  1.00  0.00     0.024 A 
HETATM   30  C   UNL     1      42.147 -14.714   1.892  1.00  0.00     0.011 A 
ENDBRANCH   7  24
BRANCH  10  31
HETATM   31  C   UNL     1      39.394 -12.300   1.272  1.00  0.00     0.294 C 
HETATM   32  O   UNL     1      38.386 -11.666   1.503  1.00  0.00    -0.259 OA
BRANCH  31  33
HETATM   33  O   UNL     1      39.657 -13.107   0.219  1.00  0.00    -0.314 OA
BRANCH  33  34
HETATM   34  C   UNL     1      39.220 -12.557  -1.034  1.00  0.00     0.206 C 
BRANCH  34  35
HETATM   35  C   UNL     1      38.471 -13.601  -1.814  1.00  0.00    -0.011 C 
HETATM   36  C   UNL     1      38.927 -14.792  -2.229  1.00  0.00     0.009 C 
ENDBRANCH  34  35
ENDBRANCH  33  34
ENDBRANCH  31  33
ENDBRANCH  10  31
TORSDOF 10
ENDMDL
MODEL 4
REMARK VINA RESULT:      -7.3      4.951      9.581
REMARK  10 active torsions:
REMARK  status: ('A' for Active; 'I' for Inactive)
REMARK    1  A    between atoms: C_6  and  C_7 
REMARK    2  A    between atoms: C_7  and  C_8 
REMARK       I    between atoms: C_8  and  N_9 
REMARK    3  A    between atoms: N_9  and  C_10 
REMARK    4  A    between atoms: C_10  and  C_11 
REMARK    5  A    between atoms: C_11  and  N_12 
REMARK    6  A    between atoms: C_19  and  C_20 
REMARK    7  A    between atoms: C_29  and  C_30 
REMARK    8  A    between atoms: C_30  and  O_31 
REMARK    9  A    between atoms: O_31  and  C_32 
REMARK   10  A    between atoms: C_32  and  C_33 
ROOT
HETATM    1  C   UNL     1      44.564  -7.608   8.578  1.00  0.00     0.071 C 
HETATM    2  C   UNL     1      43.301  -7.873   9.357  1.00  0.00     0.048 C 
HETATM    3  N   UNL     1      42.449  -6.779   9.448  1.00  0.00    -0.229 NA
HETATM    4  C   UNL     1      41.218  -7.022   9.743  1.00  0.00     0.170 C 
HETATM    5  N   UNL     1      40.690  -8.450  10.024  1.00  0.00    -0.319 N 
HETATM    6  C   UNL     1      39.527  -8.594   9.484  1.00  0.00     0.011 C 
HETATM    7  C   UNL     1      41.720  -9.291  10.667  1.00  0.00     0.166 C 
HETATM    8  S   UNL     1      39.919  -5.903   9.551  1.00  0.00    -0.086 SA
HETATM    9  C   UNL     1      38.781  -7.294   9.217  1.00  0.00     0.135 C 
HETATM   10  C   UNL     1      42.984  -9.071   9.895  1.00  0.00     0.069 C 
ENDROOT
BRANCH   6  11
HETATM   11  C   UNL     1      39.010  -9.952   9.102  1.00  0.00     0.156 C 
BRANCH  11  12
HETATM   12  C   UNL     1      39.303 -10.250   7.641  1.00  0.00     0.223 C 
HETATM   13  N   UNL     1      40.542 -10.796   7.360  1.00  0.00    -0.359 N 
HETATM   14  H   UNL     1      40.966 -11.373   8.081  1.00  0.00     0.162 HD
HETATM   15  O   UNL     1      38.531  -9.871   6.768  1.00  0.00    -0.273 OA
BRANCH  13  16
HETATM   16  C   UNL     1      40.884 -11.124   5.969  1.00  0.00     0.150 C 
BRANCH  16  17
HETATM   17  C   UNL     1      40.469 -12.549   5.544  1.00  0.00     0.254 C 
BRANCH  17  18
HETATM   18  N   UNL     1      41.110 -13.612   6.408  1.00  0.00    -0.070 N 
HETATM   19  H   UNL     1      41.217 -13.241   7.365  1.00  0.00     0.279 HD
HETATM   20  C   UNL     1      42.490 -14.071   5.950  1.00  0.00     0.235 C 
HETATM   21  C   UNL     1      42.287 -15.501   5.495  1.00  0.00     0.029 C 
HETATM   22  C   UNL     1      41.243 -16.019   6.459  1.00  0.00     0.029 C 
HETATM   23  C   UNL     1      40.253 -14.873   6.537  1.00  0.00     0.235 C 
ENDBRANCH  17  18
ENDBRANCH  16  17
ENDBRANCH  13  16
ENDBRANCH  11  12
ENDBRANCH   6  11
BRANCH   7  24
HETATM   24  C   UNL     1      41.819  -8.918  12.160  1.00  0.00    -0.030 A 
HETATM   25  C   UNL     1      40.799  -9.287  13.061  1.00  0.00     0.011 A 
HETATM   26  C   UNL     1      40.827  -8.867  14.398  1.00  0.00     0.024 A 
HETATM   27  C   UNL     1      41.885  -8.096  14.867  1.00  0.00     0.034 A 
HETATM   28 CL   UNL     1      41.899  -7.553  16.496  1.00  0.00    -0.084 Cl
HETATM   29  C   UNL     1      42.928  -7.758  14.017  1.00  0.00     0.024 A 
HETATM   30  C   UNL     1      42.900  -8.170  12.679  1.00  0.00     0.011 A 
ENDBRANCH   7  24
BRANCH  10  31
HETATM   31  C   UNL     1      43.816 -10.268   9.723  1.00  0.00     0.294 C 
HETATM   32  O   UNL     1      44.624 -10.661  10.538  1.00  0.00    -0.259 OA
BRANCH  31  33
HETATM   33  O   UNL     1      43.440 -10.853   8.563  1.00  0.00    -0.314 OA
BRANCH  33  34
HETATM   34  C   UNL     1      44.448 -11.717   8.015  1.00  0.00     0.206 C 
BRANCH  34  35
HETATM   35  C   UNL     1      44.843 -11.234   6.648  1.00  0.00    -0.011 C 
HETATM   36  C   UNL     1      46.067 -11.249   6.100  1.00  0.00     0.009 C 
ENDBRANCH  34  35
ENDBRANCH  33  34
ENDBRANCH  31  33
ENDBRANCH  10  31
TORSDOF 10
ENDMDL
MODEL 5
REMARK VINA RESULT:      -7.2      3.676      8.551
REMARK  10 active torsions:
REMARK  status: ('A' for Active; 'I' for Inactive)
REMARK    1  A    between atoms: C_6  and  C_7 
REMARK    2  A    between atoms: C_7  and  C_8 
REMARK       I    between atoms: C_8  and  N_9 
REMARK    3  A    between atoms: N_9  and  C_10 
REMARK    4  A    between atoms: C_10  and  C_11 
REMARK    5  A    between atoms: C_11  and  N_12 
REMARK    6  A    between atoms: C_19  and  C_20 
REMARK    7  A    between atoms: C_29  and  C_30 
REMARK    8  A    between atoms: C_30  and  O_31 
REMARK    9  A    between atoms: O_31  and  C_32 
REMARK   10  A    between atoms: C_32  and  C_33 
ROOT
HETATM    1  C   UNL     1      38.603 -11.213   5.132  1.00  0.00     0.071 C 
HETATM    2  C   UNL     1      40.002 -11.774   5.159  1.00  0.00     0.048 C 
HETATM    3  N   UNL     1      40.159 -12.870   5.998  1.00  0.00    -0.229 NA
HETATM    4  C   UNL     1      41.183 -13.625   5.786  1.00  0.00     0.170 C 
HETATM    5  N   UNL     1      42.226 -13.330   4.680  1.00  0.00    -0.319 N 
HETATM    6  C   UNL     1      42.571 -14.433   4.108  1.00  0.00     0.011 C 
HETATM    7  C   UNL     1      42.399 -11.877   4.474  1.00  0.00     0.166 C 
HETATM    8  S   UNL     1      41.389 -15.212   6.431  1.00  0.00    -0.086 SA
HETATM    9  C   UNL     1      42.332 -15.686   4.938  1.00  0.00     0.135 C 
HETATM   10  C   UNL     1      41.021 -11.295   4.413  1.00  0.00     0.069 C 
ENDROOT
BRANCH   6  11
HETATM   11  C   UNL     1      43.104 -14.447   2.704  1.00  0.00     0.156 C 
BRANCH  11  12
HETATM   12  C   UNL     1      41.972 -14.569   1.697  1.00  0.00     0.223 C 
HETATM   13  N   UNL     1      41.741 -13.467   0.894  1.00  0.00    -0.359 N 
HETATM   14  H   UNL     1      42.541 -12.879   0.676  1.00  0.00     0.162 HD
HETATM   15  O   UNL     1      41.223 -15.537   1.726  1.00  0.00    -0.273 OA
BRANCH  13  16
HETATM   16  C   UNL     1      40.672 -13.523  -0.113  1.00  0.00     0.150 C 
BRANCH  16  17
HETATM   17  C   UNL     1      40.714 -12.364  -1.132  1.00  0.00     0.254 C 
BRANCH  17  18
HETATM   18  N   UNL     1      39.968 -12.697  -2.406  1.00  0.00    -0.070 N 
HETATM   19  H   UNL     1      40.512 -12.347  -3.209  1.00  0.00     0.279 HD
HETATM   20  C   UNL     1      38.572 -12.092  -2.513  1.00  0.00     0.235 C 
HETATM   21  C   UNL     1      37.634 -13.279  -2.437  1.00  0.00     0.029 C 
HETATM   22  C   UNL     1      38.399 -14.364  -3.162  1.00  0.00     0.029 C 
HETATM   23  C   UNL     1      39.808 -14.202  -2.628  1.00  0.00     0.235 C 
ENDBRANCH  17  18
ENDBRANCH  16  17
ENDBRANCH  13  16
ENDBRANCH  11  12
ENDBRANCH   6  11
BRANCH   7  24
HETATM   24  C   UNL     1      43.278 -11.305   5.604  1.00  0.00    -0.030 A 
HETATM   25  C   UNL     1      44.601 -11.758   5.784  1.00  0.00     0.011 A 
HETATM   26  C   UNL     1      45.374 -11.322   6.868  1.00  0.00     0.024 A 
HETATM   27  C   UNL     1      44.853 -10.406   7.777  1.00  0.00     0.034 A 
HETATM   28 CL   UNL     1      45.790  -9.901   9.124  1.00  0.00    -0.084 Cl
HETATM   29  C   UNL     1      43.571  -9.906   7.598  1.00  0.00     0.024 A 
HETATM   30  C   UNL     1      42.794 -10.345   6.520  1.00  0.00     0.011 A 
ENDBRANCH   7  24
BRANCH  10  31
HETATM   31  C   UNL     1      40.855 -10.206   3.441  1.00  0.00     0.294 C 
HETATM   32  O   UNL     1      40.995  -9.030   3.705  1.00  0.00    -0.259 OA
BRANCH  31  33
HETATM   33  O   UNL     1      40.618 -10.776   2.238  1.00  0.00    -0.314 OA
BRANCH  33  34
HETATM   34  C   UNL     1      39.450 -10.252   1.588  1.00  0.00     0.206 C 
BRANCH  34  35
HETATM   35  C   UNL     1      38.362 -11.288   1.582  1.00  0.00    -0.011 C 
HETATM   36  C   UNL     1      37.114 -11.158   1.109  1.00  0.00     0.009 C 
ENDBRANCH  34  35
ENDBRANCH  33  34
ENDBRANCH  31  33
ENDBRANCH  10  31
TORSDOF 10
ENDMDL
MODEL 6
REMARK VINA RESULT:      -7.1      5.045     10.068
REMARK  10 active torsions:
REMARK  status: ('A' for Active; 'I' for Inactive)
REMARK    1  A    between atoms: C_6  and  C_7 
REMARK    2  A    between atoms: C_7  and  C_8 
REMARK       I    between atoms: C_8  and  N_9 
REMARK    3  A    between atoms: N_9  and  C_10 
REMARK    4  A    between atoms: C_10  and  C_11 
REMARK    5  A    between atoms: C_11  and  N_12 
REMARK    6  A    between atoms: C_19  and  C_20 
REMARK    7  A    between atoms: C_29  and  C_30 
REMARK    8  A    between atoms: C_30  and  O_31 
REMARK    9  A    between atoms: O_31  and  C_32 
REMARK   10  A    between atoms: C_32  and  C_33 
ROOT
HETATM    1  C   UNL     1      45.259  -8.740   8.721  1.00  0.00     0.071 C 
HETATM    2  C   UNL     1      43.816  -8.329   8.867  1.00  0.00     0.048 C 
HETATM    3  N   UNL     1      43.359  -7.490   7.858  1.00  0.00    -0.229 NA
HETATM    4  C   UNL     1      42.082  -7.415   7.696  1.00  0.00     0.170 C 
HETATM    5  N   UNL     1      41.078  -8.184   8.591  1.00  0.00    -0.319 N 
HETATM    6  C   UNL     1      40.119  -8.647   7.863  1.00  0.00     0.011 C 
HETATM    7  C   UNL     1      41.580  -8.320   9.973  1.00  0.00     0.166 C 
HETATM    8  S   UNL     1      41.301  -6.755   6.307  1.00  0.00    -0.086 SA
HETATM    9  C   UNL     1      39.919  -7.929   6.536  1.00  0.00     0.135 C 
HETATM   10  C   UNL     1      43.007  -8.757   9.861  1.00  0.00     0.069 C 
ENDROOT
BRANCH   6  11
HETATM   11  C   UNL     1      39.326  -9.847   8.295  1.00  0.00     0.156 C 
BRANCH  11  12
HETATM   12  C   UNL     1      39.242 -10.872   7.176  1.00  0.00     0.223 C 
HETATM   13  N   UNL     1      40.437 -11.432   6.764  1.00  0.00    -0.359 N 
HETATM   14  H   UNL     1      41.173 -11.513   7.460  1.00  0.00     0.162 HD
HETATM   15  O   UNL     1      38.185 -11.054   6.585  1.00  0.00    -0.273 OA
BRANCH  13  16
HETATM   16  C   UNL     1      40.427 -12.443   5.697  1.00  0.00     0.150 C 
BRANCH  16  17
HETATM   17  C   UNL     1      40.239 -13.888   6.207  1.00  0.00     0.254 C 
BRANCH  17  18
HETATM   18  N   UNL     1      41.454 -14.750   5.941  1.00  0.00    -0.070 N 
HETATM   19  H   UNL     1      41.342 -15.203   5.021  1.00  0.00     0.279 HD
HETATM   20  C   UNL     1      41.694 -15.858   6.960  1.00  0.00     0.235 C 
HETATM   21  C   UNL     1      42.963 -15.449   7.679  1.00  0.00     0.029 C 
HETATM   22  C   UNL     1      43.777 -14.794   6.586  1.00  0.00     0.029 C 
HETATM   23  C   UNL     1      42.752 -13.944   5.861  1.00  0.00     0.235 C 
ENDBRANCH  17  18
ENDBRANCH  16  17
ENDBRANCH  13  16
ENDBRANCH  11  12
ENDBRANCH   6  11
BRANCH   7  24
HETATM   24  C   UNL     1      41.385  -6.983  10.717  1.00  0.00    -0.030 A 
HETATM   25  C   UNL     1      42.415  -6.021  10.745  1.00  0.00     0.011 A 
HETATM   26  C   UNL     1      42.289  -4.848  11.502  1.00  0.00     0.024 A 
HETATM   27  C   UNL     1      41.125  -4.600  12.222  1.00  0.00     0.034 A 
HETATM   28 CL   UNL     1      40.988  -3.180  13.177  1.00  0.00    -0.084 Cl
HETATM   29  C   UNL     1      40.075  -5.506  12.174  1.00  0.00     0.024 A 
HETATM   30  C   UNL     1      40.200  -6.682  11.425  1.00  0.00     0.011 A 
ENDBRANCH   7  24
BRANCH  10  31
HETATM   31  C   UNL     1      43.436  -9.725  10.878  1.00  0.00     0.294 C 
HETATM   32  O   UNL     1      43.688 -10.889  10.648  1.00  0.00    -0.259 OA
BRANCH  31  33
HETATM   33  O   UNL     1      43.570  -9.050  12.042  1.00  0.00    -0.314 OA
BRANCH  33  34
HETATM   34  C   UNL     1      42.629  -9.465  13.044  1.00  0.00     0.206 C 
BRANCH  34  35
HETATM   35  C   UNL     1      42.457  -8.375  14.063  1.00  0.00    -0.011 C 
HETATM   36  C   UNL     1      43.133  -7.219  14.144  1.00  0.00     0.009 C 
ENDBRANCH  34  35
ENDBRANCH  33  34
ENDBRANCH  31  33
ENDBRANCH  10  31
TORSDOF 10
ENDMDL
MODEL 7
REMARK VINA RESULT:      -7.0     17.290     19.621
REMARK  10 active torsions:
REMARK  status: ('A' for Active; 'I' for Inactive)
REMARK    1  A    between atoms: C_6  and  C_7 
REMARK    2  A    between atoms: C_7  and  C_8 
REMARK       I    between atoms: C_8  and  N_9 
REMARK    3  A    between atoms: N_9  and  C_10 
REMARK    4  A    between atoms: C_10  and  C_11 
REMARK    5  A    between atoms: C_11  and  N_12 
REMARK    6  A    between atoms: C_19  and  C_20 
REMARK    7  A    between atoms: C_29  and  C_30 
REMARK    8  A    between atoms: C_30  and  O_31 
REMARK    9  A    between atoms: O_31  and  C_32 
REMARK   10  A    between atoms: C_32  and  C_33 
ROOT
HETATM    1  C   UNL     1      45.454 -33.281   1.286  1.00  0.00     0.071 C 
HETATM    2  C   UNL     1      46.567 -32.264   1.267  1.00  0.00     0.048 C 
HETATM    3  N   UNL     1      47.636 -32.607   0.448  1.00  0.00    -0.229 NA
HETATM    4  C   UNL     1      48.418 -31.651   0.079  1.00  0.00     0.170 C 
HETATM    5  N   UNL     1      48.223 -30.185   0.538  1.00  0.00    -0.319 N 
HETATM    6  C   UNL     1      48.455 -29.389  -0.450  1.00  0.00     0.011 C 
HETATM    7  C   UNL     1      47.665 -30.117   1.904  1.00  0.00     0.166 C 
HETATM    8  S   UNL     1      49.564 -31.755  -1.207  1.00  0.00    -0.086 SA
HETATM    9  C   UNL     1      49.322 -29.976  -1.554  1.00  0.00     0.135 C 
HETATM   10  C   UNL     1      46.534 -31.097   1.946  1.00  0.00     0.069 C 
ENDROOT
BRANCH   6  11
HETATM   11  C   UNL     1      47.844 -28.018  -0.503  1.00  0.00     0.156 C 
BRANCH  11  12
HETATM   12  C   UNL     1      46.486 -28.057  -1.182  1.00  0.00     0.223 C 
HETATM   13  N   UNL     1      46.487 -28.024  -2.565  1.00  0.00    -0.359 N 
HETATM   14  H   UNL     1      47.291 -28.431  -3.034  1.00  0.00     0.162 HD
HETATM   15  O   UNL     1      45.461 -27.961  -0.517  1.00  0.00    -0.273 OA
BRANCH  13  16
HETATM   16  C   UNL     1      45.208 -28.075  -3.286  1.00  0.00     0.150 C 
BRANCH  16  17
HETATM   17  C   UNL     1      45.204 -29.052  -4.482  1.00  0.00     0.254 C 
BRANCH  17  18
HETATM   18  N   UNL     1      44.843 -30.461  -4.068  1.00  0.00    -0.070 N 
HETATM   19  H   UNL     1      44.308 -30.903  -4.831  1.00  0.00     0.279 HD
HETATM   20  C   UNL     1      43.993 -30.565  -2.806  1.00  0.00     0.235 C 
HETATM   21  C   UNL     1      44.906 -31.205  -1.781  1.00  0.00     0.029 C 
HETATM   22  C   UNL     1      45.728 -32.166  -2.611  1.00  0.00     0.029 C 
HETATM   23  C   UNL     1      46.069 -31.349  -3.841  1.00  0.00     0.235 C 
ENDBRANCH  17  18
ENDBRANCH  16  17
ENDBRANCH  13  16
ENDBRANCH  11  12
ENDBRANCH   6  11
BRANCH   7  24
HETATM   24  C   UNL     1      48.785 -30.400   2.925  1.00  0.00    -0.030 A 
HETATM   25  C   UNL     1      50.099 -29.944   2.693  1.00  0.00     0.011 A 
HETATM   26  C   UNL     1      51.147 -30.282   3.561  1.00  0.00     0.024 A 
HETATM   27  C   UNL     1      50.898 -31.058   4.689  1.00  0.00     0.034 A 
HETATM   28 CL   UNL     1      52.190 -31.501   5.731  1.00  0.00    -0.084 Cl
HETATM   29  C   UNL     1      49.607 -31.480   4.969  1.00  0.00     0.024 A 
HETATM   30  C   UNL     1      48.560 -31.150   4.101  1.00  0.00     0.011 A 
ENDBRANCH   7  24
BRANCH  10  31
HETATM   31  C   UNL     1      45.373 -30.664   2.733  1.00  0.00     0.294 C 
HETATM   32  O   UNL     1      45.078 -31.118   3.819  1.00  0.00    -0.259 OA
BRANCH  31  33
HETATM   33  O   UNL     1      44.792 -29.645   2.061  1.00  0.00    -0.314 OA
BRANCH  33  34
HETATM   34  C   UNL     1      43.408 -29.464   2.399  1.00  0.00     0.206 C 
BRANCH  34  35
HETATM   35  C   UNL     1      42.541 -30.120   1.362  1.00  0.00    -0.011 C 
HETATM   36  C   UNL     1      42.018 -31.354   1.398  1.00  0.00     0.009 C 
ENDBRANCH  34  35
ENDBRANCH  33  34
ENDBRANCH  31  33
ENDBRANCH  10  31
TORSDOF 10
ENDMDL
MODEL 8
REMARK VINA RESULT:      -6.7      4.755      9.161
REMARK  10 active torsions:
REMARK  status: ('A' for Active; 'I' for Inactive)
REMARK    1  A    between atoms: C_6  and  C_7 
REMARK    2  A    between atoms: C_7  and  C_8 
REMARK       I    between atoms: C_8  and  N_9 
REMARK    3  A    between atoms: N_9  and  C_10 
REMARK    4  A    between atoms: C_10  and  C_11 
REMARK    5  A    between atoms: C_11  and  N_12 
REMARK    6  A    between atoms: C_19  and  C_20 
REMARK    7  A    between atoms: C_29  and  C_30 
REMARK    8  A    between atoms: C_30  and  O_31 
REMARK    9  A    between atoms: O_31  and  C_32 
REMARK   10  A    between atoms: C_32  and  C_33 
ROOT
HETATM    1  C   UNL     1      45.751  -8.486   8.317  1.00  0.00     0.071 C 
HETATM    2  C   UNL     1      44.339  -8.345   8.826  1.00  0.00     0.048 C 
HETATM    3  N   UNL     1      43.761  -7.109   8.563  1.00  0.00    -0.229 NA
HETATM    4  C   UNL     1      42.473  -7.046   8.608  1.00  0.00     0.170 C 
HETATM    5  N   UNL     1      41.588  -8.263   8.972  1.00  0.00    -0.319 N 
HETATM    6  C   UNL     1      40.545  -8.279   8.215  1.00  0.00     0.011 C 
HETATM    7  C   UNL     1      42.259  -9.149   9.945  1.00  0.00     0.166 C 
HETATM    8  S   UNL     1      41.526  -5.754   7.969  1.00  0.00    -0.086 SA
HETATM    9  C   UNL     1      40.181  -6.935   7.599  1.00  0.00     0.135 C 
HETATM   10  C   UNL     1      43.660  -9.332   9.450  1.00  0.00     0.069 C 
ENDROOT
BRANCH   6  11
HETATM   11  C   UNL     1      39.809  -9.557   7.931  1.00  0.00     0.156 C 
BRANCH  11  12
HETATM   12  C   UNL     1      40.240 -10.146   6.599  1.00  0.00     0.223 C 
HETATM   13  N   UNL     1      39.417  -9.893   5.517  1.00  0.00    -0.359 N 
HETATM   14  H   UNL     1      38.892  -9.022   5.531  1.00  0.00     0.162 HD
HETATM   15  O   UNL     1      41.181 -10.929   6.546  1.00  0.00    -0.273 OA
BRANCH  13  16
HETATM   16  C   UNL     1      39.783 -10.419   4.195  1.00  0.00     0.150 C 
BRANCH  16  17
HETATM   17  C   UNL     1      41.082  -9.813   3.621  1.00  0.00     0.254 C 
BRANCH  17  18
HETATM   18  N   UNL     1      41.831 -10.792   2.744  1.00  0.00    -0.070 N 
HETATM   19  H   UNL     1      42.046 -10.333   1.845  1.00  0.00     0.279 HD
HETATM   20  C   UNL     1      41.076 -12.076   2.420  1.00  0.00     0.235 C 
HETATM   21  C   UNL     1      41.840 -13.163   3.149  1.00  0.00     0.029 C 
HETATM   22  C   UNL     1      43.276 -12.699   3.042  1.00  0.00     0.029 C 
HETATM   23  C   UNL     1      43.177 -11.215   3.335  1.00  0.00     0.235 C 
ENDBRANCH  17  18
ENDBRANCH  16  17
ENDBRANCH  13  16
ENDBRANCH  11  12
ENDBRANCH   6  11
BRANCH   7  24
HETATM   24  C   UNL     1      42.163  -8.523  11.351  1.00  0.00    -0.030 A 
HETATM   25  C   UNL     1      43.329  -8.236  12.090  1.00  0.00     0.011 A 
HETATM   26  C   UNL     1      43.253  -7.762  13.407  1.00  0.00     0.024 A 
HETATM   27  C   UNL     1      42.014  -7.541  14.001  1.00  0.00     0.034 A 
HETATM   28 CL   UNL     1      41.924  -6.996  15.627  1.00  0.00    -0.084 Cl
HETATM   29  C   UNL     1      40.850  -7.769  13.282  1.00  0.00     0.024 A 
HETATM   30  C   UNL     1      40.922  -8.248  11.968  1.00  0.00     0.011 A 
ENDBRANCH   7  24
BRANCH  10  31
HETATM   31  C   UNL     1      44.211 -10.679   9.646  1.00  0.00     0.294 C 
HETATM   32  O   UNL     1      44.872 -11.013  10.607  1.00  0.00    -0.259 OA
BRANCH  31  33
HETATM   33  O   UNL     1      43.767 -11.445   8.624  1.00  0.00    -0.314 OA
BRANCH  33  34
HETATM   34  C   UNL     1      44.782 -11.723   7.647  1.00  0.00     0.206 C 
BRANCH  34  35
HETATM   35  C   UNL     1      44.249 -12.678   6.616  1.00  0.00    -0.011 C 
HETATM   36  C   UNL     1      43.533 -13.792   6.829  1.00  0.00     0.009 C 
ENDBRANCH  34  35
ENDBRANCH  33  34
ENDBRANCH  31  33
ENDBRANCH  10  31
TORSDOF 10
ENDMDL
MODEL 9
REMARK VINA RESULT:      -6.6     17.010     19.512
REMARK  10 active torsions:
REMARK  status: ('A' for Active; 'I' for Inactive)
REMARK    1  A    between atoms: C_6  and  C_7 
REMARK    2  A    between atoms: C_7  and  C_8 
REMARK       I    between atoms: C_8  and  N_9 
REMARK    3  A    between atoms: N_9  and  C_10 
REMARK    4  A    between atoms: C_10  and  C_11 
REMARK    5  A    between atoms: C_11  and  N_12 
REMARK    6  A    between atoms: C_19  and  C_20 
REMARK    7  A    between atoms: C_29  and  C_30 
REMARK    8  A    between atoms: C_30  and  O_31 
REMARK    9  A    between atoms: O_31  and  C_32 
REMARK   10  A    between atoms: C_32  and  C_33 
ROOT
HETATM    1  C   UNL     1      47.941 -34.009  -0.922  1.00  0.00     0.071 C 
HETATM    2  C   UNL     1      47.095 -32.828  -1.324  1.00  0.00     0.048 C 
HETATM    3  N   UNL     1      45.769 -32.913  -0.918  1.00  0.00    -0.229 NA
HETATM    4  C   UNL     1      45.100 -31.812  -0.876  1.00  0.00     0.170 C 
HETATM    5  N   UNL     1      45.707 -30.448  -1.286  1.00  0.00    -0.319 N 
HETATM    6  C   UNL     1      45.307 -29.535  -0.468  1.00  0.00     0.011 C 
HETATM    7  C   UNL     1      46.694 -30.600  -2.374  1.00  0.00     0.166 C 
HETATM    8  S   UNL     1      43.590 -31.606  -0.066  1.00  0.00    -0.086 SA
HETATM    9  C   UNL     1      44.026 -29.865   0.285  1.00  0.00     0.135 C 
HETATM   10  C   UNL     1      47.570 -31.751  -1.988  1.00  0.00     0.069 C 
ENDROOT
BRANCH   6  11
HETATM   11  C   UNL     1      46.108 -28.282  -0.250  1.00  0.00     0.156 C 
BRANCH  11  12
HETATM   12  C   UNL     1      47.048 -28.439   0.933  1.00  0.00     0.223 C 
HETATM   13  N   UNL     1      47.946 -29.489   0.871  1.00  0.00    -0.359 N 
HETATM   14  H   UNL     1      48.255 -29.777  -0.054  1.00  0.00     0.162 HD
HETATM   15  O   UNL     1      46.891 -27.760   1.940  1.00  0.00    -0.273 OA
BRANCH  13  16
HETATM   16  C   UNL     1      48.896 -29.690   1.974  1.00  0.00     0.150 C 
BRANCH  16  17
HETATM   17  C   UNL     1      48.722 -31.035   2.710  1.00  0.00     0.254 C 
BRANCH  17  18
HETATM   18  N   UNL     1      50.034 -31.569   3.243  1.00  0.00    -0.070 N 
HETATM   19  H   UNL     1      50.561 -31.988   2.461  1.00  0.00     0.279 HD
HETATM   20  C   UNL     1      49.905 -32.639   4.321  1.00  0.00     0.235 C 
HETATM   21  C   UNL     1      50.424 -31.976   5.581  1.00  0.00     0.029 C 
HETATM   22  C   UNL     1      51.537 -31.091   5.066  1.00  0.00     0.029 C 
HETATM   23  C   UNL     1      50.933 -30.474   3.820  1.00  0.00     0.235 C 
ENDBRANCH  17  18
ENDBRANCH  16  17
ENDBRANCH  13  16
ENDBRANCH  11  12
ENDBRANCH   6  11
BRANCH   7  24
HETATM   24  C   UNL     1      45.950 -30.793  -3.711  1.00  0.00    -0.030 A 
HETATM   25  C   UNL     1      46.438 -31.695  -4.680  1.00  0.00     0.011 A 
HETATM   26  C   UNL     1      45.829 -31.804  -5.938  1.00  0.00     0.024 A 
HETATM   27  C   UNL     1      44.709 -31.037  -6.243  1.00  0.00     0.034 A 
HETATM   28 CL   UNL     1      43.988 -31.147  -7.797  1.00  0.00    -0.084 Cl
HETATM   29  C   UNL     1      44.177 -30.178  -5.292  1.00  0.00     0.024 A 
HETATM   30  C   UNL     1      44.787 -30.061  -4.037  1.00  0.00     0.011 A 
ENDBRANCH   7  24
BRANCH  10  31
HETATM   31  C   UNL     1      48.988 -31.589  -2.335  1.00  0.00     0.294 C 
HETATM   32  O   UNL     1      49.546 -32.199  -3.222  1.00  0.00    -0.259 OA
BRANCH  31  33
HETATM   33  O   UNL     1      49.481 -30.602  -1.554  1.00  0.00    -0.314 OA
BRANCH  33  34
HETATM   34  C   UNL     1      50.913 -30.621  -1.460  1.00  0.00     0.206 C 
BRANCH  34  35
HETATM   35  C   UNL     1      51.332 -31.325  -0.201  1.00  0.00    -0.011 C 
HETATM   36  C   UNL     1      51.916 -32.527  -0.094  1.00  0.00     0.009 C 
ENDBRANCH  34  35
ENDBRANCH  33  34
ENDBRANCH  31  33
ENDBRANCH  10  31
TORSDOF 10
ENDMDL
MODEL 10
REMARK VINA RESULT:      -6.5      3.679      5.967
REMARK  10 active torsions:
REMARK  status: ('A' for Active; 'I' for Inactive)
REMARK    1  A    between atoms: C_6  and  C_7 
REMARK    2  A    between atoms: C_7  and  C_8 
REMARK       I    between atoms: C_8  and  N_9 
REMARK    3  A    between atoms: N_9  and  C_10 
REMARK    4  A    between atoms: C_10  and  C_11 
REMARK    5  A    between atoms: C_11  and  N_12 
REMARK    6  A    between atoms: C_19  and  C_20 
REMARK    7  A    between atoms: C_29  and  C_30 
REMARK    8  A    between atoms: C_30  and  O_31 
REMARK    9  A    between atoms: O_31  and  C_32 
REMARK   10  A    between atoms: C_32  and  C_33 
ROOT
HETATM    1  C   UNL     1      41.671 -10.816   0.569  1.00  0.00     0.071 C 
HETATM    2  C   UNL     1      41.712 -11.689   1.798  1.00  0.00     0.048 C 
HETATM    3  N   UNL     1      42.775 -11.420   2.651  1.00  0.00    -0.229 NA
HETATM    4  C   UNL     1      42.664 -11.832   3.868  1.00  0.00     0.170 C 
HETATM    5  N   UNL     1      41.433 -12.623   4.375  1.00  0.00    -0.319 N 
HETATM    6  C   UNL     1      41.118 -12.219   5.558  1.00  0.00     0.011 C 
HETATM    7  C   UNL     1      40.867 -13.481   3.314  1.00  0.00     0.166 C 
HETATM    8  S   UNL     1      43.653 -11.308   5.181  1.00  0.00    -0.086 SA
HETATM    9  C   UNL     1      42.244 -11.538   6.323  1.00  0.00     0.135 C 
HETATM   10  C   UNL     1      40.786 -12.630   2.085  1.00  0.00     0.069 C 
ENDROOT
BRANCH   6  11
HETATM   11  C   UNL     1      39.717 -12.365   6.082  1.00  0.00     0.156 C 
BRANCH  11  12
HETATM   12  C   UNL     1      39.164 -11.023   6.529  1.00  0.00     0.223 C 
HETATM   13  N   UNL     1      39.368  -9.956   5.673  1.00  0.00    -0.359 N 
HETATM   14  H   UNL     1      39.425 -10.166   4.680  1.00  0.00     0.162 HD
HETATM   15  O   UNL     1      38.709 -10.889   7.659  1.00  0.00    -0.273 OA
BRANCH  13  16
HETATM   16  C   UNL     1      38.844  -8.632   6.037  1.00  0.00     0.150 C 
BRANCH  16  17
HETATM   17  C   UNL     1      39.877  -7.723   6.738  1.00  0.00     0.254 C 
BRANCH  17  18
HETATM   18  N   UNL     1      40.092  -6.423   5.996  1.00  0.00    -0.070 N 
HETATM   19  H   UNL     1      39.359  -5.755   6.281  1.00  0.00     0.279 HD
HETATM   20  C   UNL     1      40.033  -6.530   4.476  1.00  0.00     0.235 C 
HETATM   21  C   UNL     1      41.451  -6.259   4.019  1.00  0.00     0.029 C 
HETATM   22  C   UNL     1      41.937  -5.225   5.010  1.00  0.00     0.029 C 
HETATM   23  C   UNL     1      41.427  -5.757   6.335  1.00  0.00     0.235 C 
ENDBRANCH  17  18
ENDBRANCH  16  17
ENDBRANCH  13  16
ENDBRANCH  11  12
ENDBRANCH   6  11
BRANCH   7  24
HETATM   24  C   UNL     1      41.744 -14.739   3.155  1.00  0.00    -0.030 A 
HETATM   25  C   UNL     1      42.353 -15.038   1.919  1.00  0.00     0.011 A 
HETATM   26  C   UNL     1      43.068 -16.229   1.733  1.00  0.00     0.024 A 
HETATM   27  C   UNL     1      43.213 -17.130   2.784  1.00  0.00     0.034 A 
HETATM   28 CL   UNL     1      44.059 -18.604   2.544  1.00  0.00    -0.084 Cl
HETATM   29  C   UNL     1      42.667 -16.839   4.026  1.00  0.00     0.024 A 
HETATM   30  C   UNL     1      41.946 -15.653   4.213  1.00  0.00     0.011 A 
ENDBRANCH   7  24
BRANCH  10  31
HETATM   31  C   UNL     1      39.598 -12.860   1.253  1.00  0.00     0.294 C 
HETATM   32  O   UNL     1      39.577 -13.584   0.279  1.00  0.00    -0.259 OA
BRANCH  31  33
HETATM   33  O   UNL     1      38.570 -12.199   1.832  1.00  0.00    -0.314 OA
BRANCH  33  34
HETATM   34  C   UNL     1      37.895 -11.309   0.931  1.00  0.00     0.206 C 
BRANCH  34  35
HETATM   35  C   UNL     1      37.684  -9.977   1.594  1.00  0.00    -0.011 C 
HETATM   36  C   UNL     1      38.597  -9.226   2.227  1.00  0.00     0.009 C 
ENDBRANCH  34  35
ENDBRANCH  33  34
ENDBRANCH  31  33
ENDBRANCH  10  31
TORSDOF 10
ENDMDL
