MODEL 1
REMARK VINA RESULT:      -8.4      0.000      0.000
REMARK  4 active torsions:
REMARK  status: ('A' for Active; 'I' for Inactive)
REMARK    1  A    between atoms: C_4  and  N_5 
REMARK       I    between atoms: N_5  and  C_6 
REMARK    2  A    between atoms: C_6  and  C_7 
REMARK    3  A    between atoms: C_7  and  C_8 
REMARK    4  A    between atoms: C_11  and  O_12 
ROOT
HETATM    1  N   UNL     1      41.248 -15.766   2.571  1.00  0.00    -0.325 N 
HETATM    2  C   UNL     1      41.454 -14.603   1.858  1.00  0.00     0.226 C 
HETATM    3  O   UNL     1      42.527 -14.192   1.426  1.00  0.00    -0.273 OA
HETATM    4  H   UNL     1      40.306 -15.977   2.896  1.00  0.00     0.169 HD
ENDROOT
BRANCH   1   5
HETATM    5  C   UNL     1      42.192 -16.738   2.980  1.00  0.00     0.065 A 
HETATM    6  C   UNL     1      42.441 -17.917   2.270  1.00  0.00     0.038 A 
HETATM    7  C   UNL     1      43.390 -18.836   2.727  1.00  0.00    -0.059 A 
HETATM    8  C   UNL     1      43.682 -20.088   1.952  1.00  0.00     0.048 C 
HETATM    9  C   UNL     1      44.098 -18.554   3.899  1.00  0.00     0.020 A 
HETATM   10  C   UNL     1      43.852 -17.372   4.618  1.00  0.00    -0.005 A 
HETATM   11  C   UNL     1      42.890 -16.447   4.164  1.00  0.00     0.093 A 
HETATM   12  C   UNL     1      44.550 -17.078   5.797  1.00  0.00     0.015 A 
HETATM   13  N   UNL     1      42.630 -15.298   4.839  1.00  0.00    -0.258 NA
HETATM   14  C   UNL     1      43.325 -15.052   5.971  1.00  0.00     0.117 A 
HETATM   15  C   UNL     1      44.285 -15.901   6.485  1.00  0.00     0.020 A 
ENDBRANCH   1   5
BRANCH   2  16
HETATM   16  C   UNL     1      40.170 -13.818   1.635  1.00  0.00     0.141 C 
BRANCH  16  17
HETATM   17  C   UNL     1      39.761 -13.780   0.183  1.00  0.00    -0.049 A 
HETATM   18  C   UNL     1      39.489 -12.553  -0.441  1.00  0.00     0.010 A 
HETATM   19  C   UNL     1      39.095 -12.507  -1.780  1.00  0.00     0.037 A 
HETATM   20  C   UNL     1      38.973 -13.693  -2.496  1.00  0.00     0.065 A 
HETATM   21  C   UNL     1      39.238 -14.918  -1.896  1.00  0.00     0.037 A 
HETATM   22  C   UNL     1      39.632 -14.964  -0.557  1.00  0.00     0.010 A 
BRANCH  20  23
HETATM   23  O   UNL     1      38.588 -13.696  -3.804  1.00  0.00    -0.361 OA
HETATM   24  H   UNL     1      38.323 -14.599  -4.042  1.00  0.00     0.217 HD
ENDBRANCH  20  23
ENDBRANCH  16  17
ENDBRANCH   2  16
TORSDOF 4
ENDMDL
MODEL 2
REMARK VINA RESULT:      -8.3      2.366      7.090
REMARK  4 active torsions:
REMARK  status: ('A' for Active; 'I' for Inactive)
REMARK    1  A    between atoms: C_4  and  N_5 
REMARK       I    between atoms: N_5  and  C_6 
REMARK    2  A    between atoms: C_6  and  C_7 
REMARK    3  A    between atoms: C_7  and  C_8 
REMARK    4  A    between atoms: C_11  and  O_12 
ROOT
HETATM    1  N   UNL     1      41.498 -14.877   2.130  1.00  0.00    -0.325 N 
HETATM    2  C   UNL     1      42.775 -15.368   2.302  1.00  0.00     0.226 C 
HETATM    3  O   UNL     1      43.700 -15.294   1.498  1.00  0.00    -0.273 OA
HETATM    4  H   UNL     1      40.814 -15.031   2.870  1.00  0.00     0.169 HD
ENDROOT
BRANCH   1   5
HETATM    5  C   UNL     1      40.947 -14.200   1.016  1.00  0.00     0.065 A 
HETATM    6  C   UNL     1      40.249 -14.845  -0.010  1.00  0.00     0.038 A 
HETATM    7  C   UNL     1      39.726 -14.116  -1.083  1.00  0.00    -0.059 A 
HETATM    8  C   UNL     1      38.950 -14.799  -2.170  1.00  0.00     0.048 C 
HETATM    9  C   UNL     1      39.900 -12.729  -1.109  1.00  0.00     0.020 A 
HETATM   10  C   UNL     1      40.602 -12.075  -0.082  1.00  0.00    -0.005 A 
HETATM   11  C   UNL     1      41.137 -12.809   0.997  1.00  0.00     0.093 A 
HETATM   12  C   UNL     1      40.789 -10.686  -0.098  1.00  0.00     0.015 A 
HETATM   13  N   UNL     1      41.820 -12.204   2.001  1.00  0.00    -0.258 NA
HETATM   14  C   UNL     1      41.978 -10.862   1.949  1.00  0.00     0.117 A 
HETATM   15  C   UNL     1      41.486 -10.069   0.932  1.00  0.00     0.020 A 
ENDBRANCH   1   5
BRANCH   2  16
HETATM   16  C   UNL     1      42.963 -16.052   3.648  1.00  0.00     0.141 C 
BRANCH  16  17
HETATM   17  C   UNL     1      43.281 -17.520   3.510  1.00  0.00    -0.049 A 
HETATM   18  C   UNL     1      42.928 -18.213   2.342  1.00  0.00     0.010 A 
HETATM   19  C   UNL     1      43.204 -19.575   2.211  1.00  0.00     0.037 A 
HETATM   20  C   UNL     1      43.836 -20.246   3.250  1.00  0.00     0.065 A 
HETATM   21  C   UNL     1      44.196 -19.579   4.415  1.00  0.00     0.037 A 
HETATM   22  C   UNL     1      43.919 -18.216   4.547  1.00  0.00     0.010 A 
BRANCH  20  23
HETATM   23  O   UNL     1      44.124 -21.577   3.167  1.00  0.00    -0.361 OA
HETATM   24  H   UNL     1      43.292 -22.061   3.034  1.00  0.00     0.217 HD
ENDBRANCH  20  23
ENDBRANCH  16  17
ENDBRANCH   2  16
TORSDOF 4
ENDMDL
MODEL 3
REMARK VINA RESULT:      -8.2      3.380      7.477
REMARK  4 active torsions:
REMARK  status: ('A' for Active; 'I' for Inactive)
REMARK    1  A    between atoms: C_4  and  N_5 
REMARK       I    between atoms: N_5  and  C_6 
REMARK    2  A    between atoms: C_6  and  C_7 
REMARK    3  A    between atoms: C_7  and  C_8 
REMARK    4  A    between atoms: C_11  and  O_12 
ROOT
HETATM    1  N   UNL     1      41.735 -16.091   5.992  1.00  0.00    -0.325 N 
HETATM    2  C   UNL     1      43.067 -16.179   6.338  1.00  0.00     0.226 C 
HETATM    3  O   UNL     1      43.916 -15.303   6.203  1.00  0.00    -0.273 OA
HETATM    4  H   UNL     1      41.141 -16.906   6.134  1.00  0.00     0.169 HD
ENDROOT
BRANCH   1   5
HETATM    5  C   UNL     1      41.039 -15.009   5.402  1.00  0.00     0.065 A 
HETATM    6  C   UNL     1      40.607 -13.888   6.119  1.00  0.00     0.038 A 
HETATM    7  C   UNL     1      39.926 -12.850   5.475  1.00  0.00    -0.059 A 
HETATM    8  C   UNL     1      39.488 -11.632   6.233  1.00  0.00     0.048 C 
HETATM    9  C   UNL     1      39.693 -12.943   4.099  1.00  0.00     0.020 A 
HETATM   10  C   UNL     1      40.123 -14.067   3.373  1.00  0.00    -0.005 A 
HETATM   11  C   UNL     1      40.804 -15.118   4.022  1.00  0.00     0.093 A 
HETATM   12  C   UNL     1      39.893 -14.176   1.996  1.00  0.00     0.015 A 
HETATM   13  N   UNL     1      41.229 -16.216   3.347  1.00  0.00    -0.258 NA
HETATM   14  C   UNL     1      40.987 -16.283   2.019  1.00  0.00     0.117 A 
HETATM   15  C   UNL     1      40.331 -15.299   1.306  1.00  0.00     0.020 A 
ENDBRANCH   1   5
BRANCH   2  16
HETATM   16  C   UNL     1      43.428 -17.530   6.938  1.00  0.00     0.141 C 
BRANCH  16  17
HETATM   17  C   UNL     1      43.609 -18.598   5.887  1.00  0.00    -0.049 A 
HETATM   18  C   UNL     1      43.528 -19.955   6.239  1.00  0.00     0.010 A 
HETATM   19  C   UNL     1      43.709 -20.951   5.278  1.00  0.00     0.037 A 
HETATM   20  C   UNL     1      43.971 -20.590   3.962  1.00  0.00     0.065 A 
HETATM   21  C   UNL     1      44.054 -19.252   3.593  1.00  0.00     0.037 A 
HETATM   22  C   UNL     1      43.874 -18.255   4.554  1.00  0.00     0.010 A 
BRANCH  20  23
HETATM   23  O   UNL     1      44.157 -21.529   2.991  1.00  0.00    -0.361 OA
HETATM   24  H   UNL     1      45.033 -21.389   2.594  1.00  0.00     0.217 HD
ENDBRANCH  20  23
ENDBRANCH  16  17
ENDBRANCH   2  16
TORSDOF 4
ENDMDL
MODEL 4
REMARK VINA RESULT:      -7.8      3.778      7.474
REMARK  4 active torsions:
REMARK  status: ('A' for Active; 'I' for Inactive)
REMARK    1  A    between atoms: C_4  and  N_5 
REMARK       I    between atoms: N_5  and  C_6 
REMARK    2  A    between atoms: C_6  and  C_7 
REMARK    3  A    between atoms: C_7  and  C_8 
REMARK    4  A    between atoms: C_11  and  O_12 
ROOT
HETATM    1  N   UNL     1      42.817 -14.452   5.468  1.00  0.00    -0.325 N 
HETATM    2  C   UNL     1      43.406 -13.230   5.714  1.00  0.00     0.226 C 
HETATM    3  O   UNL     1      43.659 -12.361   4.885  1.00  0.00    -0.273 OA
HETATM    4  H   UNL     1      42.688 -15.096   6.247  1.00  0.00     0.169 HD
ENDROOT
BRANCH   1   5
HETATM    5  C   UNL     1      42.383 -14.999   4.236  1.00  0.00     0.065 A 
HETATM    6  C   UNL     1      41.492 -14.348   3.376  1.00  0.00     0.038 A 
HETATM    7  C   UNL     1      41.105 -14.943   2.171  1.00  0.00    -0.059 A 
HETATM    8  C   UNL     1      40.173 -14.235   1.231  1.00  0.00     0.048 C 
HETATM    9  C   UNL     1      41.631 -16.192   1.831  1.00  0.00     0.020 A 
HETATM   10  C   UNL     1      42.526 -16.851   2.691  1.00  0.00    -0.005 A 
HETATM   11  C   UNL     1      42.912 -16.258   3.911  1.00  0.00     0.093 A 
HETATM   12  C   UNL     1      43.058 -18.106   2.366  1.00  0.00     0.015 A 
HETATM   13  N   UNL     1      43.773 -16.873   4.761  1.00  0.00    -0.258 NA
HETATM   14  C   UNL     1      44.263 -18.082   4.411  1.00  0.00     0.117 A 
HETATM   15  C   UNL     1      43.940 -18.732   3.236  1.00  0.00     0.020 A 
ENDBRANCH   1   5
BRANCH   2  16
HETATM   16  C   UNL     1      43.740 -13.027   7.185  1.00  0.00     0.141 C 
BRANCH  16  17
HETATM   17  C   UNL     1      44.185 -11.617   7.487  1.00  0.00    -0.049 A 
HETATM   18  C   UNL     1      45.546 -11.280   7.438  1.00  0.00     0.010 A 
HETATM   19  C   UNL     1      45.970  -9.983   7.731  1.00  0.00     0.037 A 
HETATM   20  C   UNL     1      45.028  -9.019   8.073  1.00  0.00     0.065 A 
HETATM   21  C   UNL     1      43.675  -9.332   8.127  1.00  0.00     0.037 A 
HETATM   22  C   UNL     1      43.251 -10.630   7.834  1.00  0.00     0.010 A 
BRANCH  20  23
HETATM   23  O   UNL     1      45.396  -7.740   8.370  1.00  0.00    -0.361 OA
HETATM   24  H   UNL     1      45.940  -7.757   9.174  1.00  0.00     0.217 HD
ENDBRANCH  20  23
ENDBRANCH  16  17
ENDBRANCH   2  16
TORSDOF 4
ENDMDL
MODEL 5
REMARK VINA RESULT:      -7.6      2.529      7.362
REMARK  4 active torsions:
REMARK  status: ('A' for Active; 'I' for Inactive)
REMARK    1  A    between atoms: C_4  and  N_5 
REMARK       I    between atoms: N_5  and  C_6 
REMARK    2  A    between atoms: C_6  and  C_7 
REMARK    3  A    between atoms: C_7  and  C_8 
REMARK    4  A    between atoms: C_11  and  O_12 
ROOT
HETATM    1  N   UNL     1      41.349 -15.372   2.331  1.00  0.00    -0.325 N 
HETATM    2  C   UNL     1      42.701 -15.484   2.082  1.00  0.00     0.226 C 
HETATM    3  O   UNL     1      43.553 -14.622   2.276  1.00  0.00    -0.273 OA
HETATM    4  H   UNL     1      40.745 -16.159   2.098  1.00  0.00     0.169 HD
ENDROOT
BRANCH   1   5
HETATM    5  C   UNL     1      40.627 -14.268   2.844  1.00  0.00     0.065 A 
HETATM    6  C   UNL     1      40.574 -13.948   4.205  1.00  0.00     0.038 A 
HETATM    7  C   UNL     1      39.844 -12.840   4.647  1.00  0.00    -0.059 A 
HETATM    8  C   UNL     1      39.809 -12.474   6.102  1.00  0.00     0.048 C 
HETATM    9  C   UNL     1      39.177 -12.048   3.707  1.00  0.00     0.020 A 
HETATM   10  C   UNL     1      39.226 -12.365   2.339  1.00  0.00    -0.005 A 
HETATM   11  C   UNL     1      39.955 -13.486   1.891  1.00  0.00     0.093 A 
HETATM   12  C   UNL     1      38.558 -11.584   1.387  1.00  0.00     0.015 A 
HETATM   13  N   UNL     1      40.017 -13.817   0.577  1.00  0.00    -0.258 NA
HETATM   14  C   UNL     1      39.360 -13.038  -0.310  1.00  0.00     0.117 A 
HETATM   15  C   UNL     1      38.626 -11.923   0.041  1.00  0.00     0.020 A 
ENDBRANCH   1   5
BRANCH   2  16
HETATM   16  C   UNL     1      43.080 -16.842   1.511  1.00  0.00     0.141 C 
BRANCH  16  17
HETATM   17  C   UNL     1      43.406 -17.850   2.585  1.00  0.00    -0.049 A 
HETATM   18  C   UNL     1      43.701 -17.421   3.889  1.00  0.00     0.010 A 
HETATM   19  C   UNL     1      44.020 -18.344   4.886  1.00  0.00     0.037 A 
HETATM   20  C   UNL     1      44.043 -19.700   4.580  1.00  0.00     0.065 A 
HETATM   21  C   UNL     1      43.753 -20.145   3.295  1.00  0.00     0.037 A 
HETATM   22  C   UNL     1      43.435 -19.222   2.297  1.00  0.00     0.010 A 
BRANCH  20  23
HETATM   23  O   UNL     1      44.350 -20.637   5.522  1.00  0.00    -0.361 OA
HETATM   24  H   UNL     1      44.347 -21.510   5.097  1.00  0.00     0.217 HD
ENDBRANCH  20  23
ENDBRANCH  16  17
ENDBRANCH   2  16
TORSDOF 4
ENDMDL
MODEL 6
REMARK VINA RESULT:      -7.5     14.084     15.835
REMARK  4 active torsions:
REMARK  status: ('A' for Active; 'I' for Inactive)
REMARK    1  A    between atoms: C_4  and  N_5 
REMARK       I    between atoms: N_5  and  C_6 
REMARK    2  A    between atoms: C_6  and  C_7 
REMARK    3  A    between atoms: C_7  and  C_8 
REMARK    4  A    between atoms: C_11  and  O_12 
ROOT
HETATM    1  N   UNL     1      47.252 -28.818   0.333  1.00  0.00    -0.325 N 
HETATM    2  C   UNL     1      45.938 -29.233   0.391  1.00  0.00     0.226 C 
HETATM    3  O   UNL     1      45.509 -30.219   0.984  1.00  0.00    -0.273 OA
HETATM    4  H   UNL     1      47.477 -27.993  -0.220  1.00  0.00     0.169 HD
ENDROOT
BRANCH   1   5
HETATM    5  C   UNL     1      48.399 -29.411   0.912  1.00  0.00     0.065 A 
HETATM    6  C   UNL     1      48.609 -29.494   2.293  1.00  0.00     0.038 A 
HETATM    7  C   UNL     1      49.765 -30.096   2.802  1.00  0.00    -0.059 A 
HETATM    8  C   UNL     1      49.980 -30.215   4.282  1.00  0.00     0.048 C 
HETATM    9  C   UNL     1      50.702 -30.627   1.910  1.00  0.00     0.020 A 
HETATM   10  C   UNL     1      50.497 -30.546   0.523  1.00  0.00    -0.005 A 
HETATM   11  C   UNL     1      49.337 -29.932   0.006  1.00  0.00     0.093 A 
HETATM   12  C   UNL     1      51.430 -31.069  -0.383  1.00  0.00     0.015 A 
HETATM   13  N   UNL     1      49.114 -29.838  -1.329  1.00  0.00    -0.258 NA
HETATM   14  C   UNL     1      50.038 -30.355  -2.169  1.00  0.00     0.117 A 
HETATM   15  C   UNL     1      51.199 -30.974  -1.749  1.00  0.00     0.020 A 
ENDBRANCH   1   5
BRANCH   2  16
HETATM   16  C   UNL     1      45.001 -28.320  -0.385  1.00  0.00     0.141 C 
BRANCH  16  17
HETATM   17  C   UNL     1      44.843 -28.744  -1.825  1.00  0.00    -0.049 A 
HETATM   18  C   UNL     1      44.218 -29.961  -2.137  1.00  0.00     0.010 A 
HETATM   19  C   UNL     1      44.081 -30.371  -3.465  1.00  0.00     0.037 A 
HETATM   20  C   UNL     1      44.570 -29.559  -4.483  1.00  0.00     0.065 A 
HETATM   21  C   UNL     1      45.191 -28.350  -4.194  1.00  0.00     0.037 A 
HETATM   22  C   UNL     1      45.329 -27.941  -2.867  1.00  0.00     0.010 A 
BRANCH  20  23
HETATM   23  O   UNL     1      44.460 -29.920  -5.793  1.00  0.00    -0.361 OA
HETATM   24  H   UNL     1      45.019 -29.327  -6.321  1.00  0.00     0.217 HD
ENDBRANCH  20  23
ENDBRANCH  16  17
ENDBRANCH   2  16
TORSDOF 4
ENDMDL
MODEL 7
REMARK VINA RESULT:      -7.5      2.124      3.449
REMARK  4 active torsions:
REMARK  status: ('A' for Active; 'I' for Inactive)
REMARK    1  A    between atoms: C_4  and  N_5 
REMARK       I    between atoms: N_5  and  C_6 
REMARK    2  A    between atoms: C_6  and  C_7 
REMARK    3  A    between atoms: C_7  and  C_8 
REMARK    4  A    between atoms: C_11  and  O_12 
ROOT
HETATM    1  N   UNL     1      41.066 -16.159   2.511  1.00  0.00    -0.325 N 
HETATM    2  C   UNL     1      41.141 -14.979   1.802  1.00  0.00     0.226 C 
HETATM    3  O   UNL     1      42.162 -14.447   1.376  1.00  0.00    -0.273 OA
HETATM    4  H   UNL     1      40.152 -16.477   2.831  1.00  0.00     0.169 HD
ENDROOT
BRANCH   1   5
HETATM    5  C   UNL     1      42.112 -17.019   2.922  1.00  0.00     0.065 A 
HETATM    6  C   UNL     1      42.466 -18.185   2.234  1.00  0.00     0.038 A 
HETATM    7  C   UNL     1      43.514 -18.990   2.692  1.00  0.00    -0.059 A 
HETATM    8  C   UNL     1      43.918 -20.225   1.940  1.00  0.00     0.048 C 
HETATM    9  C   UNL     1      44.212 -18.607   3.841  1.00  0.00     0.020 A 
HETATM   10  C   UNL     1      43.861 -17.438   4.537  1.00  0.00    -0.005 A 
HETATM   11  C   UNL     1      42.799 -16.628   4.082  1.00  0.00     0.093 A 
HETATM   12  C   UNL     1      44.548 -17.045   5.693  1.00  0.00     0.015 A 
HETATM   13  N   UNL     1      42.437 -15.495   4.736  1.00  0.00    -0.258 NA
HETATM   14  C   UNL     1      43.125 -15.150   5.847  1.00  0.00     0.117 A 
HETATM   15  C   UNL     1      44.177 -15.883   6.359  1.00  0.00     0.020 A 
ENDBRANCH   1   5
BRANCH   2  16
HETATM   16  C   UNL     1      39.777 -14.345   1.576  1.00  0.00     0.141 C 
BRANCH  16  17
HETATM   17  C   UNL     1      39.553 -13.130   2.442  1.00  0.00    -0.049 A 
HETATM   18  C   UNL     1      39.869 -13.171   3.809  1.00  0.00     0.010 A 
HETATM   19  C   UNL     1      39.651 -12.058   4.624  1.00  0.00     0.037 A 
HETATM   20  C   UNL     1      39.117 -10.901   4.069  1.00  0.00     0.065 A 
HETATM   21  C   UNL     1      38.799 -10.839   2.717  1.00  0.00     0.037 A 
HETATM   22  C   UNL     1      39.016 -11.952   1.903  1.00  0.00     0.010 A 
BRANCH  20  23
HETATM   23  O   UNL     1      38.886  -9.791   4.827  1.00  0.00    -0.361 OA
HETATM   24  H   UNL     1      38.964 -10.039   5.763  1.00  0.00     0.217 HD
ENDBRANCH  20  23
ENDBRANCH  16  17
ENDBRANCH   2  16
TORSDOF 4
ENDMDL
MODEL 8
REMARK VINA RESULT:      -7.5     14.039     15.514
REMARK  4 active torsions:
REMARK  status: ('A' for Active; 'I' for Inactive)
REMARK    1  A    between atoms: C_4  and  N_5 
REMARK       I    between atoms: N_5  and  C_6 
REMARK    2  A    between atoms: C_6  and  C_7 
REMARK    3  A    between atoms: C_7  and  C_8 
REMARK    4  A    between atoms: C_11  and  O_12 
ROOT
HETATM    1  N   UNL     1      47.372 -29.554  -0.071  1.00  0.00    -0.325 N 
HETATM    2  C   UNL     1      46.947 -28.274  -0.360  1.00  0.00     0.226 C 
HETATM    3  O   UNL     1      47.649 -27.269  -0.421  1.00  0.00    -0.273 OA
HETATM    4  H   UNL     1      46.677 -30.298  -0.025  1.00  0.00     0.169 HD
ENDROOT
BRANCH   1   5
HETATM    5  C   UNL     1      48.677 -30.013   0.228  1.00  0.00     0.065 A 
HETATM    6  C   UNL     1      49.576 -30.465  -0.744  1.00  0.00     0.038 A 
HETATM    7  C   UNL     1      50.854 -30.903  -0.381  1.00  0.00    -0.059 A 
HETATM    8  C   UNL     1      51.832 -31.360  -1.423  1.00  0.00     0.048 C 
HETATM    9  C   UNL     1      51.225 -30.871   0.966  1.00  0.00     0.020 A 
HETATM   10  C   UNL     1      50.326 -30.419   1.947  1.00  0.00    -0.005 A 
HETATM   11  C   UNL     1      49.034 -29.984   1.586  1.00  0.00     0.093 A 
HETATM   12  C   UNL     1      50.683 -30.386   3.302  1.00  0.00     0.015 A 
HETATM   13  N   UNL     1      48.145 -29.544   2.512  1.00  0.00    -0.258 NA
HETATM   14  C   UNL     1      48.528 -29.528   3.808  1.00  0.00     0.117 A 
HETATM   15  C   UNL     1      49.772 -29.933   4.248  1.00  0.00     0.020 A 
ENDBRANCH   1   5
BRANCH   2  16
HETATM   16  C   UNL     1      45.448 -28.196  -0.610  1.00  0.00     0.141 C 
BRANCH  16  17
HETATM   17  C   UNL     1      45.066 -28.686  -1.985  1.00  0.00    -0.049 A 
HETATM   18  C   UNL     1      44.376 -29.899  -2.135  1.00  0.00     0.010 A 
HETATM   19  C   UNL     1      44.032 -30.370  -3.403  1.00  0.00     0.037 A 
HETATM   20  C   UNL     1      44.378 -29.624  -4.525  1.00  0.00     0.065 A 
HETATM   21  C   UNL     1      45.061 -28.420  -4.397  1.00  0.00     0.037 A 
HETATM   22  C   UNL     1      45.406 -27.950  -3.129  1.00  0.00     0.010 A 
BRANCH  20  23
HETATM   23  O   UNL     1      44.064 -30.046  -5.783  1.00  0.00    -0.361 OA
HETATM   24  H   UNL     1      44.464 -29.432  -6.420  1.00  0.00     0.217 HD
ENDBRANCH  20  23
ENDBRANCH  16  17
ENDBRANCH   2  16
TORSDOF 4
ENDMDL
MODEL 9
REMARK VINA RESULT:      -7.5      2.163      7.260
REMARK  4 active torsions:
REMARK  status: ('A' for Active; 'I' for Inactive)
REMARK    1  A    between atoms: C_4  and  N_5 
REMARK       I    between atoms: N_5  and  C_6 
REMARK    2  A    between atoms: C_6  and  C_7 
REMARK    3  A    between atoms: C_7  and  C_8 
REMARK    4  A    between atoms: C_11  and  O_12 
ROOT
HETATM    1  N   UNL     1      40.864 -15.630   1.720  1.00  0.00    -0.325 N 
HETATM    2  C   UNL     1      42.186 -15.824   2.059  1.00  0.00     0.226 C 
HETATM    3  O   UNL     1      43.132 -15.105   1.750  1.00  0.00    -0.273 OA
HETATM    4  H   UNL     1      40.178 -16.322   2.020  1.00  0.00     0.169 HD
ENDROOT
BRANCH   1   5
HETATM    5  C   UNL     1      40.286 -14.595   0.947  1.00  0.00     0.065 A 
HETATM    6  C   UNL     1      40.173 -14.646  -0.447  1.00  0.00     0.038 A 
HETATM    7  C   UNL     1      39.588 -13.589  -1.152  1.00  0.00    -0.059 A 
HETATM    8  C   UNL     1      39.437 -13.652  -2.643  1.00  0.00     0.048 C 
HETATM    9  C   UNL     1      39.104 -12.486  -0.442  1.00  0.00     0.020 A 
HETATM   10  C   UNL     1      39.216 -12.428   0.957  1.00  0.00    -0.005 A 
HETATM   11  C   UNL     1      39.813 -13.489   1.670  1.00  0.00     0.093 A 
HETATM   12  C   UNL     1      38.740 -11.327   1.681  1.00  0.00     0.015 A 
HETATM   13  N   UNL     1      39.935 -13.459   3.021  1.00  0.00    -0.258 NA
HETATM   14  C   UNL     1      39.464 -12.379   3.682  1.00  0.00     0.117 A 
HETATM   15  C   UNL     1      38.864 -11.300   3.064  1.00  0.00     0.020 A 
ENDBRANCH   1   5
BRANCH   2  16
HETATM   16  C   UNL     1      42.399 -17.077   2.896  1.00  0.00     0.141 C 
BRANCH  16  17
HETATM   17  C   UNL     1      42.598 -16.768   4.359  1.00  0.00    -0.049 A 
HETATM   18  C   UNL     1      43.876 -16.862   4.932  1.00  0.00     0.010 A 
HETATM   19  C   UNL     1      44.069 -16.593   6.288  1.00  0.00     0.037 A 
HETATM   20  C   UNL     1      42.982 -16.229   7.073  1.00  0.00     0.065 A 
HETATM   21  C   UNL     1      41.708 -16.129   6.525  1.00  0.00     0.037 A 
HETATM   22  C   UNL     1      41.515 -16.398   5.168  1.00  0.00     0.010 A 
BRANCH  20  23
HETATM   23  O   UNL     1      43.123 -15.959   8.402  1.00  0.00    -0.361 OA
HETATM   24  H   UNL     1      42.312 -16.238   8.859  1.00  0.00     0.217 HD
ENDBRANCH  20  23
ENDBRANCH  16  17
ENDBRANCH   2  16
TORSDOF 4
ENDMDL
MODEL 10
REMARK VINA RESULT:      -7.3      2.402      7.147
REMARK  4 active torsions:
REMARK  status: ('A' for Active; 'I' for Inactive)
REMARK    1  A    between atoms: C_4  and  N_5 
REMARK       I    between atoms: N_5  and  C_6 
REMARK    2  A    between atoms: C_6  and  C_7 
REMARK    3  A    between atoms: C_7  and  C_8 
REMARK    4  A    between atoms: C_11  and  O_12 
ROOT
HETATM    1  N   UNL     1      41.056 -14.659   4.403  1.00  0.00    -0.325 N 
HETATM    2  C   UNL     1      42.409 -14.924   4.436  1.00  0.00     0.226 C 
HETATM    3  O   UNL     1      43.296 -14.258   3.910  1.00  0.00    -0.273 OA
HETATM    4  H   UNL     1      40.421 -15.312   4.862  1.00  0.00     0.169 HD
ENDROOT
BRANCH   1   5
HETATM    5  C   UNL     1      40.372 -13.597   3.766  1.00  0.00     0.065 A 
HETATM    6  C   UNL     1      39.914 -12.461   4.441  1.00  0.00     0.038 A 
HETATM    7  C   UNL     1      39.247 -11.443   3.751  1.00  0.00    -0.059 A 
HETATM    8  C   UNL     1      38.781 -10.209   4.465  1.00  0.00     0.048 C 
HETATM    9  C   UNL     1      39.055 -11.572   2.372  1.00  0.00     0.020 A 
HETATM   10  C   UNL     1      39.512 -12.711   1.688  1.00  0.00    -0.005 A 
HETATM   11  C   UNL     1      40.178 -13.742   2.383  1.00  0.00     0.093 A 
HETATM   12  C   UNL     1      39.322 -12.857   0.307  1.00  0.00     0.015 A 
HETATM   13  N   UNL     1      40.628 -14.855   1.748  1.00  0.00    -0.258 NA
HETATM   14  C   UNL     1      40.425 -14.956   0.416  1.00  0.00     0.117 A 
HETATM   15  C   UNL     1      39.786 -13.994  -0.341  1.00  0.00     0.020 A 
ENDBRANCH   1   5
BRANCH   2  16
HETATM   16  C   UNL     1      42.740 -16.184   5.223  1.00  0.00     0.141 C 
BRANCH  16  17
HETATM   17  C   UNL     1      43.085 -17.349   4.328  1.00  0.00    -0.049 A 
HETATM   18  C   UNL     1      42.626 -17.380   3.002  1.00  0.00     0.010 A 
HETATM   19  C   UNL     1      42.926 -18.461   2.171  1.00  0.00     0.037 A 
HETATM   20  C   UNL     1      43.687 -19.513   2.667  1.00  0.00     0.065 A 
HETATM   21  C   UNL     1      44.151 -19.501   3.977  1.00  0.00     0.037 A 
HETATM   22  C   UNL     1      43.851 -18.421   4.809  1.00  0.00     0.010 A 
BRANCH  20  23
HETATM   23  O   UNL     1      44.002 -20.590   1.892  1.00  0.00    -0.361 OA
HETATM   24  H   UNL     1      44.221 -21.334   2.477  1.00  0.00     0.217 HD
ENDBRANCH  20  23
ENDBRANCH  16  17
ENDBRANCH   2  16
TORSDOF 4
ENDMDL
