MODEL 1
REMARK VINA RESULT:      -8.5      0.000      0.000
REMARK  6 active torsions:
REMARK  status: ('A' for Active; 'I' for Inactive)
REMARK    1  A    between atoms: C_2  and  C_3 
REMARK    2  A    between atoms: C_6  and  C_7 
REMARK    3  A    between atoms: C_11  and  C_12 
REMARK       I    between atoms: C_12  and  N_13 
REMARK    4  A    between atoms: N_13  and  N_14 
REMARK    5  A    between atoms: C_15  and  C_16 
REMARK    6  A    between atoms: C_17  and  O_18 
ROOT
HETATM    1  C   UNL     1      44.507 -11.682   7.468  1.00  0.00     0.289 C 
HETATM    2  N   UNL     1      43.602 -12.727   7.361  1.00  0.00    -0.241 N 
HETATM    3  O   UNL     1      45.465 -11.528   6.714  1.00  0.00    -0.264 OA
HETATM    4  H   UNL     1      42.844 -12.810   8.022  1.00  0.00     0.192 HD
ENDROOT
BRANCH   1   5
HETATM    5  C   UNL     1      44.255 -10.775   8.560  1.00  0.00     0.121 A 
HETATM    6  N   UNL     1      44.679  -9.477   8.520  1.00  0.00    -0.272 N 
HETATM    7  N   UNL     1      44.380  -8.766   9.617  1.00  0.00    -0.174 NA
HETATM    8  H   UNL     1      45.186  -9.026   7.764  1.00  0.00     0.189 HD
HETATM    9  C   UNL     1      43.701  -9.617  10.401  1.00  0.00     0.089 A 
HETATM   10  C   UNL     1      43.612 -10.895   9.776  1.00  0.00     0.071 A 
BRANCH   9  11
HETATM   11  C   UNL     1      43.166  -9.211  11.705  1.00  0.00    -0.006 A 
HETATM   12  C   UNL     1      43.626  -8.055  12.350  1.00  0.00     0.014 A 
HETATM   13  C   UNL     1      43.108  -7.673  13.593  1.00  0.00     0.008 A 
HETATM   14  C   UNL     1      42.122  -8.442  14.219  1.00  0.00    -0.059 A 
HETATM   15  C   UNL     1      41.657  -9.596  13.578  1.00  0.00     0.008 A 
HETATM   16  C   UNL     1      42.178  -9.978  12.338  1.00  0.00     0.014 A 
BRANCH  14  17
HETATM   17  C   UNL     1      41.553  -8.020  15.549  1.00  0.00     0.034 C 
HETATM   18  C   UNL     1      42.213  -6.753  16.071  1.00  0.00     0.010 C 
ENDBRANCH  14  17
ENDBRANCH   9  11
ENDBRANCH   1   5
BRANCH   2  19
HETATM   19  N   UNL     1      43.702 -13.607   6.327  1.00  0.00    -0.176 NA
HETATM   20  C   UNL     1      43.382 -14.857   6.508  1.00  0.00     0.064 C 
HETATM   21  C   UNL     1      42.965 -15.431   7.847  1.00  0.00     0.073 C 
BRANCH  20  22
HETATM   22  C   UNL     1      43.442 -15.768   5.315  1.00  0.00     0.023 A 
HETATM   23  C   UNL     1      43.003 -15.327   4.055  1.00  0.00     0.077 A 
HETATM   24  C   UNL     1      43.069 -16.166   2.942  1.00  0.00     0.037 A 
HETATM   25  C   UNL     1      43.560 -17.462   3.074  1.00  0.00     0.003 A 
HETATM   26  C   UNL     1      43.979 -17.923   4.320  1.00  0.00     0.001 A 
HETATM   27  C   UNL     1      43.915 -17.084   5.437  1.00  0.00     0.016 A 
BRANCH  23  28
HETATM   28  O   UNL     1      42.492 -14.078   3.823  1.00  0.00    -0.360 OA
HETATM   29  H   UNL     1      43.219 -13.421   3.925  1.00  0.00     0.217 HD
ENDBRANCH  23  28
ENDBRANCH  20  22
ENDBRANCH   2  19
TORSDOF 6
ENDMDL
MODEL 2
REMARK VINA RESULT:      -8.2      2.463     10.403
REMARK  6 active torsions:
REMARK  status: ('A' for Active; 'I' for Inactive)
REMARK    1  A    between atoms: C_2  and  C_3 
REMARK    2  A    between atoms: C_6  and  C_7 
REMARK    3  A    between atoms: C_11  and  C_12 
REMARK       I    between atoms: C_12  and  N_13 
REMARK    4  A    between atoms: N_13  and  N_14 
REMARK    5  A    between atoms: C_15  and  C_16 
REMARK    6  A    between atoms: C_17  and  O_18 
ROOT
HETATM    1  C   UNL     1      42.256 -11.052   5.605  1.00  0.00     0.289 C 
HETATM    2  N   UNL     1      42.474 -11.169   6.969  1.00  0.00    -0.241 N 
HETATM    3  O   UNL     1      41.823 -10.036   5.067  1.00  0.00    -0.264 OA
HETATM    4  H   UNL     1      42.816 -12.036   7.355  1.00  0.00     0.192 HD
ENDROOT
BRANCH   1   5
HETATM    5  C   UNL     1      42.560 -12.237   4.842  1.00  0.00     0.121 A 
HETATM    6  N   UNL     1      42.868 -12.168   3.513  1.00  0.00    -0.272 N 
HETATM    7  N   UNL     1      43.112 -13.357   2.942  1.00  0.00    -0.174 NA
HETATM    8  H   UNL     1      42.919 -11.328   2.943  1.00  0.00     0.189 HD
HETATM    9  C   UNL     1      42.994 -14.246   3.940  1.00  0.00     0.089 A 
HETATM   10  C   UNL     1      42.635 -13.581   5.148  1.00  0.00     0.071 A 
BRANCH   9  11
HETATM   11  C   UNL     1      43.213 -15.681   3.730  1.00  0.00    -0.006 A 
HETATM   12  C   UNL     1      43.703 -16.498   4.758  1.00  0.00     0.014 A 
HETATM   13  C   UNL     1      43.906 -17.867   4.550  1.00  0.00     0.008 A 
HETATM   14  C   UNL     1      43.627 -18.447   3.309  1.00  0.00    -0.059 A 
HETATM   15  C   UNL     1      43.134 -17.636   2.280  1.00  0.00     0.008 A 
HETATM   16  C   UNL     1      42.935 -16.268   2.487  1.00  0.00     0.014 A 
BRANCH  14  17
HETATM   17  C   UNL     1      43.831 -19.925   3.092  1.00  0.00     0.034 C 
HETATM   18  C   UNL     1      43.431 -20.351   1.688  1.00  0.00     0.010 C 
ENDBRANCH  14  17
ENDBRANCH   9  11
ENDBRANCH   1   5
BRANCH   2  19
HETATM   19  N   UNL     1      42.286 -10.092   7.780  1.00  0.00    -0.176 NA
HETATM   20  C   UNL     1      43.219  -9.744   8.621  1.00  0.00     0.064 C 
HETATM   21  C   UNL     1      44.505 -10.522   8.816  1.00  0.00     0.073 C 
BRANCH  20  22
HETATM   22  C   UNL     1      42.988  -8.505   9.440  1.00  0.00     0.023 A 
HETATM   23  C   UNL     1      42.853  -7.252   8.819  1.00  0.00     0.077 A 
HETATM   24  C   UNL     1      42.626  -6.102   9.575  1.00  0.00     0.037 A 
HETATM   25  C   UNL     1      42.546  -6.183  10.963  1.00  0.00     0.003 A 
HETATM   26  C   UNL     1      42.700  -7.415  11.596  1.00  0.00     0.001 A 
HETATM   27  C   UNL     1      42.926  -8.570  10.840  1.00  0.00     0.016 A 
BRANCH  23  28
HETATM   28  O   UNL     1      42.930  -7.063   7.465  1.00  0.00    -0.360 OA
HETATM   29  H   UNL     1      43.649  -7.635   7.111  1.00  0.00     0.217 HD
ENDBRANCH  23  28
ENDBRANCH  20  22
ENDBRANCH   2  19
TORSDOF 6
ENDMDL
MODEL 3
REMARK VINA RESULT:      -8.1      2.383     10.317
REMARK  6 active torsions:
REMARK  status: ('A' for Active; 'I' for Inactive)
REMARK    1  A    between atoms: C_2  and  C_3 
REMARK    2  A    between atoms: C_6  and  C_7 
REMARK    3  A    between atoms: C_11  and  C_12 
REMARK       I    between atoms: C_12  and  N_13 
REMARK    4  A    between atoms: N_13  and  N_14 
REMARK    5  A    between atoms: C_15  and  C_16 
REMARK    6  A    between atoms: C_17  and  O_18 
ROOT
HETATM    1  C   UNL     1      42.033 -10.282   7.020  1.00  0.00     0.289 C 
HETATM    2  N   UNL     1      42.682 -10.417   8.238  1.00  0.00    -0.241 N 
HETATM    3  O   UNL     1      41.179  -9.429   6.793  1.00  0.00    -0.264 OA
HETATM    4  H   UNL     1      43.363 -11.149   8.370  1.00  0.00     0.192 HD
ENDROOT
BRANCH   1   5
HETATM    5  C   UNL     1      42.422 -11.244   6.020  1.00  0.00     0.121 A 
HETATM    6  N   UNL     1      43.193 -10.887   4.951  1.00  0.00    -0.272 N 
HETATM    7  N   UNL     1      43.457 -11.892   4.102  1.00  0.00    -0.174 NA
HETATM    8  H   UNL     1      43.563  -9.962   4.749  1.00  0.00     0.189 HD
HETATM    9  C   UNL     1      42.865 -12.965   4.648  1.00  0.00     0.089 A 
HETATM   10  C   UNL     1      42.193 -12.595   5.849  1.00  0.00     0.071 A 
BRANCH   9  11
HETATM   11  C   UNL     1      42.942 -14.292   4.029  1.00  0.00    -0.006 A 
HETATM   12  C   UNL     1      42.851 -15.459   4.800  1.00  0.00     0.014 A 
HETATM   13  C   UNL     1      42.922 -16.722   4.200  1.00  0.00     0.008 A 
HETATM   14  C   UNL     1      43.090 -16.844   2.817  1.00  0.00    -0.059 A 
HETATM   15  C   UNL     1      43.178 -15.682   2.042  1.00  0.00     0.008 A 
HETATM   16  C   UNL     1      43.110 -14.421   2.643  1.00  0.00     0.014 A 
BRANCH  14  17
HETATM   17  C   UNL     1      43.149 -18.204   2.172  1.00  0.00     0.034 C 
HETATM   18  C   UNL     1      43.949 -19.193   3.006  1.00  0.00     0.010 C 
ENDBRANCH  14  17
ENDBRANCH   9  11
ENDBRANCH   1   5
BRANCH   2  19
HETATM   19  N   UNL     1      42.444  -9.522   9.235  1.00  0.00    -0.176 NA
HETATM   20  C   UNL     1      43.350  -9.314  10.148  1.00  0.00     0.064 C 
HETATM   21  C   UNL     1      44.659 -10.076  10.220  1.00  0.00     0.073 C 
BRANCH  20  22
HETATM   22  C   UNL     1      43.065  -8.263  11.184  1.00  0.00     0.023 A 
HETATM   23  C   UNL     1      42.494  -7.033  10.816  1.00  0.00     0.077 A 
HETATM   24  C   UNL     1      42.216  -6.060  11.776  1.00  0.00     0.037 A 
HETATM   25  C   UNL     1      42.517  -6.294  13.115  1.00  0.00     0.003 A 
HETATM   26  C   UNL     1      43.103  -7.500  13.494  1.00  0.00     0.001 A 
HETATM   27  C   UNL     1      43.382  -8.478  12.533  1.00  0.00     0.016 A 
BRANCH  23  28
HETATM   28  O   UNL     1      42.174  -6.699   9.527  1.00  0.00    -0.360 OA
HETATM   29  H   UNL     1      42.265  -7.503   8.966  1.00  0.00     0.217 HD
ENDBRANCH  23  28
ENDBRANCH  20  22
ENDBRANCH   2  19
TORSDOF 6
ENDMDL
MODEL 4
REMARK VINA RESULT:      -7.9      8.809     11.742
REMARK  6 active torsions:
REMARK  status: ('A' for Active; 'I' for Inactive)
REMARK    1  A    between atoms: C_2  and  C_3 
REMARK    2  A    between atoms: C_6  and  C_7 
REMARK    3  A    between atoms: C_11  and  C_12 
REMARK       I    between atoms: C_12  and  N_13 
REMARK    4  A    between atoms: N_13  and  N_14 
REMARK    5  A    between atoms: C_15  and  C_16 
REMARK    6  A    between atoms: C_17  and  O_18 
ROOT
HETATM    1  C   UNL     1      40.149 -13.259  -0.334  1.00  0.00     0.289 C 
HETATM    2  N   UNL     1      41.244 -12.573  -0.836  1.00  0.00    -0.241 N 
HETATM    3  O   UNL     1      38.989 -13.028  -0.665  1.00  0.00    -0.264 OA
HETATM    4  H   UNL     1      42.173 -12.797  -0.513  1.00  0.00     0.192 HD
ENDROOT
BRANCH   1   5
HETATM    5  C   UNL     1      40.467 -14.273   0.640  1.00  0.00     0.121 A 
HETATM    6  N   UNL     1      39.519 -14.762   1.493  1.00  0.00    -0.272 N 
HETATM    7  N   UNL     1      39.974 -15.689   2.348  1.00  0.00    -0.174 NA
HETATM    8  H   UNL     1      38.541 -14.488   1.538  1.00  0.00     0.189 HD
HETATM    9  C   UNL     1      41.267 -15.846   2.027  1.00  0.00     0.089 A 
HETATM   10  C   UNL     1      41.618 -14.963   0.964  1.00  0.00     0.071 A 
BRANCH   9  11
HETATM   11  C   UNL     1      42.129 -16.806   2.724  1.00  0.00    -0.006 A 
HETATM   12  C   UNL     1      42.614 -17.950   2.075  1.00  0.00     0.014 A 
HETATM   13  C   UNL     1      43.438 -18.860   2.747  1.00  0.00     0.008 A 
HETATM   14  C   UNL     1      43.792 -18.647   4.083  1.00  0.00    -0.059 A 
HETATM   15  C   UNL     1      43.314 -17.505   4.735  1.00  0.00     0.008 A 
HETATM   16  C   UNL     1      42.487 -16.598   4.064  1.00  0.00     0.014 A 
BRANCH  14  17
HETATM   17  C   UNL     1      44.694 -19.619   4.800  1.00  0.00     0.034 C 
HETATM   18  C   UNL     1      43.938 -20.852   5.269  1.00  0.00     0.010 C 
ENDBRANCH  14  17
ENDBRANCH   9  11
ENDBRANCH   1   5
BRANCH   2  19
HETATM   19  N   UNL     1      41.070 -11.640  -1.812  1.00  0.00    -0.176 NA
HETATM   20  C   UNL     1      41.248 -10.378  -1.539  1.00  0.00     0.064 C 
HETATM   21  C   UNL     1      41.572  -9.857  -0.153  1.00  0.00     0.073 C 
BRANCH  20  22
HETATM   22  C   UNL     1      41.113  -9.398  -2.670  1.00  0.00     0.023 A 
HETATM   23  C   UNL     1      40.053  -9.503  -3.587  1.00  0.00     0.077 A 
HETATM   24  C   UNL     1      39.918  -8.587  -4.630  1.00  0.00     0.037 A 
HETATM   25  C   UNL     1      40.847  -7.562  -4.783  1.00  0.00     0.003 A 
HETATM   26  C   UNL     1      41.917  -7.456  -3.897  1.00  0.00     0.001 A 
HETATM   27  C   UNL     1      42.054  -8.372  -2.848  1.00  0.00     0.016 A 
BRANCH  23  28
HETATM   28  O   UNL     1      39.096 -10.482  -3.532  1.00  0.00    -0.360 OA
HETATM   29  H   UNL     1      38.536 -10.324  -2.738  1.00  0.00     0.217 HD
ENDBRANCH  23  28
ENDBRANCH  20  22
ENDBRANCH   2  19
TORSDOF 6
ENDMDL
MODEL 5
REMARK VINA RESULT:      -7.8      2.614     10.497
REMARK  6 active torsions:
REMARK  status: ('A' for Active; 'I' for Inactive)
REMARK    1  A    between atoms: C_2  and  C_3 
REMARK    2  A    between atoms: C_6  and  C_7 
REMARK    3  A    between atoms: C_11  and  C_12 
REMARK       I    between atoms: C_12  and  N_13 
REMARK    4  A    between atoms: N_13  and  N_14 
REMARK    5  A    between atoms: C_15  and  C_16 
REMARK    6  A    between atoms: C_17  and  O_18 
ROOT
HETATM    1  C   UNL     1      41.938 -10.572   6.708  1.00  0.00     0.289 C 
HETATM    2  N   UNL     1      42.762 -10.426   7.814  1.00  0.00    -0.241 N 
HETATM    3  O   UNL     1      40.901  -9.935   6.540  1.00  0.00    -0.264 OA
HETATM    4  H   UNL     1      43.592 -10.992   7.905  1.00  0.00     0.192 HD
ENDROOT
BRANCH   1   5
HETATM    5  C   UNL     1      42.379 -11.559   5.754  1.00  0.00     0.121 A 
HETATM    6  N   UNL     1      43.260 -11.244   4.760  1.00  0.00    -0.272 N 
HETATM    7  N   UNL     1      43.561 -12.267   3.946  1.00  0.00    -0.174 NA
HETATM    8  H   UNL     1      43.684 -10.337   4.587  1.00  0.00     0.189 HD
HETATM    9  C   UNL     1      42.878 -13.310   4.441  1.00  0.00     0.089 A 
HETATM   10  C   UNL     1      42.112 -12.902   5.572  1.00  0.00     0.071 A 
BRANCH   9  11
HETATM   11  C   UNL     1      42.958 -14.645   3.840  1.00  0.00    -0.006 A 
HETATM   12  C   UNL     1      43.151 -14.810   2.461  1.00  0.00     0.014 A 
HETATM   13  C   UNL     1      43.230 -16.088   1.896  1.00  0.00     0.008 A 
HETATM   14  C   UNL     1      43.113 -17.229   2.697  1.00  0.00    -0.059 A 
HETATM   15  C   UNL     1      42.923 -17.070   4.075  1.00  0.00     0.008 A 
HETATM   16  C   UNL     1      42.841 -15.793   4.638  1.00  0.00     0.014 A 
BRANCH  14  17
HETATM   17  C   UNL     1      43.215 -18.604   2.089  1.00  0.00     0.034 C 
HETATM   18  C   UNL     1      43.839 -19.603   3.051  1.00  0.00     0.010 C 
ENDBRANCH  14  17
ENDBRANCH   9  11
ENDBRANCH   1   5
BRANCH   2  19
HETATM   19  N   UNL     1      42.481  -9.476   8.747  1.00  0.00    -0.176 NA
HETATM   20  C   UNL     1      43.388  -8.599   9.071  1.00  0.00     0.064 C 
HETATM   21  C   UNL     1      44.800  -8.609   8.518  1.00  0.00     0.073 C 
BRANCH  20  22
HETATM   22  C   UNL     1      43.001  -7.529  10.052  1.00  0.00     0.023 A 
HETATM   23  C   UNL     1      42.786  -7.843  11.405  1.00  0.00     0.077 A 
HETATM   24  C   UNL     1      42.439  -6.850  12.322  1.00  0.00     0.037 A 
HETATM   25  C   UNL     1      42.286  -5.533  11.899  1.00  0.00     0.003 A 
HETATM   26  C   UNL     1      42.474  -5.208  10.557  1.00  0.00     0.001 A 
HETATM   27  C   UNL     1      42.823  -6.201   9.636  1.00  0.00     0.016 A 
BRANCH  23  28
HETATM   28  O   UNL     1      42.898  -9.108  11.919  1.00  0.00    -0.360 OA
HETATM   29  H   UNL     1      42.263  -9.197  12.666  1.00  0.00     0.217 HD
ENDBRANCH  23  28
ENDBRANCH  20  22
ENDBRANCH   2  19
TORSDOF 6
ENDMDL
MODEL 6
REMARK VINA RESULT:      -7.7      2.565     10.176
REMARK  6 active torsions:
REMARK  status: ('A' for Active; 'I' for Inactive)
REMARK    1  A    between atoms: C_2  and  C_3 
REMARK    2  A    between atoms: C_6  and  C_7 
REMARK    3  A    between atoms: C_11  and  C_12 
REMARK       I    between atoms: C_12  and  N_13 
REMARK    4  A    between atoms: N_13  and  N_14 
REMARK    5  A    between atoms: C_15  and  C_16 
REMARK    6  A    between atoms: C_17  and  O_18 
ROOT
HETATM    1  C   UNL     1      43.281  -9.561   8.546  1.00  0.00     0.289 C 
HETATM    2  N   UNL     1      42.486 -10.088   9.551  1.00  0.00    -0.241 N 
HETATM    3  O   UNL     1      43.734  -8.419   8.561  1.00  0.00    -0.264 OA
HETATM    4  H   UNL     1      42.128 -11.029   9.473  1.00  0.00     0.192 HD
ENDROOT
BRANCH   1   5
HETATM    5  C   UNL     1      43.532 -10.456   7.443  1.00  0.00     0.121 A 
HETATM    6  N   UNL     1      44.800 -10.702   7.001  1.00  0.00    -0.272 N 
HETATM    7  N   UNL     1      44.866 -11.544   5.960  1.00  0.00    -0.174 NA
HETATM    8  H   UNL     1      45.661 -10.310   7.373  1.00  0.00     0.189 HD
HETATM    9  C   UNL     1      43.594 -11.898   5.724  1.00  0.00     0.089 A 
HETATM   10  C   UNL     1      42.723 -11.224   6.629  1.00  0.00     0.071 A 
BRANCH   9  11
HETATM   11  C   UNL     1      43.235 -12.844   4.663  1.00  0.00    -0.006 A 
HETATM   12  C   UNL     1      42.982 -14.193   4.948  1.00  0.00     0.014 A 
HETATM   13  C   UNL     1      42.637 -15.089   3.930  1.00  0.00     0.008 A 
HETATM   14  C   UNL     1      42.542 -14.655   2.603  1.00  0.00    -0.059 A 
HETATM   15  C   UNL     1      42.791 -13.309   2.313  1.00  0.00     0.008 A 
HETATM   16  C   UNL     1      43.138 -12.416   3.331  1.00  0.00     0.014 A 
BRANCH  14  17
HETATM   17  C   UNL     1      42.154 -15.618   1.510  1.00  0.00     0.034 C 
HETATM   18  C   UNL     1      40.653 -15.857   1.473  1.00  0.00     0.010 C 
ENDBRANCH  14  17
ENDBRANCH   9  11
ENDBRANCH   1   5
BRANCH   2  19
HETATM   19  N   UNL     1      42.238  -9.358  10.673  1.00  0.00    -0.176 NA
HETATM   20  C   UNL     1      42.734  -9.739  11.816  1.00  0.00     0.064 C 
HETATM   21  C   UNL     1      43.528 -11.017  12.002  1.00  0.00     0.073 C 
BRANCH  20  22
HETATM   22  C   UNL     1      42.490  -8.857  13.007  1.00  0.00     0.023 A 
HETATM   23  C   UNL     1      41.370  -9.061  13.832  1.00  0.00     0.077 A 
HETATM   24  C   UNL     1      41.148  -8.252  14.946  1.00  0.00     0.037 A 
HETATM   25  C   UNL     1      42.030  -7.218  15.245  1.00  0.00     0.003 A 
HETATM   26  C   UNL     1      43.133  -6.987  14.426  1.00  0.00     0.001 A 
HETATM   27  C   UNL     1      43.360  -7.798  13.309  1.00  0.00     0.016 A 
BRANCH  23  28
HETATM   28  O   UNL     1      40.437 -10.040  13.617  1.00  0.00    -0.360 OA
HETATM   29  H   UNL     1      39.857 -10.096  14.411  1.00  0.00     0.217 HD
ENDBRANCH  23  28
ENDBRANCH  20  22
ENDBRANCH   2  19
TORSDOF 6
ENDMDL
MODEL 7
REMARK VINA RESULT:      -7.5      2.762     10.575
REMARK  6 active torsions:
REMARK  status: ('A' for Active; 'I' for Inactive)
REMARK    1  A    between atoms: C_2  and  C_3 
REMARK    2  A    between atoms: C_6  and  C_7 
REMARK    3  A    between atoms: C_11  and  C_12 
REMARK       I    between atoms: C_12  and  N_13 
REMARK    4  A    between atoms: N_13  and  N_14 
REMARK    5  A    between atoms: C_15  and  C_16 
REMARK    6  A    between atoms: C_17  and  O_18 
ROOT
HETATM    1  C   UNL     1      42.694 -11.237   5.601  1.00  0.00     0.289 C 
HETATM    2  N   UNL     1      42.555 -11.231   6.981  1.00  0.00    -0.241 N 
HETATM    3  O   UNL     1      42.922 -10.231   4.934  1.00  0.00    -0.264 OA
HETATM    4  H   UNL     1      42.350 -12.087   7.473  1.00  0.00     0.192 HD
ENDROOT
BRANCH   1   5
HETATM    5  C   UNL     1      42.530 -12.529   4.984  1.00  0.00     0.121 A 
HETATM    6  N   UNL     1      41.496 -12.783   4.129  1.00  0.00    -0.272 N 
HETATM    7  N   UNL     1      41.473 -14.035   3.650  1.00  0.00    -0.174 NA
HETATM    8  H   UNL     1      40.769 -12.133   3.844  1.00  0.00     0.189 HD
HETATM    9  C   UNL     1      42.555 -14.625   4.181  1.00  0.00     0.089 A 
HETATM   10  C   UNL     1      43.239 -13.713   5.036  1.00  0.00     0.071 A 
BRANCH   9  11
HETATM   11  C   UNL     1      42.908 -16.015   3.878  1.00  0.00    -0.006 A 
HETATM   12  C   UNL     1      43.697 -16.772   4.756  1.00  0.00     0.014 A 
HETATM   13  C   UNL     1      44.027 -18.099   4.460  1.00  0.00     0.008 A 
HETATM   14  C   UNL     1      43.577 -18.698   3.279  1.00  0.00    -0.059 A 
HETATM   15  C   UNL     1      42.786 -17.949   2.401  1.00  0.00     0.008 A 
HETATM   16  C   UNL     1      42.460 -16.621   2.695  1.00  0.00     0.014 A 
BRANCH  14  17
HETATM   17  C   UNL     1      43.919 -20.133   2.971  1.00  0.00     0.034 C 
HETATM   18  C   UNL     1      43.534 -20.514   1.550  1.00  0.00     0.010 C 
ENDBRANCH  14  17
ENDBRANCH   9  11
ENDBRANCH   1   5
BRANCH   2  19
HETATM   19  N   UNL     1      42.755 -10.078   7.677  1.00  0.00    -0.176 NA
HETATM   20  C   UNL     1      41.735  -9.348   8.029  1.00  0.00     0.064 C 
HETATM   21  C   UNL     1      40.304  -9.665   7.641  1.00  0.00     0.073 C 
BRANCH  20  22
HETATM   22  C   UNL     1      42.008  -8.125   8.858  1.00  0.00     0.023 A 
HETATM   23  C   UNL     1      42.437  -8.246  10.190  1.00  0.00     0.077 A 
HETATM   24  C   UNL     1      42.705  -7.113  10.959  1.00  0.00     0.037 A 
HETATM   25  C   UNL     1      42.532  -5.843  10.414  1.00  0.00     0.003 A 
HETATM   26  C   UNL     1      42.086  -5.706   9.101  1.00  0.00     0.001 A 
HETATM   27  C   UNL     1      41.819  -6.840   8.327  1.00  0.00     0.016 A 
BRANCH  23  28
HETATM   28  O   UNL     1      42.624  -9.446  10.823  1.00  0.00    -0.360 OA
HETATM   29  H   UNL     1      41.910  -9.559  11.492  1.00  0.00     0.217 HD
ENDBRANCH  23  28
ENDBRANCH  20  22
ENDBRANCH   2  19
TORSDOF 6
ENDMDL
MODEL 8
REMARK VINA RESULT:      -7.4      1.752      2.183
REMARK  6 active torsions:
REMARK  status: ('A' for Active; 'I' for Inactive)
REMARK    1  A    between atoms: C_2  and  C_3 
REMARK    2  A    between atoms: C_6  and  C_7 
REMARK    3  A    between atoms: C_11  and  C_12 
REMARK       I    between atoms: C_12  and  N_13 
REMARK    4  A    between atoms: N_13  and  N_14 
REMARK    5  A    between atoms: C_15  and  C_16 
REMARK    6  A    between atoms: C_17  and  O_18 
ROOT
HETATM    1  C   UNL     1      43.312 -11.292   5.877  1.00  0.00     0.289 C 
HETATM    2  N   UNL     1      43.187 -12.620   6.253  1.00  0.00    -0.241 N 
HETATM    3  O   UNL     1      43.627 -10.929   4.746  1.00  0.00    -0.264 OA
HETATM    4  H   UNL     1      42.942 -12.856   7.203  1.00  0.00     0.192 HD
ENDROOT
BRANCH   1   5
HETATM    5  C   UNL     1      43.062 -10.340   6.930  1.00  0.00     0.121 A 
HETATM    6  N   UNL     1      42.353  -9.195   6.702  1.00  0.00    -0.272 N 
HETATM    7  N   UNL     1      42.218  -8.407   7.778  1.00  0.00    -0.174 NA
HETATM    8  H   UNL     1      41.943  -8.900   5.820  1.00  0.00     0.189 HD
HETATM    9  C   UNL     1      42.833  -9.072   8.768  1.00  0.00     0.089 A 
HETATM   10  C   UNL     1      43.387 -10.287   8.271  1.00  0.00     0.071 A 
BRANCH   9  11
HETATM   11  C   UNL     1      42.886  -8.549  10.137  1.00  0.00    -0.006 A 
HETATM   12  C   UNL     1      42.414  -7.265  10.442  1.00  0.00     0.014 A 
HETATM   13  C   UNL     1      42.466  -6.774  11.752  1.00  0.00     0.008 A 
HETATM   14  C   UNL     1      42.995  -7.556  12.784  1.00  0.00    -0.059 A 
HETATM   15  C   UNL     1      43.464  -8.840  12.485  1.00  0.00     0.008 A 
HETATM   16  C   UNL     1      43.415  -9.328  11.176  1.00  0.00     0.014 A 
BRANCH  14  17
HETATM   17  C   UNL     1      43.034  -7.033  14.197  1.00  0.00     0.034 C 
HETATM   18  C   UNL     1      41.684  -7.159  14.885  1.00  0.00     0.010 C 
ENDBRANCH  14  17
ENDBRANCH   9  11
ENDBRANCH   1   5
BRANCH   2  19
HETATM   19  N   UNL     1      43.334 -13.604   5.325  1.00  0.00    -0.176 NA
HETATM   20  C   UNL     1      42.645 -14.705   5.433  1.00  0.00     0.064 C 
HETATM   21  C   UNL     1      41.718 -15.004   6.595  1.00  0.00     0.073 C 
BRANCH  20  22
HETATM   22  C   UNL     1      42.793 -15.727   4.341  1.00  0.00     0.023 A 
HETATM   23  C   UNL     1      43.649 -16.829   4.504  1.00  0.00     0.077 A 
HETATM   24  C   UNL     1      43.778 -17.787   3.498  1.00  0.00     0.037 A 
HETATM   25  C   UNL     1      43.068 -17.651   2.309  1.00  0.00     0.003 A 
HETATM   26  C   UNL     1      42.231 -16.552   2.122  1.00  0.00     0.001 A 
HETATM   27  C   UNL     1      42.098 -15.591   3.130  1.00  0.00     0.016 A 
BRANCH  23  28
HETATM   28  O   UNL     1      44.401 -17.048   5.628  1.00  0.00    -0.360 OA
HETATM   29  H   UNL     1      44.783 -16.188   5.917  1.00  0.00     0.217 HD
ENDBRANCH  23  28
ENDBRANCH  20  22
ENDBRANCH   2  19
TORSDOF 6
ENDMDL
MODEL 9
REMARK VINA RESULT:      -7.3     19.245     21.045
REMARK  6 active torsions:
REMARK  status: ('A' for Active; 'I' for Inactive)
REMARK    1  A    between atoms: C_2  and  C_3 
REMARK    2  A    between atoms: C_6  and  C_7 
REMARK    3  A    between atoms: C_11  and  C_12 
REMARK       I    between atoms: C_12  and  N_13 
REMARK    4  A    between atoms: N_13  and  N_14 
REMARK    5  A    between atoms: C_15  and  C_16 
REMARK    6  A    between atoms: C_17  and  O_18 
ROOT
HETATM    1  C   UNL     1      42.110 -30.259   2.665  1.00  0.00     0.289 C 
HETATM    2  N   UNL     1      43.418 -29.940   2.996  1.00  0.00    -0.241 N 
HETATM    3  O   UNL     1      41.599 -30.000   1.579  1.00  0.00    -0.264 OA
HETATM    4  H   UNL     1      43.777 -30.162   3.913  1.00  0.00     0.192 HD
ENDROOT
BRANCH   1   5
HETATM    5  C   UNL     1      41.365 -30.912   3.712  1.00  0.00     0.121 A 
HETATM    6  N   UNL     1      41.788 -30.884   5.011  1.00  0.00    -0.272 N 
HETATM    7  N   UNL     1      40.995 -31.548   5.863  1.00  0.00    -0.174 NA
HETATM    8  H   UNL     1      42.623 -30.427   5.369  1.00  0.00     0.189 HD
HETATM    9  C   UNL     1      39.987 -32.006   5.105  1.00  0.00     0.089 A 
HETATM   10  C   UNL     1      40.190 -31.636   3.744  1.00  0.00     0.071 A 
BRANCH   9  11
HETATM   11  C   UNL     1      38.876 -32.776   5.675  1.00  0.00    -0.006 A 
HETATM   12  C   UNL     1      38.838 -33.095   7.039  1.00  0.00     0.014 A 
HETATM   13  C   UNL     1      37.773 -33.827   7.575  1.00  0.00     0.008 A 
HETATM   14  C   UNL     1      36.723 -34.258   6.757  1.00  0.00    -0.059 A 
HETATM   15  C   UNL     1      36.754 -33.939   5.395  1.00  0.00     0.008 A 
HETATM   16  C   UNL     1      37.821 -33.211   4.860  1.00  0.00     0.014 A 
BRANCH  14  17
HETATM   17  C   UNL     1      35.568 -35.032   7.339  1.00  0.00     0.034 C 
HETATM   18  C   UNL     1      35.466 -34.848   8.845  1.00  0.00     0.010 C 
ENDBRANCH  14  17
ENDBRANCH   9  11
ENDBRANCH   1   5
BRANCH   2  19
HETATM   19  N   UNL     1      44.237 -29.382   2.063  1.00  0.00    -0.176 NA
HETATM   20  C   UNL     1      45.154 -30.108   1.489  1.00  0.00     0.064 C 
HETATM   21  C   UNL     1      45.428 -31.554   1.852  1.00  0.00     0.073 C 
BRANCH  20  22
HETATM   22  C   UNL     1      45.981 -29.461   0.414  1.00  0.00     0.023 A 
HETATM   23  C   UNL     1      46.733 -28.305   0.688  1.00  0.00     0.077 A 
HETATM   24  C   UNL     1      47.512 -27.709  -0.303  1.00  0.00     0.037 A 
HETATM   25  C   UNL     1      47.540 -28.248  -1.587  1.00  0.00     0.003 A 
HETATM   26  C   UNL     1      46.784 -29.380  -1.881  1.00  0.00     0.001 A 
HETATM   27  C   UNL     1      46.003 -29.981  -0.888  1.00  0.00     0.016 A 
BRANCH  23  28
HETATM   28  O   UNL     1      46.762 -27.690   1.912  1.00  0.00    -0.360 OA
HETATM   29  H   UNL     1      47.702 -27.599   2.191  1.00  0.00     0.217 HD
ENDBRANCH  23  28
ENDBRANCH  20  22
ENDBRANCH   2  19
TORSDOF 6
ENDMDL
MODEL 10
REMARK VINA RESULT:      -7.3     19.856     21.993
REMARK  6 active torsions:
REMARK  status: ('A' for Active; 'I' for Inactive)
REMARK    1  A    between atoms: C_2  and  C_3 
REMARK    2  A    between atoms: C_6  and  C_7 
REMARK    3  A    between atoms: C_11  and  C_12 
REMARK       I    between atoms: C_12  and  N_13 
REMARK    4  A    between atoms: N_13  and  N_14 
REMARK    5  A    between atoms: C_15  and  C_16 
REMARK    6  A    between atoms: C_17  and  O_18 
ROOT
HETATM    1  C   UNL     1      40.564 -31.424   4.677  1.00  0.00     0.289 C 
HETATM    2  N   UNL     1      39.321 -31.986   4.431  1.00  0.00    -0.241 N 
HETATM    3  O   UNL     1      41.041 -31.286   5.801  1.00  0.00    -0.264 OA
HETATM    4  H   UNL     1      38.975 -32.056   3.486  1.00  0.00     0.192 HD
ENDROOT
BRANCH   1   5
HETATM    5  C   UNL     1      41.270 -30.982   3.501  1.00  0.00     0.121 A 
HETATM    6  N   UNL     1      40.712 -31.078   2.258  1.00  0.00    -0.272 N 
HETATM    7  N   UNL     1      41.499 -30.639   1.265  1.00  0.00    -0.174 NA
HETATM    8  H   UNL     1      39.792 -31.447   2.031  1.00  0.00     0.189 HD
HETATM    9  C   UNL     1      42.610 -30.203   1.877  1.00  0.00     0.089 A 
HETATM   10  C   UNL     1      42.509 -30.413   3.283  1.00  0.00     0.071 A 
BRANCH   9  11
HETATM   11  C   UNL     1      43.726 -29.612   1.131  1.00  0.00    -0.006 A 
HETATM   12  C   UNL     1      43.565 -29.178  -0.192  1.00  0.00     0.014 A 
HETATM   13  C   UNL     1      44.634 -28.613  -0.896  1.00  0.00     0.008 A 
HETATM   14  C   UNL     1      45.889 -28.473  -0.293  1.00  0.00    -0.059 A 
HETATM   15  C   UNL     1      46.054 -28.902   1.029  1.00  0.00     0.008 A 
HETATM   16  C   UNL     1      44.986 -29.470   1.730  1.00  0.00     0.014 A 
BRANCH  14  17
HETATM   17  C   UNL     1      47.034 -27.848  -1.047  1.00  0.00     0.034 C 
HETATM   18  C   UNL     1      48.144 -28.851  -1.322  1.00  0.00     0.010 C 
ENDBRANCH  14  17
ENDBRANCH   9  11
ENDBRANCH   1   5
BRANCH   2  19
HETATM   19  N   UNL     1      38.594 -32.499   5.461  1.00  0.00    -0.176 NA
HETATM   20  C   UNL     1      38.582 -33.786   5.667  1.00  0.00     0.064 C 
HETATM   21  C   UNL     1      39.284 -34.786   4.770  1.00  0.00     0.073 C 
BRANCH  20  22
HETATM   22  C   UNL     1      37.822 -34.291   6.860  1.00  0.00     0.023 A 
HETATM   23  C   UNL     1      36.417 -34.261   6.879  1.00  0.00     0.077 A 
HETATM   24  C   UNL     1      35.708 -34.741   7.980  1.00  0.00     0.037 A 
HETATM   25  C   UNL     1      36.389 -35.244   9.084  1.00  0.00     0.003 A 
HETATM   26  C   UNL     1      37.782 -35.262   9.091  1.00  0.00     0.001 A 
HETATM   27  C   UNL     1      38.497 -34.783   7.988  1.00  0.00     0.016 A 
BRANCH  23  28
HETATM   28  O   UNL     1      35.654 -33.773   5.852  1.00  0.00    -0.360 OA
HETATM   29  H   UNL     1      34.710 -33.981   6.040  1.00  0.00     0.217 HD
ENDBRANCH  23  28
ENDBRANCH  20  22
ENDBRANCH   2  19
TORSDOF 6
ENDMDL
