MODEL 1
REMARK VINA RESULT:      -8.3      0.000      0.000
REMARK  3 active torsions:
REMARK  status: ('A' for Active; 'I' for Inactive)
REMARK    1  A    between atoms: C_4  and  C_5 
REMARK    2  A    between atoms: C_11  and  C_12 
REMARK    3  A    between atoms: C_21  and  N_22 
ROOT
HETATM    1  C   UNL     1      42.340 -15.904   2.360  1.00  0.00     0.071 A 
HETATM    2  N   UNL     1      41.575 -15.823   1.212  1.00  0.00    -0.274 N 
HETATM    3  H   UNL     1      41.333 -16.579   0.582  1.00  0.00     0.189 HD
HETATM    4  N   UNL     1      41.184 -14.576   0.890  1.00  0.00    -0.148 NA
HETATM    5  C   UNL     1      41.698 -13.861   1.880  1.00  0.00     0.199 A 
HETATM    6  C   UNL     1      42.381 -14.610   2.851  1.00  0.00     0.036 A 
HETATM    7  C   UNL     1      42.998 -13.925   4.034  1.00  0.00     0.079 C 
HETATM    8  C   UNL     1      43.152 -12.430   3.697  1.00  0.00     0.063 C 
HETATM    9  C   UNL     1      44.146 -11.650   4.542  1.00  0.00     0.020 C 
HETATM   10  N   UNL     1      44.971 -11.002   5.242  1.00  0.00    -0.096 N 
HETATM   11  C   UNL     1      42.475 -11.810   2.699  1.00  0.00     0.139 C 
HETATM   12  O   UNL     1      41.619 -12.517   1.847  1.00  0.00    -0.277 OA
ENDROOT
BRANCH   7  13
HETATM   13  C   UNL     1      42.195 -14.056   5.382  1.00  0.00     0.022 C 
HETATM   14  C   UNL     1      41.084 -15.085   5.368  1.00  0.00    -0.025 C 
HETATM   15  C   UNL     1      40.988 -16.097   6.241  1.00  0.00    -0.030 C 
HETATM   16  C   UNL     1      41.984 -16.349   7.330  1.00  0.00     0.027 C 
HETATM   17  C   UNL     1      43.303 -15.612   7.121  1.00  0.00     0.004 C 
HETATM   18  C   UNL     1      43.106 -14.184   6.628  1.00  0.00     0.010 C 
ENDBRANCH   7  13
BRANCH  11  19
HETATM   19  N   UNL     1      42.556 -10.470   2.390  1.00  0.00    -0.282 NA
HETATM   20  H   UNL     1      42.465  -9.827   3.172  1.00  0.00     0.126 HD
HETATM   21  H   UNL     1      43.362 -10.268   1.800  1.00  0.00     0.126 HD
ENDBRANCH  11  19
BRANCH   1  22
HETATM   22  C   UNL     1      42.944 -17.159   2.787  1.00  0.00    -0.007 A 
HETATM   23  C   UNL     1      42.775 -18.325   2.032  1.00  0.00     0.014 A 
HETATM   24  C   UNL     1      43.354 -19.527   2.445  1.00  0.00     0.001 A 
HETATM   25  C   UNL     1      44.105 -19.574   3.618  1.00  0.00     0.000 A 
HETATM   26  C   UNL     1      44.276 -18.422   4.381  1.00  0.00     0.001 A 
HETATM   27  C   UNL     1      43.696 -17.220   3.970  1.00  0.00     0.014 A 
ENDBRANCH   1  22
TORSDOF 3
ENDMDL
MODEL 2
REMARK VINA RESULT:      -8.0      2.293      3.002
REMARK  3 active torsions:
REMARK  status: ('A' for Active; 'I' for Inactive)
REMARK    1  A    between atoms: C_4  and  C_5 
REMARK    2  A    between atoms: C_11  and  C_12 
REMARK    3  A    between atoms: C_21  and  N_22 
ROOT
HETATM    1  C   UNL     1      41.326 -14.112   3.984  1.00  0.00     0.071 A 
HETATM    2  N   UNL     1      40.022 -13.698   3.793  1.00  0.00    -0.274 N 
HETATM    3  H   UNL     1      39.360 -14.049   3.111  1.00  0.00     0.189 HD
HETATM    4  N   UNL     1      39.646 -12.666   4.571  1.00  0.00    -0.148 NA
HETATM    5  C   UNL     1      40.740 -12.446   5.286  1.00  0.00     0.199 A 
HETATM    6  C   UNL     1      41.800 -13.325   5.020  1.00  0.00     0.036 A 
HETATM    7  C   UNL     1      43.092 -13.197   5.771  1.00  0.00     0.079 C 
HETATM    8  C   UNL     1      43.151 -11.787   6.387  1.00  0.00     0.063 C 
HETATM    9  C   UNL     1      44.529 -11.287   6.791  1.00  0.00     0.020 C 
HETATM   10  N   UNL     1      45.671 -10.872   7.126  1.00  0.00    -0.096 N 
HETATM   11  C   UNL     1      42.064 -10.993   6.557  1.00  0.00     0.139 C 
HETATM   12  O   UNL     1      40.795 -11.387   6.116  1.00  0.00    -0.277 OA
ENDROOT
BRANCH   7  13
HETATM   13  C   UNL     1      43.312 -14.255   6.916  1.00  0.00     0.022 C 
HETATM   14  C   UNL     1      42.109 -15.119   7.230  1.00  0.00    -0.025 C 
HETATM   15  C   UNL     1      42.119 -16.458   7.201  1.00  0.00    -0.030 C 
HETATM   16  C   UNL     1      43.323 -17.270   6.834  1.00  0.00     0.027 C 
HETATM   17  C   UNL     1      44.400 -16.458   6.120  1.00  0.00     0.004 C 
HETATM   18  C   UNL     1      44.609 -15.084   6.743  1.00  0.00     0.010 C 
ENDBRANCH   7  13
BRANCH  11  19
HETATM   19  N   UNL     1      42.069  -9.744   7.137  1.00  0.00    -0.282 NA
HETATM   20  H   UNL     1      42.830  -9.557   7.784  1.00  0.00     0.126 HD
HETATM   21  H   UNL     1      41.946  -9.007   6.444  1.00  0.00     0.126 HD
ENDBRANCH  11  19
BRANCH   1  22
HETATM   22  C   UNL     1      41.931 -15.137   3.143  1.00  0.00    -0.007 A 
HETATM   23  C   UNL     1      41.631 -16.489   3.339  1.00  0.00     0.014 A 
HETATM   24  C   UNL     1      42.214 -17.469   2.533  1.00  0.00     0.001 A 
HETATM   25  C   UNL     1      43.104 -17.106   1.525  1.00  0.00     0.000 A 
HETATM   26  C   UNL     1      43.415 -15.764   1.323  1.00  0.00     0.001 A 
HETATM   27  C   UNL     1      42.834 -14.783   2.130  1.00  0.00     0.014 A 
ENDBRANCH   1  22
TORSDOF 3
ENDMDL
MODEL 3
REMARK VINA RESULT:      -7.8      2.409      4.318
REMARK  3 active torsions:
REMARK  status: ('A' for Active; 'I' for Inactive)
REMARK    1  A    between atoms: C_4  and  C_5 
REMARK    2  A    between atoms: C_11  and  C_12 
REMARK    3  A    between atoms: C_21  and  N_22 
ROOT
HETATM    1  C   UNL     1      43.817 -16.854   4.905  1.00  0.00     0.071 A 
HETATM    2  N   UNL     1      44.666 -16.761   5.992  1.00  0.00    -0.274 N 
HETATM    3  H   UNL     1      45.297 -17.473   6.340  1.00  0.00     0.189 HD
HETATM    4  N   UNL     1      44.566 -15.608   6.680  1.00  0.00    -0.148 NA
HETATM    5  C   UNL     1      43.646 -14.952   5.988  1.00  0.00     0.199 A 
HETATM    6  C   UNL     1      43.172 -15.629   4.854  1.00  0.00     0.036 A 
HETATM    7  C   UNL     1      42.140 -14.992   3.973  1.00  0.00     0.079 C 
HETATM    8  C   UNL     1      41.452 -13.869   4.773  1.00  0.00     0.063 C 
HETATM    9  C   UNL     1      40.100 -13.407   4.256  1.00  0.00     0.020 C 
HETATM   10  N   UNL     1      38.977 -13.024   3.828  1.00  0.00    -0.096 N 
HETATM   11  C   UNL     1      41.978 -13.313   5.893  1.00  0.00     0.139 C 
HETATM   12  O   UNL     1      43.178 -13.775   6.445  1.00  0.00    -0.277 OA
ENDROOT
BRANCH   7  13
HETATM   13  C   UNL     1      42.685 -14.386   2.626  1.00  0.00     0.022 C 
HETATM   14  C   UNL     1      41.711 -14.423   1.467  1.00  0.00    -0.025 C 
HETATM   15  C   UNL     1      41.333 -13.342   0.771  1.00  0.00    -0.030 C 
HETATM   16  C   UNL     1      41.814 -11.955   1.068  1.00  0.00     0.027 C 
HETATM   17  C   UNL     1      42.444 -11.821   2.451  1.00  0.00     0.004 C 
HETATM   18  C   UNL     1      43.346 -12.997   2.801  1.00  0.00     0.010 C 
ENDBRANCH   7  13
BRANCH  11  19
HETATM   19  N   UNL     1      41.414 -12.284   6.614  1.00  0.00    -0.282 NA
HETATM   20  H   UNL     1      40.775 -11.681   6.104  1.00  0.00     0.126 HD
HETATM   21  H   UNL     1      41.032 -12.612   7.500  1.00  0.00     0.126 HD
ENDBRANCH  11  19
BRANCH   1  22
HETATM   22  C   UNL     1      43.711 -18.078   4.123  1.00  0.00    -0.007 A 
HETATM   23  C   UNL     1      44.067 -19.312   4.677  1.00  0.00     0.014 A 
HETATM   24  C   UNL     1      43.966 -20.484   3.924  1.00  0.00     0.001 A 
HETATM   25  C   UNL     1      43.511 -20.431   2.608  1.00  0.00     0.000 A 
HETATM   26  C   UNL     1      43.158 -19.209   2.043  1.00  0.00     0.001 A 
HETATM   27  C   UNL     1      43.260 -18.036   2.795  1.00  0.00     0.014 A 
ENDBRANCH   1  22
TORSDOF 3
ENDMDL
MODEL 4
REMARK VINA RESULT:      -7.8      2.262      2.784
REMARK  3 active torsions:
REMARK  status: ('A' for Active; 'I' for Inactive)
REMARK    1  A    between atoms: C_4  and  C_5 
REMARK    2  A    between atoms: C_11  and  C_12 
REMARK    3  A    between atoms: C_21  and  N_22 
ROOT
HETATM    1  C   UNL     1      40.569 -14.006   2.930  1.00  0.00     0.071 A 
HETATM    2  N   UNL     1      39.396 -13.802   2.230  1.00  0.00    -0.274 N 
HETATM    3  H   UNL     1      39.063 -14.321   1.425  1.00  0.00     0.189 HD
HETATM    4  N   UNL     1      38.674 -12.746   2.648  1.00  0.00    -0.148 NA
HETATM    5  C   UNL     1      39.405 -12.293   3.656  1.00  0.00     0.199 A 
HETATM    6  C   UNL     1      40.560 -13.043   3.925  1.00  0.00     0.036 A 
HETATM    7  C   UNL     1      41.470 -12.649   5.050  1.00  0.00     0.079 C 
HETATM    8  C   UNL     1      41.178 -11.180   5.411  1.00  0.00     0.063 C 
HETATM    9  C   UNL     1      42.263 -10.450   6.186  1.00  0.00     0.020 C 
HETATM   10  N   UNL     1      43.163  -9.844   6.829  1.00  0.00    -0.096 N 
HETATM   11  C   UNL     1      40.041 -10.530   5.058  1.00  0.00     0.139 C 
HETATM   12  O   UNL     1      39.062 -11.145   4.269  1.00  0.00    -0.277 OA
ENDROOT
BRANCH   7  13
HETATM   13  C   UNL     1      41.344 -13.521   6.355  1.00  0.00     0.022 C 
HETATM   14  C   UNL     1      40.214 -14.529   6.344  1.00  0.00    -0.025 C 
HETATM   15  C   UNL     1      40.379 -15.843   6.544  1.00  0.00    -0.030 C 
HETATM   16  C   UNL     1      41.711 -16.483   6.784  1.00  0.00     0.027 C 
HETATM   17  C   UNL     1      42.886 -15.592   6.391  1.00  0.00     0.004 C 
HETATM   18  C   UNL     1      42.688 -14.141   6.810  1.00  0.00     0.010 C 
ENDBRANCH   7  13
BRANCH  11  19
HETATM   19  N   UNL     1      39.726  -9.231   5.392  1.00  0.00    -0.282 NA
HETATM   20  H   UNL     1      39.383  -9.086   6.337  1.00  0.00     0.126 HD
HETATM   21  H   UNL     1      40.472  -8.586   5.135  1.00  0.00     0.126 HD
ENDBRANCH  11  19
BRANCH   1  22
HETATM   22  C   UNL     1      41.526 -15.032   2.533  1.00  0.00    -0.007 A 
HETATM   23  C   UNL     1      41.309 -16.375   2.860  1.00  0.00     0.014 A 
HETATM   24  C   UNL     1      42.229 -17.354   2.480  1.00  0.00     0.001 A 
HETATM   25  C   UNL     1      43.375 -16.999   1.771  1.00  0.00     0.000 A 
HETATM   26  C   UNL     1      43.604 -15.666   1.444  1.00  0.00     0.001 A 
HETATM   27  C   UNL     1      42.686 -14.684   1.826  1.00  0.00     0.014 A 
ENDBRANCH   1  22
TORSDOF 3
ENDMDL
MODEL 5
REMARK VINA RESULT:      -7.8     14.514     16.514
REMARK  3 active torsions:
REMARK  status: ('A' for Active; 'I' for Inactive)
REMARK    1  A    between atoms: C_4  and  C_5 
REMARK    2  A    between atoms: C_11  and  C_12 
REMARK    3  A    between atoms: C_21  and  N_22 
ROOT
HETATM    1  C   UNL     1      47.544 -29.376   0.371  1.00  0.00     0.071 A 
HETATM    2  N   UNL     1      48.087 -28.532   1.320  1.00  0.00    -0.274 N 
HETATM    3  H   UNL     1      49.055 -28.245   1.405  1.00  0.00     0.189 HD
HETATM    4  N   UNL     1      47.217 -28.118   2.261  1.00  0.00    -0.148 NA
HETATM    5  C   UNL     1      46.092 -28.702   1.872  1.00  0.00     0.199 A 
HETATM    6  C   UNL     1      46.199 -29.451   0.691  1.00  0.00     0.036 A 
HETATM    7  C   UNL     1      44.997 -30.151   0.131  1.00  0.00     0.079 C 
HETATM    8  C   UNL     1      43.951 -30.280   1.254  1.00  0.00     0.063 C 
HETATM    9  C   UNL     1      42.872 -31.332   1.051  1.00  0.00     0.020 C 
HETATM   10  N   UNL     1      41.978 -32.205   0.882  1.00  0.00    -0.096 N 
HETATM   11  C   UNL     1      43.966 -29.535   2.387  1.00  0.00     0.139 C 
HETATM   12  O   UNL     1      44.994 -28.620   2.646  1.00  0.00    -0.277 OA
ENDROOT
BRANCH   7  13
HETATM   13  C   UNL     1      44.322 -29.446  -1.105  1.00  0.00     0.022 C 
HETATM   14  C   UNL     1      45.045 -28.217  -1.613  1.00  0.00    -0.025 C 
HETATM   15  C   UNL     1      45.465 -28.063  -2.877  1.00  0.00    -0.030 C 
HETATM   16  C   UNL     1      45.287 -29.101  -3.941  1.00  0.00     0.027 C 
HETATM   17  C   UNL     1      44.956 -30.482  -3.384  1.00  0.00     0.004 C 
HETATM   18  C   UNL     1      43.949 -30.428  -2.242  1.00  0.00     0.010 C 
ENDBRANCH   7  13
BRANCH  11  19
HETATM   19  N   UNL     1      43.030 -29.593   3.396  1.00  0.00    -0.282 NA
HETATM   20  H   UNL     1      42.233 -28.971   3.299  1.00  0.00     0.126 HD
HETATM   21  H   UNL     1      42.763 -30.554   3.605  1.00  0.00     0.126 HD
ENDBRANCH  11  19
BRANCH   1  22
HETATM   22  C   UNL     1      48.371 -30.009  -0.648  1.00  0.00    -0.007 A 
HETATM   23  C   UNL     1      47.815 -30.919  -1.555  1.00  0.00     0.014 A 
HETATM   24  C   UNL     1      48.611 -31.525  -2.529  1.00  0.00     0.001 A 
HETATM   25  C   UNL     1      49.971 -31.229  -2.604  1.00  0.00     0.000 A 
HETATM   26  C   UNL     1      50.537 -30.330  -1.705  1.00  0.00     0.001 A 
HETATM   27  C   UNL     1      49.742 -29.724  -0.728  1.00  0.00     0.014 A 
ENDBRANCH   1  22
TORSDOF 3
ENDMDL
MODEL 6
REMARK VINA RESULT:      -7.7      1.993      4.691
REMARK  3 active torsions:
REMARK  status: ('A' for Active; 'I' for Inactive)
REMARK    1  A    between atoms: C_4  and  C_5 
REMARK    2  A    between atoms: C_11  and  C_12 
REMARK    3  A    between atoms: C_21  and  N_22 
ROOT
HETATM    1  C   UNL     1      42.814 -13.053   4.587  1.00  0.00     0.071 A 
HETATM    2  N   UNL     1      43.796 -12.124   4.870  1.00  0.00    -0.274 N 
HETATM    3  H   UNL     1      44.397 -12.094   5.686  1.00  0.00     0.189 HD
HETATM    4  N   UNL     1      43.891 -11.123   3.975  1.00  0.00    -0.148 NA
HETATM    5  C   UNL     1      42.958 -11.451   3.094  1.00  0.00     0.199 A 
HETATM    6  C   UNL     1      42.286 -12.651   3.372  1.00  0.00     0.036 A 
HETATM    7  C   UNL     1      41.216 -13.148   2.446  1.00  0.00     0.079 C 
HETATM    8  C   UNL     1      40.741 -11.964   1.582  1.00  0.00     0.063 C 
HETATM    9  C   UNL     1      39.384 -12.120   0.916  1.00  0.00     0.020 C 
HETATM   10  N   UNL     1      38.258 -12.249   0.363  1.00  0.00    -0.096 N 
HETATM   11  C   UNL     1      41.451 -10.820   1.417  1.00  0.00     0.139 C 
HETATM   12  O   UNL     1      42.662 -10.608   2.086  1.00  0.00    -0.277 OA
ENDROOT
BRANCH   7  13
HETATM   13  C   UNL     1      41.645 -14.325   1.491  1.00  0.00     0.022 C 
HETATM   14  C   UNL     1      43.112 -14.693   1.549  1.00  0.00    -0.025 C 
HETATM   15  C   UNL     1      43.567 -15.924   1.819  1.00  0.00    -0.030 C 
HETATM   16  C   UNL     1      42.675 -17.089   2.118  1.00  0.00     0.027 C 
HETATM   17  C   UNL     1      41.250 -16.678   2.479  1.00  0.00     0.004 C 
HETATM   18  C   UNL     1      40.719 -15.562   1.590  1.00  0.00     0.010 C 
ENDBRANCH   7  13
BRANCH  11  19
HETATM   19  N   UNL     1      41.080  -9.756   0.625  1.00  0.00    -0.282 NA
HETATM   20  H   UNL     1      41.348  -8.836   0.963  1.00  0.00     0.126 HD
HETATM   21  H   UNL     1      41.328  -9.910  -0.351  1.00  0.00     0.126 HD
ENDBRANCH  11  19
BRANCH   1  22
HETATM   22  C   UNL     1      42.498 -14.135   5.511  1.00  0.00    -0.007 A 
HETATM   23  C   UNL     1      43.484 -14.668   6.349  1.00  0.00     0.014 A 
HETATM   24  C   UNL     1      43.179 -15.706   7.232  1.00  0.00     0.001 A 
HETATM   25  C   UNL     1      41.885 -16.220   7.284  1.00  0.00     0.000 A 
HETATM   26  C   UNL     1      40.896 -15.702   6.452  1.00  0.00     0.001 A 
HETATM   27  C   UNL     1      41.202 -14.665   5.566  1.00  0.00     0.014 A 
ENDBRANCH   1  22
TORSDOF 3
ENDMDL
MODEL 7
REMARK VINA RESULT:      -7.7      3.048      6.359
REMARK  3 active torsions:
REMARK  status: ('A' for Active; 'I' for Inactive)
REMARK    1  A    between atoms: C_4  and  C_5 
REMARK    2  A    between atoms: C_11  and  C_12 
REMARK    3  A    between atoms: C_21  and  N_22 
ROOT
HETATM    1  C   UNL     1      43.131 -14.789   5.983  1.00  0.00     0.071 A 
HETATM    2  N   UNL     1      43.101 -14.844   7.363  1.00  0.00    -0.274 N 
HETATM    3  H   UNL     1      43.133 -14.064   8.010  1.00  0.00     0.189 HD
HETATM    4  N   UNL     1      43.097 -16.091   7.871  1.00  0.00    -0.148 NA
HETATM    5  C   UNL     1      43.099 -16.835   6.774  1.00  0.00     0.199 A 
HETATM    6  C   UNL     1      43.070 -16.110   5.574  1.00  0.00     0.036 A 
HETATM    7  C   UNL     1      43.054 -16.830   4.259  1.00  0.00     0.079 C 
HETATM    8  C   UNL     1      43.547 -18.270   4.494  1.00  0.00     0.063 C 
HETATM    9  C   UNL     1      44.038 -19.021   3.267  1.00  0.00     0.020 C 
HETATM   10  N   UNL     1      44.445 -19.645   2.249  1.00  0.00    -0.096 N 
HETATM   11  C   UNL     1      43.580 -18.865   5.712  1.00  0.00     0.139 C 
HETATM   12  O   UNL     1      43.218 -18.173   6.874  1.00  0.00    -0.277 OA
ENDROOT
BRANCH   7  13
HETATM   13  C   UNL     1      41.653 -16.890   3.541  1.00  0.00     0.022 C 
HETATM   14  C   UNL     1      40.605 -15.955   4.105  1.00  0.00    -0.025 C 
HETATM   15  C   UNL     1      39.947 -15.040   3.379  1.00  0.00    -0.030 C 
HETATM   16  C   UNL     1      40.184 -14.816   1.918  1.00  0.00     0.027 C 
HETATM   17  C   UNL     1      41.492 -15.425   1.421  1.00  0.00     0.004 C 
HETATM   18  C   UNL     1      41.751 -16.810   1.998  1.00  0.00     0.010 C 
ENDBRANCH   7  13
BRANCH  11  19
HETATM   19  N   UNL     1      43.978 -20.161   5.959  1.00  0.00    -0.282 NA
HETATM   20  H   UNL     1      43.459 -20.656   6.679  1.00  0.00     0.126 HD
HETATM   21  H   UNL     1      44.072 -20.695   5.096  1.00  0.00     0.126 HD
ENDBRANCH  11  19
BRANCH   1  22
HETATM   22  C   UNL     1      43.258 -13.522   5.273  1.00  0.00    -0.007 A 
HETATM   23  C   UNL     1      43.458 -12.328   5.975  1.00  0.00     0.014 A 
HETATM   24  C   UNL     1      43.578 -11.116   5.293  1.00  0.00     0.001 A 
HETATM   25  C   UNL     1      43.495 -11.087   3.902  1.00  0.00     0.000 A 
HETATM   26  C   UNL     1      43.291 -12.267   3.192  1.00  0.00     0.001 A 
HETATM   27  C   UNL     1      43.170 -13.480   3.875  1.00  0.00     0.014 A 
ENDBRANCH   1  22
TORSDOF 3
ENDMDL
MODEL 8
REMARK VINA RESULT:      -7.3      3.252      4.864
REMARK  3 active torsions:
REMARK  status: ('A' for Active; 'I' for Inactive)
REMARK    1  A    between atoms: C_4  and  C_5 
REMARK    2  A    between atoms: C_11  and  C_12 
REMARK    3  A    between atoms: C_21  and  N_22 
ROOT
HETATM    1  C   UNL     1      40.349 -14.513   0.202  1.00  0.00     0.071 A 
HETATM    2  N   UNL     1      39.487 -15.231  -0.604  1.00  0.00    -0.274 N 
HETATM    3  H   UNL     1      39.276 -16.221  -0.548  1.00  0.00     0.189 HD
HETATM    4  N   UNL     1      38.937 -14.519  -1.606  1.00  0.00    -0.148 NA
HETATM    5  C   UNL     1      39.452 -13.315  -1.404  1.00  0.00     0.199 A 
HETATM    6  C   UNL     1      40.290 -13.217  -0.282  1.00  0.00     0.036 A 
HETATM    7  C   UNL     1      40.926 -11.906   0.070  1.00  0.00     0.079 C 
HETATM    8  C   UNL     1      40.889 -11.003  -1.178  1.00  0.00     0.063 C 
HETATM    9  C   UNL     1      41.860  -9.834  -1.190  1.00  0.00     0.020 C 
HETATM   10  N   UNL     1      42.665  -8.864  -1.202  1.00  0.00    -0.096 N 
HETATM   11  C   UNL     1      40.068 -11.216  -2.236  1.00  0.00     0.139 C 
HETATM   12  O   UNL     1      39.225 -12.332  -2.295  1.00  0.00    -0.277 OA
ENDROOT
BRANCH   7  13
HETATM   13  C   UNL     1      40.258 -11.134   1.269  1.00  0.00     0.022 C 
HETATM   14  C   UNL     1      38.904 -11.661   1.693  1.00  0.00    -0.025 C 
HETATM   15  C   UNL     1      38.610 -12.055   2.940  1.00  0.00    -0.030 C 
HETATM   16  C   UNL     1      39.595 -12.042   4.067  1.00  0.00     0.027 C 
HETATM   17  C   UNL     1      41.042 -11.924   3.599  1.00  0.00     0.004 C 
HETATM   18  C   UNL     1      41.213 -10.918   2.468  1.00  0.00     0.010 C 
ENDBRANCH   7  13
BRANCH  11  19
HETATM   19  N   UNL     1      39.977 -10.413  -3.352  1.00  0.00    -0.282 NA
HETATM   20  H   UNL     1      39.253  -9.700  -3.329  1.00  0.00     0.126 HD
HETATM   21  H   UNL     1      40.888 -10.048  -3.626  1.00  0.00     0.126 HD
ENDBRANCH  11  19
BRANCH   1  22
HETATM   22  C   UNL     1      41.119 -15.157   1.259  1.00  0.00    -0.007 A 
HETATM   23  C   UNL     1      42.503 -15.324   1.132  1.00  0.00     0.014 A 
HETATM   24  C   UNL     1      43.238 -15.942   2.146  1.00  0.00     0.001 A 
HETATM   25  C   UNL     1      42.594 -16.402   3.294  1.00  0.00     0.000 A 
HETATM   26  C   UNL     1      41.218 -16.246   3.429  1.00  0.00     0.001 A 
HETATM   27  C   UNL     1      40.481 -15.629   2.415  1.00  0.00     0.014 A 
ENDBRANCH   1  22
TORSDOF 3
ENDMDL
MODEL 9
REMARK VINA RESULT:      -7.3      3.132      6.079
REMARK  3 active torsions:
REMARK  status: ('A' for Active; 'I' for Inactive)
REMARK    1  A    between atoms: C_4  and  C_5 
REMARK    2  A    between atoms: C_11  and  C_12 
REMARK    3  A    between atoms: C_21  and  N_22 
ROOT
HETATM    1  C   UNL     1      43.069 -13.228   6.739  1.00  0.00     0.071 A 
HETATM    2  N   UNL     1      42.876 -14.335   7.542  1.00  0.00    -0.274 N 
HETATM    3  H   UNL     1      43.368 -14.567   8.398  1.00  0.00     0.189 HD
HETATM    4  N   UNL     1      41.976 -15.217   7.068  1.00  0.00    -0.148 NA
HETATM    5  C   UNL     1      41.577 -14.629   5.949  1.00  0.00     0.199 A 
HETATM    6  C   UNL     1      42.165 -13.380   5.702  1.00  0.00     0.036 A 
HETATM    7  C   UNL     1      41.791 -12.600   4.477  1.00  0.00     0.079 C 
HETATM    8  C   UNL     1      41.146 -13.570   3.469  1.00  0.00     0.063 C 
HETATM    9  C   UNL     1      41.111 -13.109   2.021  1.00  0.00     0.020 C 
HETATM   10  N   UNL     1      41.081 -12.726   0.819  1.00  0.00    -0.096 N 
HETATM   11  C   UNL     1      40.648 -14.786   3.806  1.00  0.00     0.139 C 
HETATM   12  O   UNL     1      40.744 -15.278   5.113  1.00  0.00    -0.277 OA
ENDROOT
BRANCH   7  13
HETATM   13  C   UNL     1      40.801 -11.399   4.720  1.00  0.00     0.022 C 
HETATM   14  C   UNL     1      39.839 -11.587   5.873  1.00  0.00    -0.025 C 
HETATM   15  C   UNL     1      39.724 -10.734   6.901  1.00  0.00    -0.030 C 
HETATM   16  C   UNL     1      40.553  -9.496   7.046  1.00  0.00     0.027 C 
HETATM   17  C   UNL     1      41.791  -9.493   6.154  1.00  0.00     0.004 C 
HETATM   18  C   UNL     1      41.507 -10.021   4.754  1.00  0.00     0.010 C 
ENDBRANCH   7  13
BRANCH  11  19
HETATM   19  N   UNL     1      40.032 -15.665   2.943  1.00  0.00    -0.282 NA
HETATM   20  H   UNL     1      40.513 -15.838   2.066  1.00  0.00     0.126 HD
HETATM   21  H   UNL     1      39.749 -16.521   3.419  1.00  0.00     0.126 HD
ENDBRANCH  11  19
BRANCH   1  22
HETATM   22  C   UNL     1      44.092 -12.235   7.043  1.00  0.00    -0.007 A 
HETATM   23  C   UNL     1      44.011 -11.460   8.206  1.00  0.00     0.014 A 
HETATM   24  C   UNL     1      44.991 -10.508   8.494  1.00  0.00     0.001 A 
HETATM   25  C   UNL     1      46.060 -10.321   7.619  1.00  0.00     0.000 A 
HETATM   26  C   UNL     1      46.149 -11.081   6.457  1.00  0.00     0.001 A 
HETATM   27  C   UNL     1      45.168 -12.032   6.167  1.00  0.00     0.014 A 
ENDBRANCH   1  22
TORSDOF 3
ENDMDL
MODEL 10
REMARK VINA RESULT:      -7.1     14.686     16.978
REMARK  3 active torsions:
REMARK  status: ('A' for Active; 'I' for Inactive)
REMARK    1  A    between atoms: C_4  and  C_5 
REMARK    2  A    between atoms: C_11  and  C_12 
REMARK    3  A    between atoms: C_21  and  N_22 
ROOT
HETATM    1  C   UNL     1      44.673 -30.032   2.442  1.00  0.00     0.071 A 
HETATM    2  N   UNL     1      43.595 -29.707   3.243  1.00  0.00    -0.274 N 
HETATM    3  H   UNL     1      43.604 -29.142   4.084  1.00  0.00     0.189 HD
HETATM    4  N   UNL     1      42.434 -30.277   2.872  1.00  0.00    -0.148 NA
HETATM    5  C   UNL     1      42.792 -30.958   1.793  1.00  0.00     0.199 A 
HETATM    6  C   UNL     1      44.142 -30.819   1.434  1.00  0.00     0.036 A 
HETATM    7  C   UNL     1      44.676 -31.524   0.223  1.00  0.00     0.079 C 
HETATM    8  C   UNL     1      43.703 -32.662  -0.137  1.00  0.00     0.063 C 
HETATM    9  C   UNL     1      44.260 -33.766  -1.022  1.00  0.00     0.020 C 
HETATM   10  N   UNL     1      44.721 -34.682  -1.756  1.00  0.00    -0.096 N 
HETATM   11  C   UNL     1      42.423 -32.727   0.305  1.00  0.00     0.139 C 
HETATM   12  O   UNL     1      41.907 -31.775   1.191  1.00  0.00    -0.277 OA
ENDROOT
BRANCH   7  13
HETATM   13  C   UNL     1      44.881 -30.617  -1.048  1.00  0.00     0.022 C 
HETATM   14  C   UNL     1      44.341 -29.208  -0.922  1.00  0.00    -0.025 C 
HETATM   15  C   UNL     1      45.078 -28.104  -1.107  1.00  0.00    -0.030 C 
HETATM   16  C   UNL     1      46.537 -28.127  -1.441  1.00  0.00     0.027 C 
HETATM   17  C   UNL     1      47.195 -29.476  -1.166  1.00  0.00     0.004 C 
HETATM   18  C   UNL     1      46.328 -30.651  -1.598  1.00  0.00     0.010 C 
ENDBRANCH   7  13
BRANCH  11  19
HETATM   19  N   UNL     1      41.512 -33.707  -0.024  1.00  0.00    -0.282 NA
HETATM   20  H   UNL     1      41.883 -34.510  -0.521  1.00  0.00     0.126 HD
HETATM   21  H   UNL     1      40.933 -33.964   0.774  1.00  0.00     0.126 HD
ENDBRANCH  11  19
BRANCH   1  22
HETATM   22  C   UNL     1      46.025 -29.597   2.770  1.00  0.00    -0.007 A 
HETATM   23  C   UNL     1      46.602 -28.505   2.113  1.00  0.00     0.014 A 
HETATM   24  C   UNL     1      47.898 -28.091   2.428  1.00  0.00     0.001 A 
HETATM   25  C   UNL     1      48.630 -28.769   3.401  1.00  0.00     0.000 A 
HETATM   26  C   UNL     1      48.069 -29.861   4.058  1.00  0.00     0.001 A 
HETATM   27  C   UNL     1      46.773 -30.276   3.742  1.00  0.00     0.014 A 
ENDBRANCH   1  22
TORSDOF 3
ENDMDL
