MODEL 1
REMARK VINA RESULT:     -10.0      0.000      0.000
REMARK  6 active torsions:
REMARK  status: ('A' for Active; 'I' for Inactive)
REMARK    1  A    between atoms: C_2  and  N_3 
REMARK    2  A    between atoms: C_11  and  C_12 
REMARK    3  A    between atoms: C_14  and  C_15 
REMARK    4  A    between atoms: C_15  and  O_16 
REMARK    5  A    between atoms: O_16  and  C_17 
REMARK    6  A    between atoms: C_19  and  C_20 
ROOT
HETATM    1  N   UNL     1      43.522 -18.924   3.493  1.00  0.00    -0.067 N 
HETATM    2  H   UNL     1      42.505 -18.936   3.643  1.00  0.00     0.280 HD
HETATM    3  C   UNL     1      44.145 -18.652   4.862  1.00  0.00     0.281 C 
HETATM    4  C   UNL     1      43.819 -17.269   5.311  1.00  0.00     0.018 A 
HETATM    5  C   UNL     1      43.373 -16.250   4.491  1.00  0.00    -0.023 A 
HETATM    6  C   UNL     1      43.107 -15.060   5.243  1.00  0.00     0.073 A 
HETATM    7  C   UNL     1      43.355 -15.237   6.583  1.00  0.00     0.088 A 
HETATM    8  N   UNL     1      43.117 -14.292   7.513  1.00  0.00    -0.357 N 
HETATM    9  C   UNL     1      42.911 -12.916   7.104  1.00  0.00     0.243 C 
HETATM   10  N   UNL     1      42.395 -12.844   5.758  1.00  0.00    -0.330 N 
HETATM   11  C   UNL     1      42.590 -13.784   4.788  1.00  0.00     0.256 C 
HETATM   12  O   UNL     1      42.316 -13.563   3.613  1.00  0.00    -0.267 OA
HETATM   13  S   UNL     1      43.955 -16.788   6.938  1.00  0.00    -0.074 SA
HETATM   14  C   UNL     1      43.153 -16.462   3.023  1.00  0.00     0.068 C 
HETATM   15  C   UNL     1      43.805 -17.767   2.529  1.00  0.00     0.240 C 
HETATM   16  H   UNL     1      43.546 -14.378   8.432  1.00  0.00     0.162 HD
HETATM   17  H   UNL     1      42.064 -11.949   5.430  1.00  0.00     0.165 HD
ENDROOT
BRANCH   9  18
HETATM   18  C   UNL     1      44.113 -12.040   7.251  1.00  0.00     0.095 A 
HETATM   19  O   UNL     1      44.127 -11.246   8.367  1.00  0.00    -0.313 OA
HETATM   20  C   UNL     1      45.280 -10.521   8.341  1.00  0.00     0.077 A 
HETATM   21  C   UNL     1      46.009 -10.840   7.215  1.00  0.00     0.037 A 
HETATM   22  C   UNL     1      45.262 -11.820   6.516  1.00  0.00     0.039 A 
BRANCH  20  23
HETATM   23  C   UNL     1      45.504  -9.580   9.472  1.00  0.00     0.240 C 
BRANCH  23  24
HETATM   24  O   UNL     1      44.562  -9.938  10.482  1.00  0.00    -0.345 OA
BRANCH  24  25
HETATM   25  C   UNL     1      43.843  -8.925  11.054  1.00  0.00     0.070 A 
HETATM   26  C   UNL     1      43.495  -8.818  12.402  1.00  0.00     0.052 A 
HETATM   27  C   UNL     1      42.749  -7.717  12.865  1.00  0.00     0.050 A 
HETATM   28  C   UNL     1      42.356  -6.725  11.952  1.00  0.00     0.016 A 
HETATM   29  C   UNL     1      42.700  -6.831  10.607  1.00  0.00     0.004 A 
HETATM   30  C   UNL     1      43.440  -7.927  10.164  1.00  0.00     0.037 A 
BRANCH  27  31
HETATM   31  C   UNL     1      42.369  -7.587  14.320  1.00  0.00     0.417 C 
HETATM   32  F   UNL     1      43.311  -6.950  15.070  1.00  0.00    -0.166 F 
HETATM   33  F   UNL     1      41.216  -6.886  14.496  1.00  0.00    -0.166 F 
HETATM   34  F   UNL     1      42.171  -8.795  14.916  1.00  0.00    -0.166 F 
ENDBRANCH  27  31
ENDBRANCH  24  25
ENDBRANCH  23  24
ENDBRANCH  20  23
ENDBRANCH   9  18
BRANCH   1  35
HETATM   35  C   UNL     1      43.923 -20.253   2.903  1.00  0.00     0.231 C 
HETATM   36  C   UNL     1      43.307 -20.450   1.531  1.00  0.00     0.034 C 
ENDBRANCH   1  35
TORSDOF 6
ENDMDL
MODEL 2
REMARK VINA RESULT:      -9.6      5.813     10.929
REMARK  6 active torsions:
REMARK  status: ('A' for Active; 'I' for Inactive)
REMARK    1  A    between atoms: C_2  and  N_3 
REMARK    2  A    between atoms: C_11  and  C_12 
REMARK    3  A    between atoms: C_14  and  C_15 
REMARK    4  A    between atoms: C_15  and  O_16 
REMARK    5  A    between atoms: O_16  and  C_17 
REMARK    6  A    between atoms: C_19  and  C_20 
ROOT
HETATM    1  N   UNL     1      39.945  -7.278  12.711  1.00  0.00    -0.067 N 
HETATM    2  H   UNL     1      40.663  -6.669  13.125  1.00  0.00     0.280 HD
HETATM    3  C   UNL     1      40.504  -8.698  12.787  1.00  0.00     0.281 C 
HETATM    4  C   UNL     1      41.678  -8.839  11.881  1.00  0.00     0.018 A 
HETATM    5  C   UNL     1      41.991  -7.981  10.843  1.00  0.00    -0.023 A 
HETATM    6  C   UNL     1      43.209  -8.371  10.198  1.00  0.00     0.073 A 
HETATM    7  C   UNL     1      43.756  -9.491  10.777  1.00  0.00     0.088 A 
HETATM    8  N   UNL     1      44.937 -10.019  10.400  1.00  0.00    -0.357 N 
HETATM    9  C   UNL     1      45.525  -9.635   9.132  1.00  0.00     0.243 C 
HETATM   10  N   UNL     1      45.088  -8.319   8.733  1.00  0.00    -0.330 N 
HETATM   11  C   UNL     1      43.913  -7.732   9.104  1.00  0.00     0.256 C 
HETATM   12  O   UNL     1      43.502  -6.713   8.559  1.00  0.00    -0.267 OA
HETATM   13  S   UNL     1      42.801 -10.108  12.041  1.00  0.00    -0.074 SA
HETATM   14  C   UNL     1      41.152  -6.775  10.541  1.00  0.00     0.068 C 
HETATM   15  C   UNL     1      39.788  -6.834  11.252  1.00  0.00     0.240 C 
HETATM   16  H   UNL     1      45.168 -10.971  10.678  1.00  0.00     0.162 HD
HETATM   17  H   UNL     1      45.557  -7.886   7.951  1.00  0.00     0.165 HD
ENDROOT
BRANCH   9  18
HETATM   18  C   UNL     1      45.308 -10.616   8.025  1.00  0.00     0.095 A 
HETATM   19  O   UNL     1      44.355 -11.569   8.267  1.00  0.00    -0.313 OA
HETATM   20  C   UNL     1      44.289 -12.372   7.167  1.00  0.00     0.077 A 
HETATM   21  C   UNL     1      45.195 -11.944   6.219  1.00  0.00     0.037 A 
HETATM   22  C   UNL     1      45.846 -10.812   6.767  1.00  0.00     0.039 A 
BRANCH  20  23
HETATM   23  C   UNL     1      43.308 -13.490   7.213  1.00  0.00     0.240 C 
BRANCH  23  24
HETATM   24  O   UNL     1      42.999 -13.807   5.857  1.00  0.00    -0.345 OA
BRANCH  24  25
HETATM   25  C   UNL     1      43.269 -15.079   5.435  1.00  0.00     0.070 A 
HETATM   26  C   UNL     1      43.041 -15.591   4.156  1.00  0.00     0.052 A 
HETATM   27  C   UNL     1      43.368 -16.926   3.850  1.00  0.00     0.050 A 
HETATM   28  C   UNL     1      43.924 -17.741   4.848  1.00  0.00     0.016 A 
HETATM   29  C   UNL     1      44.150 -17.233   6.125  1.00  0.00     0.004 A 
HETATM   30  C   UNL     1      43.823 -15.908   6.413  1.00  0.00     0.037 A 
BRANCH  27  31
HETATM   31  C   UNL     1      43.129 -17.491   2.471  1.00  0.00     0.417 C 
HETATM   32  F   UNL     1      41.826 -17.815   2.237  1.00  0.00    -0.166 F 
HETATM   33  F   UNL     1      43.479 -16.621   1.484  1.00  0.00    -0.166 F 
HETATM   34  F   UNL     1      43.843 -18.628   2.242  1.00  0.00    -0.166 F 
ENDBRANCH  27  31
ENDBRANCH  24  25
ENDBRANCH  23  24
ENDBRANCH  20  23
ENDBRANCH   9  18
BRANCH   1  35
HETATM   35  C   UNL     1      38.668  -7.092  13.492  1.00  0.00     0.231 C 
HETATM   36  C   UNL     1      37.571  -6.513  12.618  1.00  0.00     0.034 C 
ENDBRANCH   1  35
TORSDOF 6
ENDMDL
MODEL 3
REMARK VINA RESULT:      -9.4      2.355      3.102
REMARK  6 active torsions:
REMARK  status: ('A' for Active; 'I' for Inactive)
REMARK    1  A    between atoms: C_2  and  N_3 
REMARK    2  A    between atoms: C_11  and  C_12 
REMARK    3  A    between atoms: C_14  and  C_15 
REMARK    4  A    between atoms: C_15  and  O_16 
REMARK    5  A    between atoms: O_16  and  C_17 
REMARK    6  A    between atoms: C_19  and  C_20 
ROOT
HETATM    1  N   UNL     1      43.279 -18.333   3.383  1.00  0.00    -0.067 N 
HETATM    2  H   UNL     1      42.407 -18.748   3.738  1.00  0.00     0.280 HD
HETATM    3  C   UNL     1      43.838 -17.488   4.528  1.00  0.00     0.281 C 
HETATM    4  C   UNL     1      42.948 -16.321   4.789  1.00  0.00     0.018 A 
HETATM    5  C   UNL     1      41.996 -15.834   3.913  1.00  0.00    -0.023 A 
HETATM    6  C   UNL     1      41.280 -14.733   4.486  1.00  0.00     0.073 A 
HETATM    7  C   UNL     1      41.718 -14.448   5.757  1.00  0.00     0.088 A 
HETATM    8  N   UNL     1      41.161 -13.503   6.539  1.00  0.00    -0.357 N 
HETATM    9  C   UNL     1      40.293 -12.501   5.949  1.00  0.00     0.243 C 
HETATM   10  N   UNL     1      39.670 -12.996   4.745  1.00  0.00    -0.330 N 
HETATM   11  C   UNL     1      40.182 -13.966   3.933  1.00  0.00     0.256 C 
HETATM   12  O   UNL     1      39.718 -14.183   2.819  1.00  0.00    -0.267 OA
HETATM   13  S   UNL     1      43.008 -15.442   6.245  1.00  0.00    -0.074 SA
HETATM   14  C   UNL     1      41.753 -16.477   2.581  1.00  0.00     0.068 C 
HETATM   15  C   UNL     1      42.886 -17.446   2.196  1.00  0.00     0.240 C 
HETATM   16  H   UNL     1      41.671 -13.163   7.351  1.00  0.00     0.162 HD
HETATM   17  H   UNL     1      38.926 -12.446   4.342  1.00  0.00     0.165 HD
ENDROOT
BRANCH   9  18
HETATM   18  C   UNL     1      40.951 -11.184   5.693  1.00  0.00     0.095 A 
HETATM   19  O   UNL     1      40.867 -10.278   6.717  1.00  0.00    -0.313 OA
HETATM   20  C   UNL     1      41.512  -9.145   6.318  1.00  0.00     0.077 A 
HETATM   21  C   UNL     1      42.009  -9.314   5.042  1.00  0.00     0.037 A 
HETATM   22  C   UNL     1      41.654 -10.626   4.642  1.00  0.00     0.039 A 
BRANCH  20  23
HETATM   23  C   UNL     1      41.542  -8.017   7.287  1.00  0.00     0.240 C 
BRANCH  23  24
HETATM   24  O   UNL     1      42.920  -7.738   7.533  1.00  0.00    -0.345 OA
BRANCH  24  25
HETATM   25  C   UNL     1      43.520  -8.410   8.561  1.00  0.00     0.070 A 
HETATM   26  C   UNL     1      42.903  -8.847   9.735  1.00  0.00     0.052 A 
HETATM   27  C   UNL     1      43.639  -9.534  10.719  1.00  0.00     0.050 A 
HETATM   28  C   UNL     1      45.006  -9.774  10.508  1.00  0.00     0.016 A 
HETATM   29  C   UNL     1      45.624  -9.338   9.338  1.00  0.00     0.004 A 
HETATM   30  C   UNL     1      44.881  -8.660   8.372  1.00  0.00     0.037 A 
BRANCH  27  31
HETATM   31  C   UNL     1      42.984 -10.013  11.992  1.00  0.00     0.417 C 
HETATM   32  F   UNL     1      41.648 -10.246  11.857  1.00  0.00    -0.166 F 
HETATM   33  F   UNL     1      43.521 -11.179  12.447  1.00  0.00    -0.166 F 
HETATM   34  F   UNL     1      43.107  -9.119  13.010  1.00  0.00    -0.166 F 
ENDBRANCH  27  31
ENDBRANCH  24  25
ENDBRANCH  23  24
ENDBRANCH  20  23
ENDBRANCH   9  18
BRANCH   1  35
HETATM   35  C   UNL     1      44.193 -19.456   2.963  1.00  0.00     0.231 C 
HETATM   36  C   UNL     1      43.542 -20.324   1.903  1.00  0.00     0.034 C 
ENDBRANCH   1  35
TORSDOF 6
ENDMDL
MODEL 4
REMARK VINA RESULT:      -9.2      4.487      9.717
REMARK  6 active torsions:
REMARK  status: ('A' for Active; 'I' for Inactive)
REMARK    1  A    between atoms: C_2  and  N_3 
REMARK    2  A    between atoms: C_11  and  C_12 
REMARK    3  A    between atoms: C_14  and  C_15 
REMARK    4  A    between atoms: C_15  and  O_16 
REMARK    5  A    between atoms: O_16  and  C_17 
REMARK    6  A    between atoms: C_19  and  C_20 
ROOT
HETATM    1  N   UNL     1      43.503  -9.262   9.763  1.00  0.00    -0.067 N 
HETATM    2  H   UNL     1      44.072  -8.527   9.320  1.00  0.00     0.280 HD
HETATM    3  C   UNL     1      43.974 -10.582   9.153  1.00  0.00     0.281 C 
HETATM    4  C   UNL     1      43.605 -10.645   7.711  1.00  0.00     0.018 A 
HETATM    5  C   UNL     1      42.657  -9.848   7.096  1.00  0.00    -0.023 A 
HETATM    6  C   UNL     1      42.576 -10.128   5.694  1.00  0.00     0.073 A 
HETATM    7  C   UNL     1      43.464 -11.108   5.318  1.00  0.00     0.088 A 
HETATM    8  N   UNL     1      43.634 -11.505   4.042  1.00  0.00    -0.357 N 
HETATM    9  C   UNL     1      42.641 -11.160   3.042  1.00  0.00     0.243 C 
HETATM   10  N   UNL     1      41.934  -9.956   3.405  1.00  0.00    -0.330 N 
HETATM   11  C   UNL     1      41.753  -9.501   4.679  1.00  0.00     0.256 C 
HETATM   12  O   UNL     1      40.962  -8.599   4.934  1.00  0.00    -0.267 OA
HETATM   13  S   UNL     1      44.346 -11.732   6.631  1.00  0.00    -0.074 SA
HETATM   14  C   UNL     1      41.902  -8.798   7.855  1.00  0.00     0.068 C 
HETATM   15  C   UNL     1      42.048  -8.976   9.378  1.00  0.00     0.240 C 
HETATM   16  H   UNL     1      44.104 -12.388   3.853  1.00  0.00     0.162 HD
HETATM   17  H   UNL     1      41.335  -9.536   2.709  1.00  0.00     0.165 HD
ENDROOT
BRANCH   9  18
HETATM   18  C   UNL     1      41.677 -12.257   2.723  1.00  0.00     0.095 A 
HETATM   19  O   UNL     1      42.224 -13.364   2.131  1.00  0.00    -0.313 OA
HETATM   20  C   UNL     1      41.215 -14.253   1.911  1.00  0.00     0.077 A 
HETATM   21  C   UNL     1      40.020 -13.726   2.355  1.00  0.00     0.037 A 
HETATM   22  C   UNL     1      40.317 -12.445   2.882  1.00  0.00     0.039 A 
BRANCH  20  23
HETATM   23  C   UNL     1      41.588 -15.542   1.266  1.00  0.00     0.240 C 
BRANCH  23  24
HETATM   24  O   UNL     1      41.283 -16.565   2.212  1.00  0.00    -0.345 OA
BRANCH  24  25
HETATM   25  C   UNL     1      42.298 -16.990   3.023  1.00  0.00     0.070 A 
HETATM   26  C   UNL     1      42.655 -16.442   4.257  1.00  0.00     0.052 A 
HETATM   27  C   UNL     1      43.726 -16.978   4.997  1.00  0.00     0.050 A 
HETATM   28  C   UNL     1      44.437 -18.071   4.477  1.00  0.00     0.016 A 
HETATM   29  C   UNL     1      44.085 -18.618   3.246  1.00  0.00     0.004 A 
HETATM   30  C   UNL     1      43.020 -18.077   2.526  1.00  0.00     0.037 A 
BRANCH  27  31
HETATM   31  C   UNL     1      44.120 -16.397   6.333  1.00  0.00     0.417 C 
HETATM   32  F   UNL     1      45.469 -16.308   6.508  1.00  0.00    -0.166 F 
HETATM   33  F   UNL     1      43.638 -15.137   6.515  1.00  0.00    -0.166 F 
HETATM   34  F   UNL     1      43.656 -17.133   7.379  1.00  0.00    -0.166 F 
ENDBRANCH  27  31
ENDBRANCH  24  25
ENDBRANCH  23  24
ENDBRANCH  20  23
ENDBRANCH   9  18
BRANCH   1  35
HETATM   35  C   UNL     1      43.714  -9.179  11.254  1.00  0.00     0.231 C 
HETATM   36  C   UNL     1      43.311 -10.473  11.936  1.00  0.00     0.034 C 
ENDBRANCH   1  35
TORSDOF 6
ENDMDL
MODEL 5
REMARK VINA RESULT:      -9.0      2.782      3.690
REMARK  6 active torsions:
REMARK  status: ('A' for Active; 'I' for Inactive)
REMARK    1  A    between atoms: C_2  and  N_3 
REMARK    2  A    between atoms: C_11  and  C_12 
REMARK    3  A    between atoms: C_14  and  C_15 
REMARK    4  A    between atoms: C_15  and  O_16 
REMARK    5  A    between atoms: O_16  and  C_17 
REMARK    6  A    between atoms: C_19  and  C_20 
ROOT
HETATM    1  N   UNL     1      39.541 -14.093   0.261  1.00  0.00    -0.067 N 
HETATM    2  H   UNL     1      38.913 -14.682   0.822  1.00  0.00     0.280 HD
HETATM    3  C   UNL     1      40.959 -14.570   0.576  1.00  0.00     0.281 C 
HETATM    4  C   UNL     1      41.308 -14.249   1.989  1.00  0.00     0.018 A 
HETATM    5  C   UNL     1      40.649 -13.329   2.783  1.00  0.00    -0.023 A 
HETATM    6  C   UNL     1      41.205 -13.292   4.103  1.00  0.00     0.073 A 
HETATM    7  C   UNL     1      42.243 -14.182   4.243  1.00  0.00     0.088 A 
HETATM    8  N   UNL     1      42.889 -14.390   5.407  1.00  0.00    -0.357 N 
HETATM    9  C   UNL     1      42.748 -13.434   6.489  1.00  0.00     0.243 C 
HETATM   10  N   UNL     1      41.494 -12.727   6.400  1.00  0.00    -0.330 N 
HETATM   11  C   UNL     1      40.791 -12.509   5.250  1.00  0.00     0.256 C 
HETATM   12  O   UNL     1      39.854 -11.719   5.208  1.00  0.00    -0.267 OA
HETATM   13  S   UNL     1      42.593 -15.014   2.802  1.00  0.00    -0.074 SA
HETATM   14  C   UNL     1      39.466 -12.560   2.276  1.00  0.00     0.068 C 
HETATM   15  C   UNL     1      39.334 -12.653   0.745  1.00  0.00     0.240 C 
HETATM   16  H   UNL     1      43.793 -14.857   5.398  1.00  0.00     0.162 HD
HETATM   17  H   UNL     1      41.220 -12.157   7.186  1.00  0.00     0.165 HD
ENDROOT
BRANCH   9  18
HETATM   18  C   UNL     1      43.884 -12.470   6.615  1.00  0.00     0.095 A 
HETATM   19  O   UNL     1      44.054 -11.925   7.859  1.00  0.00    -0.313 OA
HETATM   20  C   UNL     1      45.120 -11.078   7.794  1.00  0.00     0.077 A 
HETATM   21  C   UNL     1      45.637 -11.072   6.515  1.00  0.00     0.037 A 
HETATM   22  C   UNL     1      44.847 -11.971   5.758  1.00  0.00     0.039 A 
BRANCH  20  23
HETATM   23  C   UNL     1      45.487 -10.367   9.049  1.00  0.00     0.240 C 
BRANCH  23  24
HETATM   24  O   UNL     1      44.421 -10.602   9.968  1.00  0.00    -0.345 OA
BRANCH  24  25
HETATM   25  C   UNL     1      43.852  -9.508  10.559  1.00  0.00     0.070 A 
HETATM   26  C   UNL     1      43.487  -9.390  11.901  1.00  0.00     0.052 A 
HETATM   27  C   UNL     1      42.908  -8.201  12.385  1.00  0.00     0.050 A 
HETATM   28  C   UNL     1      42.698  -7.133  11.499  1.00  0.00     0.016 A 
HETATM   29  C   UNL     1      43.060  -7.249  10.159  1.00  0.00     0.004 A 
HETATM   30  C   UNL     1      43.633  -8.432   9.695  1.00  0.00     0.037 A 
BRANCH  27  31
HETATM   31  C   UNL     1      42.512  -8.060  13.834  1.00  0.00     0.417 C 
HETATM   32  F   UNL     1      41.284  -7.493  14.006  1.00  0.00    -0.166 F 
HETATM   33  F   UNL     1      42.463  -9.257  14.480  1.00  0.00    -0.166 F 
HETATM   34  F   UNL     1      43.382  -7.286  14.540  1.00  0.00    -0.166 F 
ENDBRANCH  27  31
ENDBRANCH  24  25
ENDBRANCH  23  24
ENDBRANCH  20  23
ENDBRANCH   9  18
BRANCH   1  35
HETATM   35  C   UNL     1      39.162 -14.254  -1.189  1.00  0.00     0.231 C 
HETATM   36  C   UNL     1      40.233 -13.688  -2.102  1.00  0.00     0.034 C 
ENDBRANCH   1  35
TORSDOF 6
ENDMDL
MODEL 6
REMARK VINA RESULT:      -8.9      3.136      3.763
REMARK  6 active torsions:
REMARK  status: ('A' for Active; 'I' for Inactive)
REMARK    1  A    between atoms: C_2  and  N_3 
REMARK    2  A    between atoms: C_11  and  C_12 
REMARK    3  A    between atoms: C_14  and  C_15 
REMARK    4  A    between atoms: C_15  and  O_16 
REMARK    5  A    between atoms: O_16  and  C_17 
REMARK    6  A    between atoms: C_19  and  C_20 
ROOT
HETATM    1  N   UNL     1      43.159 -18.096   3.164  1.00  0.00    -0.067 N 
HETATM    2  H   UNL     1      42.225 -18.523   3.217  1.00  0.00     0.280 HD
HETATM    3  C   UNL     1      43.406 -17.455   4.529  1.00  0.00     0.281 C 
HETATM    4  C   UNL     1      42.482 -16.304   4.733  1.00  0.00     0.018 A 
HETATM    5  C   UNL     1      41.786 -15.653   3.731  1.00  0.00    -0.023 A 
HETATM    6  C   UNL     1      40.950 -14.622   4.267  1.00  0.00     0.073 A 
HETATM    7  C   UNL     1      41.047 -14.547   5.636  1.00  0.00     0.088 A 
HETATM    8  N   UNL     1      40.309 -13.707   6.387  1.00  0.00    -0.357 N 
HETATM    9  C   UNL     1      39.623 -12.593   5.759  1.00  0.00     0.243 C 
HETATM   10  N   UNL     1      39.329 -12.877   4.375  1.00  0.00    -0.330 N 
HETATM   11  C   UNL     1      40.032 -13.735   3.579  1.00  0.00     0.256 C 
HETATM   12  O   UNL     1      39.869 -13.765   2.364  1.00  0.00    -0.267 OA
HETATM   13  S   UNL     1      42.167 -15.656   6.275  1.00  0.00    -0.074 SA
HETATM   14  C   UNL     1      41.893 -16.080   2.297  1.00  0.00     0.068 C 
HETATM   15  C   UNL     1      43.085 -17.027   2.068  1.00  0.00     0.240 C 
HETATM   16  H   UNL     1      40.595 -13.513   7.345  1.00  0.00     0.162 HD
HETATM   17  H   UNL     1      38.715 -12.243   3.887  1.00  0.00     0.165 HD
ENDROOT
BRANCH   9  18
HETATM   18  C   UNL     1      40.328 -11.281   5.886  1.00  0.00     0.095 A 
HETATM   19  O   UNL     1      39.940 -10.508   6.947  1.00  0.00    -0.313 OA
HETATM   20  C   UNL     1      40.674  -9.360   6.910  1.00  0.00     0.077 A 
HETATM   21  C   UNL     1      41.531  -9.387   5.830  1.00  0.00     0.037 A 
HETATM   22  C   UNL     1      41.313 -10.624   5.174  1.00  0.00     0.039 A 
BRANCH  20  23
HETATM   23  C   UNL     1      40.412  -8.364   7.984  1.00  0.00     0.240 C 
BRANCH  23  24
HETATM   24  O   UNL     1      40.407  -9.090   9.211  1.00  0.00    -0.345 OA
BRANCH  24  25
HETATM   25  C   UNL     1      41.582  -9.149   9.909  1.00  0.00     0.070 A 
HETATM   26  C   UNL     1      42.863  -9.239   9.363  1.00  0.00     0.052 A 
HETATM   27  C   UNL     1      43.996  -9.290  10.198  1.00  0.00     0.050 A 
HETATM   28  C   UNL     1      43.822  -9.252  11.590  1.00  0.00     0.016 A 
HETATM   29  C   UNL     1      42.545  -9.164  12.137  1.00  0.00     0.004 A 
HETATM   30  C   UNL     1      41.433  -9.113  11.297  1.00  0.00     0.037 A 
BRANCH  27  31
HETATM   31  C   UNL     1      45.387  -9.385   9.620  1.00  0.00     0.417 C 
HETATM   32  F   UNL     1      45.629 -10.565   8.982  1.00  0.00    -0.166 F 
HETATM   33  F   UNL     1      45.639  -8.409   8.705  1.00  0.00    -0.166 F 
HETATM   34  F   UNL     1      46.355  -9.270  10.570  1.00  0.00    -0.166 F 
ENDBRANCH  27  31
ENDBRANCH  24  25
ENDBRANCH  23  24
ENDBRANCH  20  23
ENDBRANCH   9  18
BRANCH   1  35
HETATM   35  C   UNL     1      44.148 -19.180   2.821  1.00  0.00     0.231 C 
HETATM   36  C   UNL     1      43.493 -20.283   2.010  1.00  0.00     0.034 C 
ENDBRANCH   1  35
TORSDOF 6
ENDMDL
MODEL 7
REMARK VINA RESULT:      -8.9      3.651      4.693
REMARK  6 active torsions:
REMARK  status: ('A' for Active; 'I' for Inactive)
REMARK    1  A    between atoms: C_2  and  N_3 
REMARK    2  A    between atoms: C_11  and  C_12 
REMARK    3  A    between atoms: C_14  and  C_15 
REMARK    4  A    between atoms: C_15  and  O_16 
REMARK    5  A    between atoms: O_16  and  C_17 
REMARK    6  A    between atoms: C_19  and  C_20 
ROOT
HETATM    1  N   UNL     1      38.966 -13.722  -1.006  1.00  0.00    -0.067 N 
HETATM    2  H   UNL     1      38.023 -13.862  -0.619  1.00  0.00     0.280 HD
HETATM    3  C   UNL     1      39.828 -14.844  -0.428  1.00  0.00     0.281 C 
HETATM    4  C   UNL     1      39.998 -14.659   1.041  1.00  0.00     0.018 A 
HETATM    5  C   UNL     1      39.768 -13.482   1.727  1.00  0.00    -0.023 A 
HETATM    6  C   UNL     1      39.979 -13.654   3.134  1.00  0.00     0.073 A 
HETATM    7  C   UNL     1      40.348 -14.941   3.440  1.00  0.00     0.088 A 
HETATM    8  N   UNL     1      40.538 -15.379   4.700  1.00  0.00    -0.357 N 
HETATM    9  C   UNL     1      40.699 -14.421   5.778  1.00  0.00     0.243 C 
HETATM   10  N   UNL     1      40.044 -13.173   5.467  1.00  0.00    -0.330 N 
HETATM   11  C   UNL     1      39.810 -12.697   4.210  1.00  0.00     0.256 C 
HETATM   12  O   UNL     1      39.452 -11.540   4.016  1.00  0.00    -0.267 OA
HETATM   13  S   UNL     1      40.499 -15.925   2.062  1.00  0.00    -0.074 SA
HETATM   14  C   UNL     1      39.289 -12.245   1.027  1.00  0.00     0.068 C 
HETATM   15  C   UNL     1      39.444 -12.356  -0.501  1.00  0.00     0.240 C 
HETATM   16  H   UNL     1      41.047 -16.246   4.855  1.00  0.00     0.162 HD
HETATM   17  H   UNL     1      39.954 -12.494   6.208  1.00  0.00     0.165 HD
ENDROOT
BRANCH   9  18
HETATM   18  C   UNL     1      42.117 -14.181   6.186  1.00  0.00     0.095 A 
HETATM   19  O   UNL     1      42.443 -12.873   6.427  1.00  0.00    -0.313 OA
HETATM   20  C   UNL     1      43.759 -12.836   6.783  1.00  0.00     0.077 A 
HETATM   21  C   UNL     1      44.283 -14.112   6.770  1.00  0.00     0.037 A 
HETATM   22  C   UNL     1      43.227 -14.977   6.392  1.00  0.00     0.039 A 
BRANCH  20  23
HETATM   23  C   UNL     1      44.331 -11.498   7.091  1.00  0.00     0.240 C 
BRANCH  23  24
HETATM   24  O   UNL     1      44.452 -11.432   8.511  1.00  0.00    -0.345 OA
BRANCH  24  25
HETATM   25  C   UNL     1      44.085 -10.263   9.117  1.00  0.00     0.070 A 
HETATM   26  C   UNL     1      43.735 -10.102  10.459  1.00  0.00     0.052 A 
HETATM   27  C   UNL     1      43.376  -8.836  10.960  1.00  0.00     0.050 A 
HETATM   28  C   UNL     1      43.371  -7.733  10.091  1.00  0.00     0.016 A 
HETATM   29  C   UNL     1      43.718  -7.892   8.752  1.00  0.00     0.004 A 
HETATM   30  C   UNL     1      44.072  -9.152   8.271  1.00  0.00     0.037 A 
BRANCH  27  31
HETATM   31  C   UNL     1      42.999  -8.648  12.409  1.00  0.00     0.417 C 
HETATM   32  F   UNL     1      41.837  -7.956  12.580  1.00  0.00    -0.166 F 
HETATM   33  F   UNL     1      42.826  -9.831  13.060  1.00  0.00    -0.166 F 
HETATM   34  F   UNL     1      43.946  -7.966  13.110  1.00  0.00    -0.166 F 
ENDBRANCH  27  31
ENDBRANCH  24  25
ENDBRANCH  23  24
ENDBRANCH  20  23
ENDBRANCH   9  18
BRANCH   1  35
HETATM   35  C   UNL     1      38.862 -13.756  -2.509  1.00  0.00     0.231 C 
HETATM   36  C   UNL     1      38.416 -15.123  -2.996  1.00  0.00     0.034 C 
ENDBRANCH   1  35
TORSDOF 6
ENDMDL
MODEL 8
REMARK VINA RESULT:      -8.9      6.612     11.398
REMARK  6 active torsions:
REMARK  status: ('A' for Active; 'I' for Inactive)
REMARK    1  A    between atoms: C_2  and  N_3 
REMARK    2  A    between atoms: C_11  and  C_12 
REMARK    3  A    between atoms: C_14  and  C_15 
REMARK    4  A    between atoms: C_15  and  O_16 
REMARK    5  A    between atoms: O_16  and  C_17 
REMARK    6  A    between atoms: C_19  and  C_20 
ROOT
HETATM    1  N   UNL     1      40.269  -7.815  11.108  1.00  0.00    -0.067 N 
HETATM    2  H   UNL     1      39.512  -7.247  10.705  1.00  0.00     0.280 HD
HETATM    3  C   UNL     1      41.474  -7.623  10.187  1.00  0.00     0.281 C 
HETATM    4  C   UNL     1      41.211  -8.242   8.858  1.00  0.00     0.018 A 
HETATM    5  C   UNL     1      40.228  -9.177   8.595  1.00  0.00    -0.023 A 
HETATM    6  C   UNL     1      40.210  -9.534   7.207  1.00  0.00     0.073 A 
HETATM    7  C   UNL     1      41.167  -8.852   6.494  1.00  0.00     0.088 A 
HETATM    8  N   UNL     1      41.310  -8.956   5.159  1.00  0.00    -0.357 N 
HETATM    9  C   UNL     1      40.686 -10.057   4.451  1.00  0.00     0.243 C 
HETATM   10  N   UNL     1      39.523 -10.538   5.158  1.00  0.00    -0.330 N 
HETATM   11  C   UNL     1      39.321 -10.438   6.504  1.00  0.00     0.256 C 
HETATM   12  O   UNL     1      38.425 -11.056   7.069  1.00  0.00    -0.267 OA
HETATM   13  S   UNL     1      42.117  -7.839   7.474  1.00  0.00    -0.074 SA
HETATM   14  C   UNL     1      39.292  -9.654   9.665  1.00  0.00     0.068 C 
HETATM   15  C   UNL     1      39.786  -9.270  11.072  1.00  0.00     0.240 C 
HETATM   16  H   UNL     1      42.174  -8.638   4.724  1.00  0.00     0.162 HD
HETATM   17  H   UNL     1      38.921 -11.192   4.680  1.00  0.00     0.165 HD
ENDROOT
BRANCH   9  18
HETATM   18  C   UNL     1      41.608 -11.189   4.130  1.00  0.00     0.095 A 
HETATM   19  O   UNL     1      41.024 -12.427   4.091  1.00  0.00    -0.313 OA
HETATM   20  C   UNL     1      41.998 -13.332   3.789  1.00  0.00     0.077 A 
HETATM   21  C   UNL     1      43.207 -12.685   3.636  1.00  0.00     0.037 A 
HETATM   22  C   UNL     1      42.956 -11.308   3.850  1.00  0.00     0.039 A 
BRANCH  20  23
HETATM   23  C   UNL     1      41.581 -14.757   3.696  1.00  0.00     0.240 C 
BRANCH  23  24
HETATM   24  O   UNL     1      42.531 -15.397   2.845  1.00  0.00    -0.345 OA
BRANCH  24  25
HETATM   25  C   UNL     1      43.055 -16.584   3.274  1.00  0.00     0.070 A 
HETATM   26  C   UNL     1      43.004 -17.803   2.595  1.00  0.00     0.052 A 
HETATM   27  C   UNL     1      43.588 -18.958   3.151  1.00  0.00     0.050 A 
HETATM   28  C   UNL     1      44.223 -18.871   4.399  1.00  0.00     0.016 A 
HETATM   29  C   UNL     1      44.274 -17.656   5.079  1.00  0.00     0.004 A 
HETATM   30  C   UNL     1      43.692 -16.521   4.516  1.00  0.00     0.037 A 
BRANCH  27  31
HETATM   31  C   UNL     1      43.542 -20.281   2.426  1.00  0.00     0.417 C 
HETATM   32  F   UNL     1      44.469 -20.387   1.433  1.00  0.00    -0.166 F 
HETATM   33  F   UNL     1      43.765 -21.337   3.257  1.00  0.00    -0.166 F 
HETATM   34  F   UNL     1      42.336 -20.512   1.839  1.00  0.00    -0.166 F 
ENDBRANCH  27  31
ENDBRANCH  24  25
ENDBRANCH  23  24
ENDBRANCH  20  23
ENDBRANCH   9  18
BRANCH   1  35
HETATM   35  C   UNL     1      40.508  -7.341  12.519  1.00  0.00     0.231 C 
HETATM   36  C   UNL     1      39.228  -7.379  13.333  1.00  0.00     0.034 C 
ENDBRANCH   1  35
TORSDOF 6
ENDMDL
MODEL 9
REMARK VINA RESULT:      -8.6     18.715     20.717
REMARK  6 active torsions:
REMARK  status: ('A' for Active; 'I' for Inactive)
REMARK    1  A    between atoms: C_2  and  N_3 
REMARK    2  A    between atoms: C_11  and  C_12 
REMARK    3  A    between atoms: C_14  and  C_15 
REMARK    4  A    between atoms: C_15  and  O_16 
REMARK    5  A    between atoms: O_16  and  C_17 
REMARK    6  A    between atoms: C_19  and  C_20 
ROOT
HETATM    1  N   UNL     1      37.941 -34.244   5.647  1.00  0.00    -0.067 N 
HETATM    2  H   UNL     1      37.291 -33.461   5.501  1.00  0.00     0.280 HD
HETATM    3  C   UNL     1      39.147 -33.659   6.382  1.00  0.00     0.281 C 
HETATM    4  C   UNL     1      39.888 -32.723   5.491  1.00  0.00     0.018 A 
HETATM    5  C   UNL     1      39.770 -32.672   4.114  1.00  0.00    -0.023 A 
HETATM    6  C   UNL     1      40.584 -31.629   3.564  1.00  0.00     0.073 A 
HETATM    7  C   UNL     1      41.266 -30.945   4.541  1.00  0.00     0.088 A 
HETATM    8  N   UNL     1      42.045 -29.874   4.291  1.00  0.00    -0.357 N 
HETATM    9  C   UNL     1      42.478 -29.601   2.934  1.00  0.00     0.243 C 
HETATM   10  N   UNL     1      41.548 -30.140   1.972  1.00  0.00    -0.330 N 
HETATM   11  C   UNL     1      40.723 -31.207   2.184  1.00  0.00     0.256 C 
HETATM   12  O   UNL     1      40.123 -31.749   1.262  1.00  0.00    -0.267 OA
HETATM   13  S   UNL     1      40.987 -31.573   6.097  1.00  0.00    -0.074 SA
HETATM   14  C   UNL     1      38.834 -33.578   3.373  1.00  0.00     0.068 C 
HETATM   15  C   UNL     1      38.343 -34.741   4.254  1.00  0.00     0.240 C 
HETATM   16  H   UNL     1      42.713 -29.570   4.995  1.00  0.00     0.162 HD
HETATM   17  H   UNL     1      41.664 -29.871   1.006  1.00  0.00     0.165 HD
ENDROOT
BRANCH   9  18
HETATM   18  C   UNL     1      43.869 -30.051   2.626  1.00  0.00     0.095 A 
HETATM   19  O   UNL     1      44.824 -29.070   2.659  1.00  0.00    -0.313 OA
HETATM   20  C   UNL     1      46.020 -29.649   2.356  1.00  0.00     0.077 A 
HETATM   21  C   UNL     1      45.843 -30.997   2.125  1.00  0.00     0.037 A 
HETATM   22  C   UNL     1      44.462 -31.257   2.303  1.00  0.00     0.039 A 
BRANCH  20  23
HETATM   23  C   UNL     1      47.209 -28.754   2.334  1.00  0.00     0.240 C 
BRANCH  23  24
HETATM   24  O   UNL     1      46.965 -27.789   1.312  1.00  0.00    -0.345 OA
BRANCH  24  25
HETATM   25  C   UNL     1      47.035 -28.219   0.016  1.00  0.00     0.070 A 
HETATM   26  C   UNL     1      46.044 -28.076  -0.956  1.00  0.00     0.052 A 
HETATM   27  C   UNL     1      46.245 -28.564  -2.262  1.00  0.00     0.050 A 
HETATM   28  C   UNL     1      47.456 -29.202  -2.575  1.00  0.00     0.016 A 
HETATM   29  C   UNL     1      48.445 -29.347  -1.606  1.00  0.00     0.004 A 
HETATM   30  C   UNL     1      48.232 -28.857  -0.318  1.00  0.00     0.037 A 
BRANCH  27  31
HETATM   31  C   UNL     1      45.183 -28.414  -3.324  1.00  0.00     0.417 C 
HETATM   32  F   UNL     1      45.406 -29.186  -4.425  1.00  0.00    -0.166 F 
HETATM   33  F   UNL     1      43.944 -28.756  -2.874  1.00  0.00    -0.166 F 
HETATM   34  F   UNL     1      45.078 -27.135  -3.779  1.00  0.00    -0.166 F 
ENDBRANCH  27  31
ENDBRANCH  24  25
ENDBRANCH  23  24
ENDBRANCH  20  23
ENDBRANCH   9  18
BRANCH   1  35
HETATM   35  C   UNL     1      37.217 -35.309   6.433  1.00  0.00     0.231 C 
HETATM   36  C   UNL     1      35.859 -34.818   6.898  1.00  0.00     0.034 C 
ENDBRANCH   1  35
TORSDOF 6
ENDMDL
MODEL 10
REMARK VINA RESULT:      -8.6     18.681     20.666
REMARK  6 active torsions:
REMARK  status: ('A' for Active; 'I' for Inactive)
REMARK    1  A    between atoms: C_2  and  N_3 
REMARK    2  A    between atoms: C_11  and  C_12 
REMARK    3  A    between atoms: C_14  and  C_15 
REMARK    4  A    between atoms: C_15  and  O_16 
REMARK    5  A    between atoms: O_16  and  C_17 
REMARK    6  A    between atoms: C_19  and  C_20 
ROOT
HETATM    1  N   UNL     1      42.600 -30.590   3.770  1.00  0.00    -0.067 N 
HETATM    2  H   UNL     1      42.801 -29.961   4.559  1.00  0.00     0.280 HD
HETATM    3  C   UNL     1      43.590 -31.748   3.894  1.00  0.00     0.281 C 
HETATM    4  C   UNL     1      44.978 -31.269   3.642  1.00  0.00     0.018 A 
HETATM    5  C   UNL     1      45.309 -30.083   3.013  1.00  0.00    -0.023 A 
HETATM    6  C   UNL     1      46.729 -29.898   2.972  1.00  0.00     0.073 A 
HETATM    7  C   UNL     1      47.396 -30.940   3.571  1.00  0.00     0.088 A 
HETATM    8  N   UNL     1      48.734 -30.973   3.725  1.00  0.00    -0.357 N 
HETATM    9  C   UNL     1      49.569 -30.070   2.957  1.00  0.00     0.243 C 
HETATM   10  N   UNL     1      48.847 -28.874   2.595  1.00  0.00    -0.330 N 
HETATM   11  C   UNL     1      47.494 -28.784   2.447  1.00  0.00     0.256 C 
HETATM   12  O   UNL     1      46.966 -27.806   1.927  1.00  0.00    -0.267 OA
HETATM   13  S   UNL     1      46.347 -32.156   4.128  1.00  0.00    -0.074 SA
HETATM   14  C   UNL     1      44.257 -29.130   2.530  1.00  0.00     0.068 C 
HETATM   15  C   UNL     1      42.864 -29.785   2.493  1.00  0.00     0.240 C 
HETATM   16  H   UNL     1      49.189 -31.858   3.937  1.00  0.00     0.162 HD
HETATM   17  H   UNL     1      49.375 -28.109   2.200  1.00  0.00     0.165 HD
ENDROOT
BRANCH   9  18
HETATM   18  C   UNL     1      50.200 -30.685   1.750  1.00  0.00     0.095 A 
HETATM   19  O   UNL     1      49.904 -30.078   0.559  1.00  0.00    -0.313 OA
HETATM   20  C   UNL     1      50.554 -30.761  -0.425  1.00  0.00     0.077 A 
HETATM   21  C   UNL     1      51.266 -31.808   0.123  1.00  0.00     0.037 A 
HETATM   22  C   UNL     1      51.043 -31.757   1.522  1.00  0.00     0.039 A 
BRANCH  20  23
HETATM   23  C   UNL     1      50.369 -30.268  -1.816  1.00  0.00     0.240 C 
BRANCH  23  24
HETATM   24  O   UNL     1      49.134 -30.816  -2.275  1.00  0.00    -0.345 OA
BRANCH  24  25
HETATM   25  C   UNL     1      47.992 -30.132  -1.965  1.00  0.00     0.070 A 
HETATM   26  C   UNL     1      46.746 -30.691  -1.675  1.00  0.00     0.052 A 
HETATM   27  C   UNL     1      45.645 -29.869  -1.368  1.00  0.00     0.050 A 
HETATM   28  C   UNL     1      45.813 -28.475  -1.359  1.00  0.00     0.016 A 
HETATM   29  C   UNL     1      47.054 -27.915  -1.650  1.00  0.00     0.004 A 
HETATM   30  C   UNL     1      48.136 -28.742  -1.950  1.00  0.00     0.037 A 
BRANCH  27  31
HETATM   31  C   UNL     1      44.294 -30.461  -1.050  1.00  0.00     0.417 C 
HETATM   32  F   UNL     1      43.360 -29.527  -0.712  1.00  0.00    -0.166 F 
HETATM   33  F   UNL     1      43.767 -31.151  -2.099  1.00  0.00    -0.166 F 
HETATM   34  F   UNL     1      44.340 -31.336  -0.009  1.00  0.00    -0.166 F 
ENDBRANCH  27  31
ENDBRANCH  24  25
ENDBRANCH  23  24
ENDBRANCH  20  23
ENDBRANCH   9  18
BRANCH   1  35
HETATM   35  C   UNL     1      41.158 -31.019   3.873  1.00  0.00     0.231 C 
HETATM   36  C   UNL     1      40.823 -31.484   5.278  1.00  0.00     0.034 C 
ENDBRANCH   1  35
TORSDOF 6
ENDMDL
