MODEL 1
REMARK VINA RESULT:      -8.8      0.000      0.000
REMARK  4 active torsions:
REMARK  status: ('A' for Active; 'I' for Inactive)
REMARK    1  A    between atoms: C_3  and  C_4 
REMARK    2  A    between atoms: C_5  and  C_6 
REMARK       I    between atoms: C_6  and  N_7 
REMARK    3  A    between atoms: N_7  and  C_8 
REMARK    4  A    between atoms: C_15  and  C_16 
REMARK       I    between atoms: C_16  and  N_17 
ROOT
HETATM    1  C   UNL     1      42.147 -13.148   5.354  1.00  0.00     0.035 A 
HETATM    2  C   UNL     1      43.225 -12.619   6.076  1.00  0.00     0.046 A 
HETATM    3  C   UNL     1      43.091 -11.366   6.715  1.00  0.00     0.030 A 
HETATM    4  C   UNL     1      41.885 -10.687   6.612  1.00  0.00     0.063 A 
HETATM    5  N   UNL     1      42.061  -9.527   7.313  1.00  0.00    -0.277 N 
HETATM    6  H   UNL     1      41.386  -8.783   7.449  1.00  0.00     0.189 HD
HETATM    7  N   UNL     1      43.275  -9.392   7.871  1.00  0.00    -0.168 NA
HETATM    8  C   UNL     1      43.925 -10.523   7.510  1.00  0.00     0.156 A 
HETATM    9  C   UNL     1      40.787 -11.186   5.908  1.00  0.00     0.034 A 
HETATM   10  C   UNL     1      40.944 -12.431   5.285  1.00  0.00     0.032 A 
ENDROOT
BRANCH   1  11
HETATM   11  N   UNL     1      42.191 -14.381   4.667  1.00  0.00    -0.327 N 
HETATM   12  C   UNL     1      42.488 -14.588   3.336  1.00  0.00     0.227 C 
HETATM   13  O   UNL     1      42.796 -13.738   2.514  1.00  0.00    -0.273 OA
HETATM   14  H   UNL     1      41.930 -15.194   5.206  1.00  0.00     0.169 HD
BRANCH  12  15
HETATM   15  C   UNL     1      42.386 -15.997   2.852  1.00  0.00     0.087 A 
HETATM   16  C   UNL     1      43.656 -16.795   2.574  1.00  0.00     0.034 A 
HETATM   17  C   UNL     1      42.683 -16.478   1.462  1.00  0.00     0.025 A 
BRANCH  16  18
HETATM   18  C   UNL     1      43.781 -18.184   3.170  1.00  0.00    -0.031 A 
HETATM   19  C   UNL     1      43.489 -19.307   2.370  1.00  0.00     0.009 A 
HETATM   20  C   UNL     1      43.560 -20.609   2.869  1.00  0.00     0.001 A 
HETATM   21  C   UNL     1      43.922 -20.826   4.195  1.00  0.00     0.002 A 
HETATM   22  C   UNL     1      44.202 -19.737   5.017  1.00  0.00     0.024 A 
HETATM   23  C   UNL     1      44.124 -18.433   4.513  1.00  0.00     0.040 A 
HETATM   24 CL   UNL     1      44.436 -17.134   5.613  1.00  0.00    -0.084 Cl
ENDBRANCH  16  18
ENDBRANCH  12  15
ENDBRANCH   1  11
BRANCH   8  25
HETATM   25  C   UNL     1      45.311 -10.770   7.930  1.00  0.00     0.270 C 
HETATM   26  N   UNL     1      46.210 -10.805   6.898  1.00  0.00    -0.365 N 
HETATM   27  H   UNL     1      45.872 -10.658   5.955  1.00  0.00     0.159 HD
HETATM   28  H   UNL     1      47.185 -10.962   7.093  1.00  0.00     0.159 HD
HETATM   29  O   UNL     1      45.673 -10.935   9.090  1.00  0.00    -0.266 OA
ENDBRANCH   8  25
TORSDOF 4
ENDMDL
MODEL 2
REMARK VINA RESULT:      -8.3      1.664      2.570
REMARK  4 active torsions:
REMARK  status: ('A' for Active; 'I' for Inactive)
REMARK    1  A    between atoms: C_3  and  C_4 
REMARK    2  A    between atoms: C_5  and  C_6 
REMARK       I    between atoms: C_6  and  N_7 
REMARK    3  A    between atoms: N_7  and  C_8 
REMARK    4  A    between atoms: C_15  and  C_16 
REMARK       I    between atoms: C_16  and  N_17 
ROOT
HETATM    1  C   UNL     1      42.989 -13.030   5.818  1.00  0.00     0.035 A 
HETATM    2  C   UNL     1      42.074 -11.972   5.901  1.00  0.00     0.046 A 
HETATM    3  C   UNL     1      42.392 -10.831   6.672  1.00  0.00     0.030 A 
HETATM    4  C   UNL     1      43.613 -10.787   7.332  1.00  0.00     0.063 A 
HETATM    5  N   UNL     1      43.628  -9.587   7.986  1.00  0.00    -0.277 N 
HETATM    6  H   UNL     1      44.367  -9.218   8.574  1.00  0.00     0.189 HD
HETATM    7  N   UNL     1      42.526  -8.841   7.807  1.00  0.00    -0.168 NA
HETATM    8  C   UNL     1      41.751  -9.597   6.995  1.00  0.00     0.156 A 
HETATM    9  C   UNL     1      44.552 -11.818   7.266  1.00  0.00     0.034 A 
HETATM   10  C   UNL     1      44.215 -12.937   6.493  1.00  0.00     0.032 A 
ENDROOT
BRANCH   1  11
HETATM   11  N   UNL     1      42.754 -14.217   5.090  1.00  0.00    -0.327 N 
HETATM   12  C   UNL     1      42.824 -14.387   3.723  1.00  0.00     0.227 C 
HETATM   13  O   UNL     1      43.130 -13.544   2.894  1.00  0.00    -0.273 OA
HETATM   14  H   UNL     1      42.459 -15.014   5.633  1.00  0.00     0.169 HD
BRANCH  12  15
HETATM   15  C   UNL     1      42.449 -15.739   3.211  1.00  0.00     0.087 A 
HETATM   16  C   UNL     1      43.503 -16.610   2.533  1.00  0.00     0.034 A 
HETATM   17  C   UNL     1      42.290 -16.127   1.770  1.00  0.00     0.025 A 
BRANCH  16  18
HETATM   18  C   UNL     1      43.652 -18.049   2.989  1.00  0.00    -0.031 A 
HETATM   19  C   UNL     1      43.238 -19.090   2.133  1.00  0.00     0.009 A 
HETATM   20  C   UNL     1      43.326 -20.433   2.507  1.00  0.00     0.001 A 
HETATM   21  C   UNL     1      43.830 -20.773   3.758  1.00  0.00     0.002 A 
HETATM   22  C   UNL     1      44.234 -19.768   4.634  1.00  0.00     0.024 A 
HETATM   23  C   UNL     1      44.138 -18.423   4.257  1.00  0.00     0.040 A 
HETATM   24 CL   UNL     1      44.611 -17.234   5.421  1.00  0.00    -0.084 Cl
ENDBRANCH  16  18
ENDBRANCH  12  15
ENDBRANCH   1  11
BRANCH   8  25
HETATM   25  C   UNL     1      40.431  -9.128   6.551  1.00  0.00     0.270 C 
HETATM   26  N   UNL     1      40.471  -8.008   5.766  1.00  0.00    -0.365 N 
HETATM   27  H   UNL     1      41.372  -7.599   5.550  1.00  0.00     0.159 HD
HETATM   28  H   UNL     1      39.613  -7.618   5.410  1.00  0.00     0.159 HD
HETATM   29  O   UNL     1      39.365  -9.665   6.835  1.00  0.00    -0.266 OA
ENDBRANCH   8  25
TORSDOF 4
ENDMDL
MODEL 3
REMARK VINA RESULT:      -8.3      4.951      8.473
REMARK  4 active torsions:
REMARK  status: ('A' for Active; 'I' for Inactive)
REMARK    1  A    between atoms: C_3  and  C_4 
REMARK    2  A    between atoms: C_5  and  C_6 
REMARK       I    between atoms: C_6  and  N_7 
REMARK    3  A    between atoms: N_7  and  C_8 
REMARK    4  A    between atoms: C_15  and  C_16 
REMARK       I    between atoms: C_16  and  N_17 
ROOT
HETATM    1  C   UNL     1      42.532 -15.762   2.170  1.00  0.00     0.035 A 
HETATM    2  C   UNL     1      42.841 -17.129   2.162  1.00  0.00     0.046 A 
HETATM    3  C   UNL     1      43.380 -17.731   3.321  1.00  0.00     0.030 A 
HETATM    4  C   UNL     1      43.589 -16.947   4.448  1.00  0.00     0.063 A 
HETATM    5  N   UNL     1      44.115 -17.792   5.385  1.00  0.00    -0.277 N 
HETATM    6  H   UNL     1      44.395 -17.561   6.331  1.00  0.00     0.189 HD
HETATM    7  N   UNL     1      44.262 -19.061   4.971  1.00  0.00    -0.168 NA
HETATM    8  C   UNL     1      43.810 -19.040   3.695  1.00  0.00     0.156 A 
HETATM    9  C   UNL     1      43.286 -15.585   4.495  1.00  0.00     0.034 A 
HETATM   10  C   UNL     1      42.751 -15.012   3.334  1.00  0.00     0.032 A 
ENDROOT
BRANCH   1  11
HETATM   11  N   UNL     1      42.009 -15.069   1.056  1.00  0.00    -0.327 N 
HETATM   12  C   UNL     1      40.700 -15.050   0.621  1.00  0.00     0.227 C 
HETATM   13  O   UNL     1      39.747 -15.611   1.140  1.00  0.00    -0.273 OA
HETATM   14  H   UNL     1      42.682 -14.569   0.494  1.00  0.00     0.169 HD
BRANCH  12  15
HETATM   15  C   UNL     1      40.438 -14.290  -0.637  1.00  0.00     0.087 A 
HETATM   16  C   UNL     1      39.580 -13.029  -0.594  1.00  0.00     0.034 A 
HETATM   17  C   UNL     1      39.138 -14.239  -1.385  1.00  0.00     0.025 A 
BRANCH  16  18
HETATM   18  C   UNL     1      40.108 -11.773  -1.261  1.00  0.00    -0.031 A 
HETATM   19  C   UNL     1      39.775 -11.514  -2.606  1.00  0.00     0.009 A 
HETATM   20  C   UNL     1      40.252 -10.388  -3.282  1.00  0.00     0.001 A 
HETATM   21  C   UNL     1      41.086  -9.488  -2.629  1.00  0.00     0.002 A 
HETATM   22  C   UNL     1      41.447  -9.722  -1.304  1.00  0.00     0.024 A 
HETATM   23  C   UNL     1      40.971 -10.855  -0.632  1.00  0.00     0.040 A 
HETATM   24 CL   UNL     1      41.509 -11.101   0.994  1.00  0.00    -0.084 Cl
ENDBRANCH  16  18
ENDBRANCH  12  15
ENDBRANCH   1  11
BRANCH   8  25
HETATM   25  C   UNL     1      43.800 -20.257   2.872  1.00  0.00     0.270 C 
HETATM   26  N   UNL     1      44.008 -21.411   3.578  1.00  0.00    -0.365 N 
HETATM   27  H   UNL     1      44.145 -21.349   4.579  1.00  0.00     0.159 HD
HETATM   28  H   UNL     1      44.012 -22.296   3.096  1.00  0.00     0.159 HD
HETATM   29  O   UNL     1      43.622 -20.281   1.659  1.00  0.00    -0.266 OA
ENDBRANCH   8  25
TORSDOF 4
ENDMDL
MODEL 4
REMARK VINA RESULT:      -8.2      1.972      2.918
REMARK  4 active torsions:
REMARK  status: ('A' for Active; 'I' for Inactive)
REMARK    1  A    between atoms: C_3  and  C_4 
REMARK    2  A    between atoms: C_5  and  C_6 
REMARK       I    between atoms: C_6  and  N_7 
REMARK    3  A    between atoms: N_7  and  C_8 
REMARK    4  A    between atoms: C_15  and  C_16 
REMARK       I    between atoms: C_16  and  N_17 
ROOT
HETATM    1  C   UNL     1      44.233 -12.451   6.760  1.00  0.00     0.035 A 
HETATM    2  C   UNL     1      43.675 -11.891   7.917  1.00  0.00     0.046 A 
HETATM    3  C   UNL     1      44.333 -10.821   8.564  1.00  0.00     0.030 A 
HETATM    4  C   UNL     1      45.523 -10.346   8.030  1.00  0.00     0.063 A 
HETATM    5  N   UNL     1      45.916  -9.335   8.862  1.00  0.00    -0.277 N 
HETATM    6  H   UNL     1      46.747  -8.761   8.781  1.00  0.00     0.189 HD
HETATM    7  N   UNL     1      45.082  -9.104   9.890  1.00  0.00    -0.168 NA
HETATM    8  C   UNL     1      44.096 -10.015   9.718  1.00  0.00     0.156 A 
HETATM    9  C   UNL     1      46.105 -10.873   6.875  1.00  0.00     0.034 A 
HETATM   10  C   UNL     1      45.432 -11.932   6.252  1.00  0.00     0.032 A 
ENDROOT
BRANCH   1  11
HETATM   11  N   UNL     1      43.660 -13.533   6.056  1.00  0.00    -0.327 N 
HETATM   12  C   UNL     1      42.902 -13.476   4.906  1.00  0.00     0.227 C 
HETATM   13  O   UNL     1      42.610 -12.476   4.270  1.00  0.00    -0.273 OA
HETATM   14  H   UNL     1      43.787 -14.444   6.472  1.00  0.00     0.169 HD
BRANCH  12  15
HETATM   15  C   UNL     1      42.355 -14.777   4.415  1.00  0.00     0.087 A 
HETATM   16  C   UNL     1      43.003 -15.465   3.217  1.00  0.00     0.034 A 
HETATM   17  C   UNL     1      41.570 -14.987   3.154  1.00  0.00     0.025 A 
BRANCH  16  18
HETATM   18  C   UNL     1      43.362 -16.934   3.336  1.00  0.00    -0.031 A 
HETATM   19  C   UNL     1      42.934 -17.832   2.337  1.00  0.00     0.009 A 
HETATM   20  C   UNL     1      43.211 -19.199   2.404  1.00  0.00     0.001 A 
HETATM   21  C   UNL     1      43.924 -19.711   3.483  1.00  0.00     0.002 A 
HETATM   22  C   UNL     1      44.349 -18.853   4.495  1.00  0.00     0.024 A 
HETATM   23  C   UNL     1      44.064 -17.484   4.426  1.00  0.00     0.040 A 
HETATM   24 CL   UNL     1      44.580 -16.495   5.749  1.00  0.00    -0.084 Cl
ENDBRANCH  16  18
ENDBRANCH  12  15
ENDBRANCH   1  11
BRANCH   8  25
HETATM   25  C   UNL     1      42.964 -10.094  10.651  1.00  0.00     0.270 C 
HETATM   26  N   UNL     1      43.100 -11.056  11.615  1.00  0.00    -0.365 N 
HETATM   27  H   UNL     1      43.940 -11.620  11.623  1.00  0.00     0.159 HD
HETATM   28  H   UNL     1      42.373 -11.178  12.303  1.00  0.00     0.159 HD
HETATM   29  O   UNL     1      41.967  -9.380  10.605  1.00  0.00    -0.266 OA
ENDBRANCH   8  25
TORSDOF 4
ENDMDL
MODEL 5
REMARK VINA RESULT:      -8.1      5.205      7.309
REMARK  4 active torsions:
REMARK  status: ('A' for Active; 'I' for Inactive)
REMARK    1  A    between atoms: C_3  and  C_4 
REMARK    2  A    between atoms: C_5  and  C_6 
REMARK       I    between atoms: C_6  and  N_7 
REMARK    3  A    between atoms: N_7  and  C_8 
REMARK    4  A    between atoms: C_15  and  C_16 
REMARK       I    between atoms: C_16  and  N_17 
ROOT
HETATM    1  C   UNL     1      39.939 -13.812  -1.007  1.00  0.00     0.035 A 
HETATM    2  C   UNL     1      39.243 -12.690  -0.538  1.00  0.00     0.046 A 
HETATM    3  C   UNL     1      38.211 -12.129  -1.323  1.00  0.00     0.030 A 
HETATM    4  C   UNL     1      37.909 -12.710  -2.548  1.00  0.00     0.063 A 
HETATM    5  N   UNL     1      36.893 -11.956  -3.066  1.00  0.00    -0.277 N 
HETATM    6  H   UNL     1      36.423 -12.088  -3.954  1.00  0.00     0.189 HD
HETATM    7  N   UNL     1      36.501 -10.937  -2.285  1.00  0.00    -0.168 NA
HETATM    8  C   UNL     1      37.307 -11.031  -1.201  1.00  0.00     0.156 A 
HETATM    9  C   UNL     1      38.575 -13.832  -3.044  1.00  0.00     0.034 A 
HETATM   10  C   UNL     1      39.593 -14.371  -2.246  1.00  0.00     0.032 A 
ENDROOT
BRANCH   1  11
HETATM   11  N   UNL     1      40.997 -14.430  -0.305  1.00  0.00    -0.327 N 
HETATM   12  C   UNL     1      41.003 -14.832   1.014  1.00  0.00     0.227 C 
HETATM   13  O   UNL     1      40.080 -14.751   1.810  1.00  0.00    -0.273 OA
HETATM   14  H   UNL     1      41.857 -14.547  -0.819  1.00  0.00     0.169 HD
BRANCH  12  15
HETATM   15  C   UNL     1      42.291 -15.392   1.524  1.00  0.00     0.087 A 
HETATM   16  C   UNL     1      42.346 -16.015   2.916  1.00  0.00     0.034 A 
HETATM   17  C   UNL     1      43.162 -14.785   2.584  1.00  0.00     0.025 A 
BRANCH  16  18
HETATM   18  C   UNL     1      42.975 -17.387   3.069  1.00  0.00    -0.031 A 
HETATM   19  C   UNL     1      42.716 -18.377   2.098  1.00  0.00     0.009 A 
HETATM   20  C   UNL     1      43.244 -19.665   2.198  1.00  0.00     0.001 A 
HETATM   21  C   UNL     1      44.047 -20.004   3.282  1.00  0.00     0.002 A 
HETATM   22  C   UNL     1      44.311 -19.055   4.266  1.00  0.00     0.024 A 
HETATM   23  C   UNL     1      43.774 -17.766   4.165  1.00  0.00     0.040 A 
HETATM   24 CL   UNL     1      44.105 -16.661   5.455  1.00  0.00    -0.084 Cl
ENDBRANCH  16  18
ENDBRANCH  12  15
ENDBRANCH   1  11
BRANCH   8  25
HETATM   25  C   UNL     1      37.194 -10.081  -0.086  1.00  0.00     0.270 C 
HETATM   26  N   UNL     1      36.570 -10.588   1.021  1.00  0.00    -0.365 N 
HETATM   27  H   UNL     1      36.247 -11.547   0.998  1.00  0.00     0.159 HD
HETATM   28  H   UNL     1      36.454 -10.009   1.837  1.00  0.00     0.159 HD
HETATM   29  O   UNL     1      37.611  -8.927  -0.104  1.00  0.00    -0.266 OA
ENDBRANCH   8  25
TORSDOF 4
ENDMDL
MODEL 6
REMARK VINA RESULT:      -7.9      4.588      7.444
REMARK  4 active torsions:
REMARK  status: ('A' for Active; 'I' for Inactive)
REMARK    1  A    between atoms: C_3  and  C_4 
REMARK    2  A    between atoms: C_5  and  C_6 
REMARK       I    between atoms: C_6  and  N_7 
REMARK    3  A    between atoms: N_7  and  C_8 
REMARK    4  A    between atoms: C_15  and  C_16 
REMARK       I    between atoms: C_16  and  N_17 
ROOT
HETATM    1  C   UNL     1      42.637 -15.701   2.176  1.00  0.00     0.035 A 
HETATM    2  C   UNL     1      42.822 -15.198   3.471  1.00  0.00     0.046 A 
HETATM    3  C   UNL     1      43.342 -16.038   4.481  1.00  0.00     0.030 A 
HETATM    4  C   UNL     1      43.661 -17.352   4.161  1.00  0.00     0.063 A 
HETATM    5  N   UNL     1      44.124 -17.905   5.322  1.00  0.00    -0.277 N 
HETATM    6  H   UNL     1      44.445 -18.856   5.463  1.00  0.00     0.189 HD
HETATM    7  N   UNL     1      44.142 -17.066   6.371  1.00  0.00    -0.168 NA
HETATM    8  C   UNL     1      43.661 -15.906   5.866  1.00  0.00     0.156 A 
HETATM    9  C   UNL     1      43.497 -17.886   2.881  1.00  0.00     0.034 A 
HETATM   10  C   UNL     1      42.982 -17.031   1.898  1.00  0.00     0.032 A 
ENDROOT
BRANCH   1  11
HETATM   11  N   UNL     1      42.107 -14.945   1.108  1.00  0.00    -0.327 N 
HETATM   12  C   UNL     1      40.801 -14.925   0.665  1.00  0.00     0.227 C 
HETATM   13  O   UNL     1      39.857 -15.539   1.137  1.00  0.00    -0.273 OA
HETATM   14  H   UNL     1      42.773 -14.395   0.586  1.00  0.00     0.169 HD
BRANCH  12  15
HETATM   15  C   UNL     1      40.531 -14.087  -0.542  1.00  0.00     0.087 A 
HETATM   16  C   UNL     1      39.747 -12.786  -0.399  1.00  0.00     0.034 A 
HETATM   17  C   UNL     1      39.207 -13.927  -1.229  1.00  0.00     0.025 A 
BRANCH  16  18
HETATM   18  C   UNL     1      40.317 -11.527  -1.025  1.00  0.00    -0.031 A 
HETATM   19  C   UNL     1      40.024 -11.233  -2.373  1.00  0.00     0.009 A 
HETATM   20  C   UNL     1      40.541 -10.104  -3.012  1.00  0.00     0.001 A 
HETATM   21  C   UNL     1      41.375  -9.234  -2.318  1.00  0.00     0.002 A 
HETATM   22  C   UNL     1      41.698  -9.504  -0.990  1.00  0.00     0.024 A 
HETATM   23  C   UNL     1      41.182 -10.640  -0.355  1.00  0.00     0.040 A 
HETATM   24 CL   UNL     1      41.672 -10.931   1.279  1.00  0.00    -0.084 Cl
ENDBRANCH  16  18
ENDBRANCH  12  15
ENDBRANCH   1  11
BRANCH   8  25
HETATM   25  C   UNL     1      43.521 -14.711   6.709  1.00  0.00     0.270 C 
HETATM   26  N   UNL     1      42.925 -14.946   7.918  1.00  0.00    -0.365 N 
HETATM   27  H   UNL     1      42.638 -15.891   8.142  1.00  0.00     0.159 HD
HETATM   28  H   UNL     1      42.793 -14.185   8.565  1.00  0.00     0.159 HD
HETATM   29  O   UNL     1      43.892 -13.585   6.395  1.00  0.00    -0.266 OA
ENDBRANCH   8  25
TORSDOF 4
ENDMDL
MODEL 7
REMARK VINA RESULT:      -7.7      3.370      8.770
REMARK  4 active torsions:
REMARK  status: ('A' for Active; 'I' for Inactive)
REMARK    1  A    between atoms: C_3  and  C_4 
REMARK    2  A    between atoms: C_5  and  C_6 
REMARK       I    between atoms: C_6  and  N_7 
REMARK    3  A    between atoms: N_7  and  C_8 
REMARK    4  A    between atoms: C_15  and  C_16 
REMARK       I    between atoms: C_16  and  N_17 
ROOT
HETATM    1  C   UNL     1      43.159 -13.759   6.331  1.00  0.00     0.035 A 
HETATM    2  C   UNL     1      42.272 -13.499   5.278  1.00  0.00     0.046 A 
HETATM    3  C   UNL     1      41.945 -14.528   4.368  1.00  0.00     0.030 A 
HETATM    4  C   UNL     1      42.516 -15.782   4.542  1.00  0.00     0.063 A 
HETATM    5  N   UNL     1      42.024 -16.549   3.522  1.00  0.00    -0.277 N 
HETATM    6  H   UNL     1      42.230 -17.523   3.333  1.00  0.00     0.189 HD
HETATM    7  N   UNL     1      41.178 -15.907   2.701  1.00  0.00    -0.168 NA
HETATM    8  C   UNL     1      41.118 -14.655   3.211  1.00  0.00     0.156 A 
HETATM    9  C   UNL     1      43.397 -16.081   5.583  1.00  0.00     0.034 A 
HETATM   10  C   UNL     1      43.703 -15.043   6.473  1.00  0.00     0.032 A 
ENDROOT
BRANCH   1  11
HETATM   11  N   UNL     1      43.561 -12.791   7.278  1.00  0.00    -0.327 N 
HETATM   12  C   UNL     1      44.544 -11.835   7.132  1.00  0.00     0.227 C 
HETATM   13  O   UNL     1      45.230 -11.635   6.142  1.00  0.00    -0.273 OA
HETATM   14  H   UNL     1      43.103 -12.839   8.176  1.00  0.00     0.169 HD
BRANCH  12  15
HETATM   15  C   UNL     1      44.815 -10.984   8.330  1.00  0.00     0.087 A 
HETATM   16  C   UNL     1      44.219  -9.582   8.410  1.00  0.00     0.034 A 
HETATM   17  C   UNL     1      45.717  -9.786   8.378  1.00  0.00     0.025 A 
BRANCH  16  18
HETATM   18  C   UNL     1      43.484  -9.181   9.675  1.00  0.00    -0.031 A 
HETATM   19  C   UNL     1      44.210  -9.014  10.872  1.00  0.00     0.009 A 
HETATM   20  C   UNL     1      43.585  -8.672  12.074  1.00  0.00     0.001 A 
HETATM   21  C   UNL     1      42.206  -8.493  12.113  1.00  0.00     0.002 A 
HETATM   22  C   UNL     1      41.457  -8.666  10.951  1.00  0.00     0.024 A 
HETATM   23  C   UNL     1      42.087  -9.014   9.750  1.00  0.00     0.040 A 
HETATM   24 CL   UNL     1      41.080  -9.262   8.365  1.00  0.00    -0.084 Cl
ENDBRANCH  16  18
ENDBRANCH  12  15
ENDBRANCH   1  11
BRANCH   8  25
HETATM   25  C   UNL     1      40.280 -13.620   2.590  1.00  0.00     0.270 C 
HETATM   26  N   UNL     1      38.935 -13.827   2.735  1.00  0.00    -0.365 N 
HETATM   27  H   UNL     1      38.623 -14.644   3.244  1.00  0.00     0.159 HD
HETATM   28  H   UNL     1      38.284 -13.164   2.345  1.00  0.00     0.159 HD
HETATM   29  O   UNL     1      40.708 -12.641   1.987  1.00  0.00    -0.266 OA
ENDBRANCH   8  25
TORSDOF 4
ENDMDL
MODEL 8
REMARK VINA RESULT:      -7.5      3.327      4.775
REMARK  4 active torsions:
REMARK  status: ('A' for Active; 'I' for Inactive)
REMARK    1  A    between atoms: C_3  and  C_4 
REMARK    2  A    between atoms: C_5  and  C_6 
REMARK       I    between atoms: C_6  and  N_7 
REMARK    3  A    between atoms: N_7  and  C_8 
REMARK    4  A    between atoms: C_15  and  C_16 
REMARK       I    between atoms: C_16  and  N_17 
ROOT
HETATM    1  C   UNL     1      44.137 -12.039   6.680  1.00  0.00     0.035 A 
HETATM    2  C   UNL     1      43.437 -11.471   7.752  1.00  0.00     0.046 A 
HETATM    3  C   UNL     1      44.099 -10.580   8.626  1.00  0.00     0.030 A 
HETATM    4  C   UNL     1      45.437 -10.287   8.396  1.00  0.00     0.063 A 
HETATM    5  N   UNL     1      45.794  -9.420   9.392  1.00  0.00    -0.277 N 
HETATM    6  H   UNL     1      46.703  -8.998   9.541  1.00  0.00     0.189 HD
HETATM    7  N   UNL     1      44.805  -9.117  10.248  1.00  0.00    -0.168 NA
HETATM    8  C   UNL     1      43.748  -9.826   9.787  1.00  0.00     0.156 A 
HETATM    9  C   UNL     1      46.165 -10.827   7.335  1.00  0.00     0.034 A 
HETATM   10  C   UNL     1      45.484 -11.706   6.481  1.00  0.00     0.032 A 
ENDROOT
BRANCH   1  11
HETATM   11  N   UNL     1      43.568 -12.953   5.766  1.00  0.00    -0.327 N 
HETATM   12  C   UNL     1      43.244 -14.274   5.996  1.00  0.00     0.227 C 
HETATM   13  O   UNL     1      43.367 -14.887   7.046  1.00  0.00    -0.273 OA
HETATM   14  H   UNL     1      43.426 -12.607   4.829  1.00  0.00     0.169 HD
BRANCH  12  15
HETATM   15  C   UNL     1      42.722 -15.036   4.822  1.00  0.00     0.087 A 
HETATM   16  C   UNL     1      41.224 -15.050   4.535  1.00  0.00     0.034 A 
HETATM   17  C   UNL     1      41.959 -16.327   4.873  1.00  0.00     0.025 A 
BRANCH  16  18
HETATM   18  C   UNL     1      40.756 -14.733   3.127  1.00  0.00    -0.031 A 
HETATM   19  C   UNL     1      40.501 -15.791   2.230  1.00  0.00     0.009 A 
HETATM   20  C   UNL     1      40.093 -15.561   0.914  1.00  0.00     0.001 A 
HETATM   21  C   UNL     1      39.934 -14.259   0.454  1.00  0.00     0.002 A 
HETATM   22  C   UNL     1      40.192 -13.191   1.309  1.00  0.00     0.024 A 
HETATM   23  C   UNL     1      40.606 -13.425   2.626  1.00  0.00     0.040 A 
HETATM   24 CL   UNL     1      40.957 -12.045   3.608  1.00  0.00    -0.084 Cl
ENDBRANCH  16  18
ENDBRANCH  12  15
ENDBRANCH   1  11
BRANCH   8  25
HETATM   25  C   UNL     1      42.443  -9.768  10.458  1.00  0.00     0.270 C 
HETATM   26  N   UNL     1      42.378 -10.491  11.618  1.00  0.00    -0.365 N 
HETATM   27  H   UNL     1      43.203 -10.991  11.925  1.00  0.00     0.159 HD
HETATM   28  H   UNL     1      41.522 -10.504  12.150  1.00  0.00     0.159 HD
HETATM   29  O   UNL     1      41.472  -9.139  10.049  1.00  0.00    -0.266 OA
ENDBRANCH   8  25
TORSDOF 4
ENDMDL
MODEL 9
REMARK VINA RESULT:      -7.4      5.223      8.137
REMARK  4 active torsions:
REMARK  status: ('A' for Active; 'I' for Inactive)
REMARK    1  A    between atoms: C_3  and  C_4 
REMARK    2  A    between atoms: C_5  and  C_6 
REMARK       I    between atoms: C_6  and  N_7 
REMARK    3  A    between atoms: N_7  and  C_8 
REMARK    4  A    between atoms: C_15  and  C_16 
REMARK       I    between atoms: C_16  and  N_17 
ROOT
HETATM    1  C   UNL     1      42.038 -15.419   1.867  1.00  0.00     0.035 A 
HETATM    2  C   UNL     1      41.588 -15.282   3.187  1.00  0.00     0.046 A 
HETATM    3  C   UNL     1      42.120 -16.114   4.198  1.00  0.00     0.030 A 
HETATM    4  C   UNL     1      43.083 -17.053   3.854  1.00  0.00     0.063 A 
HETATM    5  N   UNL     1      43.392 -17.699   5.018  1.00  0.00    -0.277 N 
HETATM    6  H   UNL     1      44.058 -18.452   5.144  1.00  0.00     0.189 HD
HETATM    7  N   UNL     1      42.719 -17.260   6.094  1.00  0.00    -0.168 NA
HETATM    8  C   UNL     1      41.927 -16.278   5.603  1.00  0.00     0.156 A 
HETATM    9  C   UNL     1      43.561 -17.213   2.552  1.00  0.00     0.034 A 
HETATM   10  C   UNL     1      43.020 -16.374   1.569  1.00  0.00     0.032 A 
ENDROOT
BRANCH   1  11
HETATM   11  N   UNL     1      41.554 -14.647   0.788  1.00  0.00    -0.327 N 
HETATM   12  C   UNL     1      40.381 -14.834   0.086  1.00  0.00     0.227 C 
HETATM   13  O   UNL     1      39.533 -15.688   0.291  1.00  0.00    -0.273 OA
HETATM   14  H   UNL     1      42.160 -13.905   0.471  1.00  0.00     0.169 HD
BRANCH  12  15
HETATM   15  C   UNL     1      40.152 -13.911  -1.065  1.00  0.00     0.087 A 
HETATM   16  C   UNL     1      39.377 -12.614  -0.852  1.00  0.00     0.034 A 
HETATM   17  C   UNL     1      38.849 -13.688  -1.775  1.00  0.00     0.025 A 
BRANCH  16  18
HETATM   18  C   UNL     1      39.976 -11.321  -1.373  1.00  0.00    -0.031 A 
HETATM   19  C   UNL     1      41.242 -10.910  -0.907  1.00  0.00     0.009 A 
HETATM   20  C   UNL     1      41.833  -9.717  -1.329  1.00  0.00     0.001 A 
HETATM   21  C   UNL     1      41.167  -8.894  -2.231  1.00  0.00     0.002 A 
HETATM   22  C   UNL     1      39.909  -9.263  -2.699  1.00  0.00     0.024 A 
HETATM   23  C   UNL     1      39.317 -10.457  -2.268  1.00  0.00     0.040 A 
HETATM   24 CL   UNL     1      37.730 -10.817  -2.856  1.00  0.00    -0.084 Cl
ENDBRANCH  16  18
ENDBRANCH  12  15
ENDBRANCH   1  11
BRANCH   8  25
HETATM   25  C   UNL     1      41.016 -15.527   6.477  1.00  0.00     0.270 C 
HETATM   26  N   UNL     1      41.413 -14.241   6.725  1.00  0.00    -0.365 N 
HETATM   27  H   UNL     1      42.270 -13.907   6.301  1.00  0.00     0.159 HD
HETATM   28  H   UNL     1      40.846 -13.649   7.310  1.00  0.00     0.159 HD
HETATM   29  O   UNL     1      39.982 -15.975   6.962  1.00  0.00    -0.266 OA
ENDBRANCH   8  25
TORSDOF 4
ENDMDL
MODEL 10
REMARK VINA RESULT:      -7.4      3.671      9.076
REMARK  4 active torsions:
REMARK  status: ('A' for Active; 'I' for Inactive)
REMARK    1  A    between atoms: C_3  and  C_4 
REMARK    2  A    between atoms: C_5  and  C_6 
REMARK       I    between atoms: C_6  and  N_7 
REMARK    3  A    between atoms: N_7  and  C_8 
REMARK    4  A    between atoms: C_15  and  C_16 
REMARK       I    between atoms: C_16  and  N_17 
ROOT
HETATM    1  C   UNL     1      43.226 -11.865   6.285  1.00  0.00     0.035 A 
HETATM    2  C   UNL     1      43.178 -13.235   5.993  1.00  0.00     0.046 A 
HETATM    3  C   UNL     1      42.985 -13.660   4.660  1.00  0.00     0.030 A 
HETATM    4  C   UNL     1      42.848 -12.702   3.665  1.00  0.00     0.063 A 
HETATM    5  N   UNL     1      42.671 -13.405   2.506  1.00  0.00    -0.277 N 
HETATM    6  H   UNL     1      42.534 -13.030   1.575  1.00  0.00     0.189 HD
HETATM    7  N   UNL     1      42.686 -14.740   2.657  1.00  0.00    -0.168 NA
HETATM    8  C   UNL     1      42.880 -14.913   3.985  1.00  0.00     0.156 A 
HETATM    9  C   UNL     1      42.898 -11.329   3.916  1.00  0.00     0.034 A 
HETATM   10  C   UNL     1      43.093 -10.934   5.246  1.00  0.00     0.032 A 
ENDROOT
BRANCH   1  11
HETATM   11  N   UNL     1      43.395 -11.345   7.587  1.00  0.00    -0.327 N 
HETATM   12  C   UNL     1      44.573 -10.940   8.180  1.00  0.00     0.227 C 
HETATM   13  O   UNL     1      45.684 -10.934   7.673  1.00  0.00    -0.273 OA
HETATM   14  H   UNL     1      42.563 -11.309   8.158  1.00  0.00     0.169 HD
BRANCH  12  15
HETATM   15  C   UNL     1      44.473 -10.499   9.603  1.00  0.00     0.087 A 
HETATM   16  C   UNL     1      44.279  -9.020   9.924  1.00  0.00     0.034 A 
HETATM   17  C   UNL     1      45.523  -9.753  10.374  1.00  0.00     0.025 A 
BRANCH  16  18
HETATM   18  C   UNL     1      43.176  -8.630  10.889  1.00  0.00    -0.031 A 
HETATM   19  C   UNL     1      43.494  -8.393  12.243  1.00  0.00     0.009 A 
HETATM   20  C   UNL     1      42.518  -8.056  13.183  1.00  0.00     0.001 A 
HETATM   21  C   UNL     1      41.187  -7.952  12.795  1.00  0.00     0.002 A 
HETATM   22  C   UNL     1      40.836  -8.195  11.470  1.00  0.00     0.024 A 
HETATM   23  C   UNL     1      41.817  -8.538  10.531  1.00  0.00     0.040 A 
HETATM   24 CL   UNL     1      41.292  -8.875   8.917  1.00  0.00    -0.084 Cl
ENDBRANCH  16  18
ENDBRANCH  12  15
ENDBRANCH   1  11
BRANCH   8  25
HETATM   25  C   UNL     1      42.961 -16.258   4.571  1.00  0.00     0.270 C 
HETATM   26  N   UNL     1      41.887 -16.595   5.350  1.00  0.00    -0.365 N 
HETATM   27  H   UNL     1      41.137 -15.923   5.459  1.00  0.00     0.159 HD
HETATM   28  H   UNL     1      41.854 -17.501   5.788  1.00  0.00     0.159 HD
HETATM   29  O   UNL     1      43.890 -17.041   4.403  1.00  0.00    -0.266 OA
ENDBRANCH   8  25
TORSDOF 4
ENDMDL
