MODEL 1
REMARK VINA RESULT:      -8.5      0.000      0.000
REMARK  9 active torsions:
REMARK  status: ('A' for Active; 'I' for Inactive)
REMARK    1  A    between atoms: N_2  and  C_4 
REMARK    2  A    between atoms: N_2  and  C_10 
REMARK    3  A    between atoms: C_10  and  C_11 
REMARK    4  A    between atoms: N_12  and  C_13 
REMARK    5  A    between atoms: C_17  and  N_18 
REMARK    6  A    between atoms: C_21  and  C_22 
REMARK       I    between atoms: C_22  and  N_23 
REMARK    7  A    between atoms: N_23  and  N_24 
REMARK    8  A    between atoms: C_25  and  C_26 
REMARK    9  A    between atoms: C_27  and  O_28 
ROOT
HETATM    1  C   UNL     1      40.814 -10.525   6.745  1.00  0.00     0.102 A 
HETATM    2  N   UNL     1      39.683 -10.197   7.509  1.00  0.00    -0.191 N 
HETATM    3  N   UNL     1      38.665 -11.027   7.155  1.00  0.00    -0.058 NA
HETATM    4  N   UNL     1      39.115 -11.940   6.316  1.00  0.00    -0.124 NA
HETATM    5  C   UNL     1      40.430 -11.678   6.065  1.00  0.00     0.176 A 
ENDROOT
BRANCH   5   6
HETATM    6  C   UNL     1      41.231 -12.514   5.184  1.00  0.00     0.294 C 
HETATM    7  N   UNL     1      41.693 -13.681   5.764  1.00  0.00    -0.242 N 
HETATM    8  H   UNL     1      41.485 -13.888   6.739  1.00  0.00     0.192 HD
HETATM    9  O   UNL     1      41.429 -12.184   4.016  1.00  0.00    -0.264 OA
BRANCH   7  10
HETATM   10  N   UNL     1      42.366 -14.578   4.994  1.00  0.00    -0.183 NA
HETATM   11  C   UNL     1      42.071 -15.828   5.176  1.00  0.00     0.153 C 
BRANCH  11  12
HETATM   12  C   UNL     1      42.729 -16.878   4.370  1.00  0.00     0.018 A 
HETATM   13  C   UNL     1      42.799 -16.810   2.971  1.00  0.00     0.077 A 
HETATM   14  C   UNL     1      43.412 -17.828   2.246  1.00  0.00     0.039 A 
HETATM   15  C   UNL     1      43.963 -18.922   2.916  1.00  0.00     0.026 A 
HETATM   16  C   UNL     1      43.895 -18.988   4.307  1.00  0.00     0.035 A 
HETATM   17 CL   UNL     1      44.574 -20.338   5.130  1.00  0.00    -0.084 Cl
HETATM   18  C   UNL     1      43.281 -17.973   5.042  1.00  0.00     0.039 A 
BRANCH  13  19
HETATM   19  O   UNL     1      42.281 -15.773   2.243  1.00  0.00    -0.360 OA
HETATM   20  H   UNL     1      41.482 -16.103   1.777  1.00  0.00     0.217 HD
ENDBRANCH  13  19
ENDBRANCH  11  12
ENDBRANCH   7  10
ENDBRANCH   5   6
BRANCH   1  21
HETATM   21  C   UNL     1      42.098  -9.768   6.830  1.00  0.00     0.296 C 
BRANCH  21  22
HETATM   22  N   UNL     1      43.073 -10.176   7.925  1.00  0.00    -0.065 N 
HETATM   23  C   UNL     1      43.818 -11.433   7.526  1.00  0.00     0.270 C 
HETATM   24  H   UNL     1      42.506 -10.437   8.757  1.00  0.00     0.280 HD
BRANCH  22  25
HETATM   25  C   UNL     1      44.023  -9.046   8.363  1.00  0.00     0.188 C 
HETATM   26  C   UNL     1      43.289  -7.931   9.132  1.00  0.00     0.033 C 
HETATM   27  C   UNL     1      42.761  -8.380  10.494  1.00  0.00     0.002 C 
HETATM   28  C   UNL     1      43.865  -8.983  11.357  1.00  0.00     0.000 C 
HETATM   29  C   UNL     1      44.656 -10.063  10.626  1.00  0.00     0.002 C 
HETATM   30  C   UNL     1      45.156  -9.574   9.267  1.00  0.00     0.033 C 
ENDBRANCH  22  25
ENDBRANCH  21  22
ENDBRANCH   1  21
BRANCH   2  31
HETATM   31  C   UNL     1      39.527  -9.210   8.514  1.00  0.00     0.229 A 
HETATM   32  N   UNL     1      39.740  -7.923   8.230  1.00  0.00    -0.081 NA
HETATM   33  O   UNL     1      39.511  -7.272   9.446  1.00  0.00    -0.103 OA
HETATM   34  N   UNL     1      39.165  -8.175  10.441  1.00  0.00    -0.083 NA
HETATM   35  C   UNL     1      39.180  -9.376   9.866  1.00  0.00     0.201 A 
BRANCH  35  36
HETATM   36  N   UNL     1      38.894 -10.526  10.500  1.00  0.00    -0.379 N 
HETATM   37  H   UNL     1      38.107 -11.088  10.189  1.00  0.00     0.158 HD
HETATM   38  H   UNL     1      39.225 -10.744  11.437  1.00  0.00     0.158 HD
ENDBRANCH  35  36
ENDBRANCH   2  31
TORSDOF 9
ENDMDL
MODEL 2
REMARK VINA RESULT:      -8.4      3.889      9.094
REMARK  9 active torsions:
REMARK  status: ('A' for Active; 'I' for Inactive)
REMARK    1  A    between atoms: N_2  and  C_4 
REMARK    2  A    between atoms: N_2  and  C_10 
REMARK    3  A    between atoms: C_10  and  C_11 
REMARK    4  A    between atoms: N_12  and  C_13 
REMARK    5  A    between atoms: C_17  and  N_18 
REMARK    6  A    between atoms: C_21  and  C_22 
REMARK       I    between atoms: C_22  and  N_23 
REMARK    7  A    between atoms: N_23  and  N_24 
REMARK    8  A    between atoms: C_25  and  C_26 
REMARK    9  A    between atoms: C_27  and  O_28 
ROOT
HETATM    1  C   UNL     1      42.158 -12.628   4.290  1.00  0.00     0.102 A 
HETATM    2  N   UNL     1      41.991 -12.637   2.897  1.00  0.00    -0.191 N 
HETATM    3  N   UNL     1      42.571 -11.519   2.383  1.00  0.00    -0.058 NA
HETATM    4  N   UNL     1      43.206 -10.874   3.342  1.00  0.00    -0.124 NA
HETATM    5  C   UNL     1      42.995 -11.538   4.515  1.00  0.00     0.176 A 
ENDROOT
BRANCH   5   6
HETATM    6  C   UNL     1      43.576 -11.091   5.772  1.00  0.00     0.294 C 
HETATM    7  N   UNL     1      42.749 -10.284   6.531  1.00  0.00    -0.242 N 
HETATM    8  H   UNL     1      41.824 -10.029   6.189  1.00  0.00     0.192 HD
HETATM    9  O   UNL     1      44.703 -11.452   6.105  1.00  0.00    -0.264 OA
BRANCH   7  10
HETATM   10  N   UNL     1      43.161  -9.896   7.768  1.00  0.00    -0.183 NA
HETATM   11  C   UNL     1      42.242  -9.446   8.565  1.00  0.00     0.153 C 
BRANCH  11  12
HETATM   12  C   UNL     1      42.584  -9.024   9.940  1.00  0.00     0.018 A 
HETATM   13  C   UNL     1      43.158  -9.903  10.869  1.00  0.00     0.077 A 
HETATM   14  C   UNL     1      43.450  -9.472  12.160  1.00  0.00     0.039 A 
HETATM   15  C   UNL     1      43.172  -8.156  12.531  1.00  0.00     0.026 A 
HETATM   16  C   UNL     1      42.604  -7.281  11.606  1.00  0.00     0.035 A 
HETATM   17 CL   UNL     1      42.260  -5.659  12.067  1.00  0.00    -0.084 Cl
HETATM   18  C   UNL     1      42.306  -7.705  10.310  1.00  0.00     0.039 A 
BRANCH  13  19
HETATM   19  O   UNL     1      43.458 -11.207  10.582  1.00  0.00    -0.360 OA
HETATM   20  H   UNL     1      44.239 -11.461  11.121  1.00  0.00     0.217 HD
ENDBRANCH  13  19
ENDBRANCH  11  12
ENDBRANCH   7  10
ENDBRANCH   5   6
BRANCH   1  21
HETATM   21  C   UNL     1      41.584 -13.678   5.183  1.00  0.00     0.296 C 
BRANCH  21  22
HETATM   22  N   UNL     1      42.519 -14.791   5.634  1.00  0.00    -0.065 N 
HETATM   23  C   UNL     1      43.067 -14.492   7.014  1.00  0.00     0.270 C 
HETATM   24  H   UNL     1      43.339 -14.779   4.996  1.00  0.00     0.280 HD
BRANCH  22  25
HETATM   25  C   UNL     1      41.897 -16.198   5.543  1.00  0.00     0.188 C 
HETATM   26  C   UNL     1      41.654 -16.636   4.086  1.00  0.00     0.033 C 
HETATM   27  C   UNL     1      42.943 -16.860   3.296  1.00  0.00     0.002 C 
HETATM   28  C   UNL     1      43.872 -17.846   4.000  1.00  0.00     0.000 C 
HETATM   29  C   UNL     1      44.110 -17.484   5.463  1.00  0.00     0.002 C 
HETATM   30  C   UNL     1      42.796 -17.260   6.210  1.00  0.00     0.033 C 
ENDBRANCH  22  25
ENDBRANCH  21  22
ENDBRANCH   1  21
BRANCH   2  31
HETATM   31  C   UNL     1      41.365 -13.602   2.069  1.00  0.00     0.229 A 
HETATM   32  N   UNL     1      42.082 -14.287   1.175  1.00  0.00    -0.081 NA
HETATM   33  O   UNL     1      41.139 -15.109   0.551  1.00  0.00    -0.103 OA
HETATM   34  N   UNL     1      39.872 -14.907   1.078  1.00  0.00    -0.083 NA
HETATM   35  C   UNL     1      40.010 -13.970   2.014  1.00  0.00     0.201 A 
BRANCH  35  36
HETATM   36  N   UNL     1      39.004 -13.493   2.766  1.00  0.00    -0.379 N 
HETATM   37  H   UNL     1      38.273 -14.123   3.085  1.00  0.00     0.158 HD
HETATM   38  H   UNL     1      38.759 -12.506   2.811  1.00  0.00     0.158 HD
ENDBRANCH  35  36
ENDBRANCH   2  31
TORSDOF 9
ENDMDL
MODEL 3
REMARK VINA RESULT:      -8.3      4.203      8.852
REMARK  9 active torsions:
REMARK  status: ('A' for Active; 'I' for Inactive)
REMARK    1  A    between atoms: N_2  and  C_4 
REMARK    2  A    between atoms: N_2  and  C_10 
REMARK    3  A    between atoms: C_10  and  C_11 
REMARK    4  A    between atoms: N_12  and  C_13 
REMARK    5  A    between atoms: C_17  and  N_18 
REMARK    6  A    between atoms: C_21  and  C_22 
REMARK       I    between atoms: C_22  and  N_23 
REMARK    7  A    between atoms: N_23  and  N_24 
REMARK    8  A    between atoms: C_25  and  C_26 
REMARK    9  A    between atoms: C_27  and  O_28 
ROOT
HETATM    1  C   UNL     1      41.941 -12.859   2.162  1.00  0.00     0.102 A 
HETATM    2  N   UNL     1      41.261 -12.495   0.989  1.00  0.00    -0.191 N 
HETATM    3  N   UNL     1      41.302 -11.141   0.866  1.00  0.00    -0.058 NA
HETATM    4  N   UNL     1      42.074 -10.638   1.810  1.00  0.00    -0.124 NA
HETATM    5  C   UNL     1      42.501 -11.663   2.603  1.00  0.00     0.176 A 
ENDROOT
BRANCH   5   6
HETATM    6  C   UNL     1      43.387 -11.447   3.736  1.00  0.00     0.294 C 
HETATM    7  N   UNL     1      42.741 -11.155   4.923  1.00  0.00    -0.242 N 
HETATM    8  H   UNL     1      41.725 -11.085   4.952  1.00  0.00     0.192 HD
HETATM    9  O   UNL     1      44.606 -11.555   3.608  1.00  0.00    -0.264 OA
BRANCH   7  10
HETATM   10  N   UNL     1      43.476 -11.035   6.061  1.00  0.00    -0.183 NA
HETATM   11  C   UNL     1      43.081 -10.135   6.907  1.00  0.00     0.153 C 
BRANCH  11  12
HETATM   12  C   UNL     1      43.797  -9.943   8.187  1.00  0.00     0.018 A 
HETATM   13  C   UNL     1      45.196  -9.978   8.270  1.00  0.00     0.077 A 
HETATM   14  C   UNL     1      45.833  -9.810   9.497  1.00  0.00     0.039 A 
HETATM   15  C   UNL     1      45.075  -9.604  10.650  1.00  0.00     0.026 A 
HETATM   16  C   UNL     1      43.683  -9.567  10.566  1.00  0.00     0.035 A 
HETATM   17 CL   UNL     1      42.750  -9.314  11.989  1.00  0.00    -0.084 Cl
HETATM   18  C   UNL     1      43.036  -9.736   9.341  1.00  0.00     0.039 A 
BRANCH  13  19
HETATM   19  O   UNL     1      46.009 -10.177   7.187  1.00  0.00    -0.360 OA
HETATM   20  H   UNL     1      46.231 -11.133   7.150  1.00  0.00     0.217 HD
ENDBRANCH  13  19
ENDBRANCH  11  12
ENDBRANCH   7  10
ENDBRANCH   5   6
BRANCH   1  21
HETATM   21  C   UNL     1      42.034 -14.270   2.640  1.00  0.00     0.296 C 
BRANCH  21  22
HETATM   22  N   UNL     1      41.439 -14.580   4.007  1.00  0.00    -0.065 N 
HETATM   23  C   UNL     1      40.199 -13.743   4.244  1.00  0.00     0.270 C 
HETATM   24  H   UNL     1      42.130 -14.267   4.718  1.00  0.00     0.280 HD
BRANCH  22  25
HETATM   25  C   UNL     1      41.189 -16.080   4.249  1.00  0.00     0.188 C 
HETATM   26  C   UNL     1      42.464 -16.923   4.056  1.00  0.00     0.033 C 
HETATM   27  C   UNL     1      43.535 -16.656   5.113  1.00  0.00     0.002 C 
HETATM   28  C   UNL     1      42.989 -16.834   6.526  1.00  0.00     0.000 C 
HETATM   29  C   UNL     1      41.697 -16.055   6.759  1.00  0.00     0.002 C 
HETATM   30  C   UNL     1      40.661 -16.345   5.673  1.00  0.00     0.033 C 
ENDBRANCH  22  25
ENDBRANCH  21  22
ENDBRANCH   1  21
BRANCH   2  31
HETATM   31  C   UNL     1      40.627 -13.314   0.021  1.00  0.00     0.229 A 
HETATM   32  N   UNL     1      39.882 -14.352   0.404  1.00  0.00    -0.081 NA
HETATM   33  O   UNL     1      39.449 -14.914  -0.801  1.00  0.00    -0.103 OA
HETATM   34  N   UNL     1      39.940 -14.206  -1.889  1.00  0.00    -0.083 NA
HETATM   35  C   UNL     1      40.674 -13.218  -1.381  1.00  0.00     0.201 A 
BRANCH  35  36
HETATM   36  N   UNL     1      41.324 -12.299  -2.115  1.00  0.00    -0.379 N 
HETATM   37  H   UNL     1      41.340 -11.331  -1.807  1.00  0.00     0.158 HD
HETATM   38  H   UNL     1      41.565 -12.435  -3.094  1.00  0.00     0.158 HD
ENDBRANCH  35  36
ENDBRANCH   2  31
TORSDOF 9
ENDMDL
MODEL 4
REMARK VINA RESULT:      -8.3      4.803      9.217
REMARK  9 active torsions:
REMARK  status: ('A' for Active; 'I' for Inactive)
REMARK    1  A    between atoms: N_2  and  C_4 
REMARK    2  A    between atoms: N_2  and  C_10 
REMARK    3  A    between atoms: C_10  and  C_11 
REMARK    4  A    between atoms: N_12  and  C_13 
REMARK    5  A    between atoms: C_17  and  N_18 
REMARK    6  A    between atoms: C_21  and  C_22 
REMARK       I    between atoms: C_22  and  N_23 
REMARK    7  A    between atoms: N_23  and  N_24 
REMARK    8  A    between atoms: C_25  and  C_26 
REMARK    9  A    between atoms: C_27  and  O_28 
ROOT
HETATM    1  C   UNL     1      41.197 -12.752   0.900  1.00  0.00     0.102 A 
HETATM    2  N   UNL     1      40.698 -12.236  -0.306  1.00  0.00    -0.191 N 
HETATM    3  N   UNL     1      40.943 -10.898  -0.340  1.00  0.00    -0.058 NA
HETATM    4  N   UNL     1      41.679 -10.561   0.700  1.00  0.00    -0.124 NA
HETATM    5  C   UNL     1      41.874 -11.674   1.464  1.00  0.00     0.176 A 
ENDROOT
BRANCH   5   6
HETATM    6  C   UNL     1      42.663 -11.644   2.686  1.00  0.00     0.294 C 
HETATM    7  N   UNL     1      42.525 -10.488   3.432  1.00  0.00    -0.242 N 
HETATM    8  H   UNL     1      41.926  -9.733   3.103  1.00  0.00     0.192 HD
HETATM    9  O   UNL     1      43.360 -12.607   3.005  1.00  0.00    -0.264 OA
BRANCH   7  10
HETATM   10  N   UNL     1      43.144 -10.405   4.640  1.00  0.00    -0.183 NA
HETATM   11  C   UNL     1      42.371 -10.328   5.678  1.00  0.00     0.153 C 
BRANCH  11  12
HETATM   12  C   UNL     1      42.946 -10.260   7.039  1.00  0.00     0.018 A 
HETATM   13  C   UNL     1      44.157 -10.885   7.367  1.00  0.00     0.077 A 
HETATM   14  C   UNL     1      44.657 -10.812   8.664  1.00  0.00     0.039 A 
HETATM   15  C   UNL     1      43.951 -10.112   9.642  1.00  0.00     0.026 A 
HETATM   16  C   UNL     1      42.747  -9.488   9.314  1.00  0.00     0.035 A 
HETATM   17 CL   UNL     1      41.877  -8.626  10.522  1.00  0.00    -0.084 Cl
HETATM   18  C   UNL     1      42.237  -9.557   8.017  1.00  0.00     0.039 A 
BRANCH  13  19
HETATM   19  O   UNL     1      44.906 -11.592   6.466  1.00  0.00    -0.360 OA
HETATM   20  H   UNL     1      44.302 -11.923   5.767  1.00  0.00     0.217 HD
ENDBRANCH  13  19
ENDBRANCH  11  12
ENDBRANCH   7  10
ENDBRANCH   5   6
BRANCH   1  21
HETATM   21  C   UNL     1      41.039 -14.182   1.297  1.00  0.00     0.296 C 
BRANCH  21  22
HETATM   22  N   UNL     1      40.840 -14.473   2.778  1.00  0.00    -0.065 N 
HETATM   23  C   UNL     1      39.665 -13.682   3.317  1.00  0.00     0.270 C 
HETATM   24  H   UNL     1      41.676 -14.109   3.276  1.00  0.00     0.280 HD
BRANCH  22  25
HETATM   25  C   UNL     1      40.735 -15.974   3.107  1.00  0.00     0.188 C 
HETATM   26  C   UNL     1      41.794 -16.810   2.362  1.00  0.00     0.033 C 
HETATM   27  C   UNL     1      43.223 -16.531   2.826  1.00  0.00     0.002 C 
HETATM   28  C   UNL     1      43.371 -16.708   4.335  1.00  0.00     0.000 C 
HETATM   29  C   UNL     1      42.316 -15.937   5.122  1.00  0.00     0.002 C 
HETATM   30  C   UNL     1      40.904 -16.238   4.617  1.00  0.00     0.033 C 
ENDBRANCH  22  25
ENDBRANCH  21  22
ENDBRANCH   1  21
BRANCH   2  31
HETATM   31  C   UNL     1      40.054 -12.905  -1.377  1.00  0.00     0.229 A 
HETATM   32  N   UNL     1      38.838 -13.427  -1.209  1.00  0.00    -0.081 NA
HETATM   33  O   UNL     1      38.549 -14.005  -2.449  1.00  0.00    -0.103 OA
HETATM   34  N   UNL     1      39.595 -13.823  -3.342  1.00  0.00    -0.083 NA
HETATM   35  C   UNL     1      40.530 -13.146  -2.678  1.00  0.00     0.201 A 
BRANCH  35  36
HETATM   36  N   UNL     1      41.708 -12.766  -3.199  1.00  0.00    -0.379 N 
HETATM   37  H   UNL     1      41.738 -12.005  -3.872  1.00  0.00     0.158 HD
HETATM   38  H   UNL     1      42.539 -13.354  -3.191  1.00  0.00     0.158 HD
ENDBRANCH  35  36
ENDBRANCH   2  31
TORSDOF 9
ENDMDL
MODEL 5
REMARK VINA RESULT:      -8.0      4.631      7.245
REMARK  9 active torsions:
REMARK  status: ('A' for Active; 'I' for Inactive)
REMARK    1  A    between atoms: N_2  and  C_4 
REMARK    2  A    between atoms: N_2  and  C_10 
REMARK    3  A    between atoms: C_10  and  C_11 
REMARK    4  A    between atoms: N_12  and  C_13 
REMARK    5  A    between atoms: C_17  and  N_18 
REMARK    6  A    between atoms: C_21  and  C_22 
REMARK       I    between atoms: C_22  and  N_23 
REMARK    7  A    between atoms: N_23  and  N_24 
REMARK    8  A    between atoms: C_25  and  C_26 
REMARK    9  A    between atoms: C_27  and  O_28 
ROOT
HETATM    1  C   UNL     1      42.399 -11.620   5.005  1.00  0.00     0.102 A 
HETATM    2  N   UNL     1      42.830 -10.835   6.086  1.00  0.00    -0.191 N 
HETATM    3  N   UNL     1      41.866  -9.918   6.368  1.00  0.00    -0.058 NA
HETATM    4  N   UNL     1      40.802 -10.158   5.626  1.00  0.00    -0.124 NA
HETATM    5  C   UNL     1      41.085 -11.207   4.801  1.00  0.00     0.176 A 
ENDROOT
BRANCH   5   6
HETATM    6  C   UNL     1      40.109 -11.735   3.860  1.00  0.00     0.294 C 
HETATM    7  N   UNL     1      40.283 -11.312   2.555  1.00  0.00    -0.242 N 
HETATM    8  H   UNL     1      41.032 -10.664   2.320  1.00  0.00     0.192 HD
HETATM    9  O   UNL     1      39.237 -12.517   4.235  1.00  0.00    -0.264 OA
BRANCH   7  10
HETATM   10  N   UNL     1      39.484 -11.828   1.583  1.00  0.00    -0.183 NA
HETATM   11  C   UNL     1      40.038 -12.026   0.428  1.00  0.00     0.153 C 
BRANCH  11  12
HETATM   12  C   UNL     1      39.261 -12.607  -0.688  1.00  0.00     0.018 A 
HETATM   13  C   UNL     1      39.541 -13.879  -1.207  1.00  0.00     0.077 A 
HETATM   14  C   UNL     1      38.797 -14.386  -2.269  1.00  0.00     0.039 A 
HETATM   15  C   UNL     1      37.765 -13.624  -2.819  1.00  0.00     0.026 A 
HETATM   16  C   UNL     1      37.485 -12.360  -2.300  1.00  0.00     0.035 A 
HETATM   17 CL   UNL     1      36.213 -11.422  -2.980  1.00  0.00    -0.084 Cl
HETATM   18  C   UNL     1      38.227 -11.844  -1.237  1.00  0.00     0.039 A 
BRANCH  13  19
HETATM   19  O   UNL     1      40.537 -14.685  -0.725  1.00  0.00    -0.360 OA
HETATM   20  H   UNL     1      41.209 -14.788  -1.433  1.00  0.00     0.217 HD
ENDBRANCH  13  19
ENDBRANCH  11  12
ENDBRANCH   7  10
ENDBRANCH   5   6
BRANCH   1  21
HETATM   21  C   UNL     1      43.243 -12.686   4.389  1.00  0.00     0.296 C 
BRANCH  21  22
HETATM   22  N   UNL     1      42.899 -14.128   4.731  1.00  0.00    -0.065 N 
HETATM   23  C   UNL     1      42.538 -14.251   6.197  1.00  0.00     0.270 C 
HETATM   24  H   UNL     1      43.767 -14.687   4.606  1.00  0.00     0.280 HD
BRANCH  22  25
HETATM   25  C   UNL     1      41.829 -14.746   3.810  1.00  0.00     0.188 C 
HETATM   26  C   UNL     1      42.149 -14.534   2.318  1.00  0.00     0.033 C 
HETATM   27  C   UNL     1      43.384 -15.303   1.848  1.00  0.00     0.002 C 
HETATM   28  C   UNL     1      43.275 -16.792   2.162  1.00  0.00     0.000 C 
HETATM   29  C   UNL     1      42.912 -17.058   3.621  1.00  0.00     0.002 C 
HETATM   30  C   UNL     1      41.680 -16.262   4.050  1.00  0.00     0.033 C 
ENDBRANCH  22  25
ENDBRANCH  21  22
ENDBRANCH   1  21
BRANCH   2  31
HETATM   31  C   UNL     1      44.029 -10.913   6.837  1.00  0.00     0.229 A 
HETATM   32  N   UNL     1      45.201 -11.071   6.218  1.00  0.00    -0.081 NA
HETATM   33  O   UNL     1      46.127 -11.121   7.264  1.00  0.00    -0.103 OA
HETATM   34  N   UNL     1      45.499 -10.993   8.494  1.00  0.00    -0.083 NA
HETATM   35  C   UNL     1      44.200 -10.870   8.231  1.00  0.00     0.201 A 
BRANCH  35  36
HETATM   36  N   UNL     1      43.247 -10.719   9.166  1.00  0.00    -0.379 N 
HETATM   37  H   UNL     1      42.396 -10.211   8.939  1.00  0.00     0.158 HD
HETATM   38  H   UNL     1      43.419 -10.828  10.163  1.00  0.00     0.158 HD
ENDBRANCH  35  36
ENDBRANCH   2  31
TORSDOF 9
ENDMDL
MODEL 6
REMARK VINA RESULT:      -7.8      3.782      9.040
REMARK  9 active torsions:
REMARK  status: ('A' for Active; 'I' for Inactive)
REMARK    1  A    between atoms: N_2  and  C_4 
REMARK    2  A    between atoms: N_2  and  C_10 
REMARK    3  A    between atoms: C_10  and  C_11 
REMARK    4  A    between atoms: N_12  and  C_13 
REMARK    5  A    between atoms: C_17  and  N_18 
REMARK    6  A    between atoms: C_21  and  C_22 
REMARK       I    between atoms: C_22  and  N_23 
REMARK    7  A    between atoms: N_23  and  N_24 
REMARK    8  A    between atoms: C_25  and  C_26 
REMARK    9  A    between atoms: C_27  and  O_28 
ROOT
HETATM    1  C   UNL     1      40.059 -11.912   5.376  1.00  0.00     0.102 A 
HETATM    2  N   UNL     1      40.190 -11.521   4.034  1.00  0.00    -0.191 N 
HETATM    3  N   UNL     1      39.806 -10.222   3.921  1.00  0.00    -0.058 NA
HETATM    4  N   UNL     1      39.569  -9.728   5.121  1.00  0.00    -0.124 NA
HETATM    5  C   UNL     1      39.739 -10.727   6.034  1.00  0.00     0.176 A 
ENDROOT
BRANCH   5   6
HETATM    6  C   UNL     1      39.567 -10.507   7.462  1.00  0.00     0.294 C 
HETATM    7  N   UNL     1      40.543  -9.720   8.044  1.00  0.00    -0.242 N 
HETATM    8  H   UNL     1      41.316  -9.363   7.486  1.00  0.00     0.192 HD
HETATM    9  O   UNL     1      38.598 -10.978   8.055  1.00  0.00    -0.264 OA
BRANCH   7  10
HETATM   10  N   UNL     1      40.417  -9.374   9.353  1.00  0.00    -0.183 NA
HETATM   11  C   UNL     1      41.377  -9.747  10.142  1.00  0.00     0.153 C 
BRANCH  11  12
HETATM   12  C   UNL     1      41.346  -9.397  11.578  1.00  0.00     0.018 A 
HETATM   13  C   UNL     1      40.351  -9.877  12.441  1.00  0.00     0.077 A 
HETATM   14  C   UNL     1      40.347  -9.511  13.784  1.00  0.00     0.039 A 
HETATM   15  C   UNL     1      41.341  -8.663  14.275  1.00  0.00     0.026 A 
HETATM   16  C   UNL     1      42.332  -8.188  13.417  1.00  0.00     0.035 A 
HETATM   17 CL   UNL     1      43.555  -7.142  14.024  1.00  0.00    -0.084 Cl
HETATM   18  C   UNL     1      42.343  -8.548  12.069  1.00  0.00     0.039 A 
BRANCH  13  19
HETATM   19  O   UNL     1      39.343 -10.709  12.036  1.00  0.00    -0.360 OA
HETATM   20  H   UNL     1      39.036 -10.402  11.155  1.00  0.00     0.217 HD
ENDBRANCH  13  19
ENDBRANCH  11  12
ENDBRANCH   7  10
ENDBRANCH   5   6
BRANCH   1  21
HETATM   21  C   UNL     1      40.334 -13.301   5.846  1.00  0.00     0.296 C 
BRANCH  21  22
HETATM   22  N   UNL     1      41.712 -13.875   5.550  1.00  0.00    -0.065 N 
HETATM   23  C   UNL     1      42.775 -13.118   6.320  1.00  0.00     0.270 C 
HETATM   24  H   UNL     1      41.909 -13.692   4.545  1.00  0.00     0.280 HD
BRANCH  22  25
HETATM   25  C   UNL     1      41.809 -15.398   5.759  1.00  0.00     0.188 C 
HETATM   26  C   UNL     1      40.660 -16.157   5.068  1.00  0.00     0.033 C 
HETATM   27  C   UNL     1      40.721 -16.091   3.543  1.00  0.00     0.002 C 
HETATM   28  C   UNL     1      42.069 -16.569   3.011  1.00  0.00     0.000 C 
HETATM   29  C   UNL     1      43.247 -15.881   3.696  1.00  0.00     0.002 C 
HETATM   30  C   UNL     1      43.139 -15.962   5.219  1.00  0.00     0.033 C 
ENDBRANCH  22  25
ENDBRANCH  21  22
ENDBRANCH   1  21
BRANCH   2  31
HETATM   31  C   UNL     1      40.651 -12.264   2.918  1.00  0.00     0.229 A 
HETATM   32  N   UNL     1      41.946 -12.564   2.800  1.00  0.00    -0.081 NA
HETATM   33  O   UNL     1      42.017 -13.268   1.595  1.00  0.00    -0.103 OA
HETATM   34  N   UNL     1      40.764 -13.382   1.007  1.00  0.00    -0.083 NA
HETATM   35  C   UNL     1      39.920 -12.755   1.823  1.00  0.00     0.201 A 
BRANCH  35  36
HETATM   36  N   UNL     1      38.598 -12.644   1.609  1.00  0.00    -0.379 N 
HETATM   37  H   UNL     1      38.073 -11.911   2.078  1.00  0.00     0.158 HD
HETATM   38  H   UNL     1      38.027 -13.398   1.235  1.00  0.00     0.158 HD
ENDBRANCH  35  36
ENDBRANCH   2  31
TORSDOF 9
ENDMDL
MODEL 7
REMARK VINA RESULT:      -7.8      1.941      2.634
REMARK  9 active torsions:
REMARK  status: ('A' for Active; 'I' for Inactive)
REMARK    1  A    between atoms: N_2  and  C_4 
REMARK    2  A    between atoms: N_2  and  C_10 
REMARK    3  A    between atoms: C_10  and  C_11 
REMARK    4  A    between atoms: N_12  and  C_13 
REMARK    5  A    between atoms: C_17  and  N_18 
REMARK    6  A    between atoms: C_21  and  C_22 
REMARK       I    between atoms: C_22  and  N_23 
REMARK    7  A    between atoms: N_23  and  N_24 
REMARK    8  A    between atoms: C_25  and  C_26 
REMARK    9  A    between atoms: C_27  and  O_28 
ROOT
HETATM    1  C   UNL     1      40.149  -9.548   8.251  1.00  0.00     0.102 A 
HETATM    2  N   UNL     1      39.556  -9.489   9.521  1.00  0.00    -0.191 N 
HETATM    3  N   UNL     1      38.483 -10.326   9.539  1.00  0.00    -0.058 NA
HETATM    4  N   UNL     1      38.440 -11.006   8.410  1.00  0.00    -0.124 NA
HETATM    5  C   UNL     1      39.458 -10.574   7.612  1.00  0.00     0.176 A 
ENDROOT
BRANCH   5   6
HETATM    6  C   UNL     1      39.699 -11.137   6.292  1.00  0.00     0.294 C 
HETATM    7  N   UNL     1      40.530 -12.242   6.281  1.00  0.00    -0.242 N 
HETATM    8  H   UNL     1      40.938 -12.586   7.149  1.00  0.00     0.192 HD
HETATM    9  O   UNL     1      39.159 -10.654   5.297  1.00  0.00    -0.264 OA
BRANCH   7  10
HETATM   10  N   UNL     1      40.736 -12.901   5.110  1.00  0.00    -0.183 NA
HETATM   11  C   UNL     1      40.615 -14.191   5.147  1.00  0.00     0.153 C 
BRANCH  11  12
HETATM   12  C   UNL     1      40.794 -14.997   3.920  1.00  0.00     0.018 A 
HETATM   13  C   UNL     1      39.944 -14.867   2.813  1.00  0.00     0.077 A 
HETATM   14  C   UNL     1      40.135 -15.656   1.682  1.00  0.00     0.039 A 
HETATM   15  C   UNL     1      41.180 -16.580   1.649  1.00  0.00     0.026 A 
HETATM   16  C   UNL     1      42.028 -16.706   2.749  1.00  0.00     0.035 A 
HETATM   17 CL   UNL     1      43.315 -17.847   2.707  1.00  0.00    -0.084 Cl
HETATM   18  C   UNL     1      41.842 -15.921   3.888  1.00  0.00     0.039 A 
BRANCH  13  19
HETATM   19  O   UNL     1      38.897 -13.987   2.769  1.00  0.00    -0.360 OA
HETATM   20  H   UNL     1      38.822 -13.565   3.653  1.00  0.00     0.217 HD
ENDBRANCH  13  19
ENDBRANCH  11  12
ENDBRANCH   7  10
ENDBRANCH   5   6
BRANCH   1  21
HETATM   21  C   UNL     1      41.316  -8.703   7.861  1.00  0.00     0.296 C 
BRANCH  21  22
HETATM   22  N   UNL     1      42.702  -9.302   8.053  1.00  0.00    -0.065 N 
HETATM   23  C   UNL     1      43.154 -10.002   6.788  1.00  0.00     0.270 C 
HETATM   24  H   UNL     1      42.615 -10.047   8.772  1.00  0.00     0.280 HD
BRANCH  22  25
HETATM   25  C   UNL     1      43.747  -8.295   8.571  1.00  0.00     0.188 C 
HETATM   26  C   UNL     1      43.573  -7.994  10.072  1.00  0.00     0.033 C 
HETATM   27  C   UNL     1      43.885  -9.191  10.971  1.00  0.00     0.002 C 
HETATM   28  C   UNL     1      45.277  -9.754  10.698  1.00  0.00     0.000 C 
HETATM   29  C   UNL     1      45.519 -10.027   9.217  1.00  0.00     0.002 C 
HETATM   30  C   UNL     1      45.185  -8.808   8.356  1.00  0.00     0.033 C 
ENDBRANCH  22  25
ENDBRANCH  21  22
ENDBRANCH   1  21
BRANCH   2  31
HETATM   31  C   UNL     1      39.938  -8.741  10.663  1.00  0.00     0.229 A 
HETATM   32  N   UNL     1      40.442  -9.359  11.733  1.00  0.00    -0.081 NA
HETATM   33  O   UNL     1      40.677  -8.320  12.638  1.00  0.00    -0.103 OA
HETATM   34  N   UNL     1      40.311  -7.095  12.100  1.00  0.00    -0.083 NA
HETATM   35  C   UNL     1      39.849  -7.355  10.879  1.00  0.00     0.201 A 
BRANCH  35  36
HETATM   36  N   UNL     1      39.395  -6.424  10.024  1.00  0.00    -0.379 N 
HETATM   37  H   UNL     1      39.752  -6.397   9.073  1.00  0.00     0.158 HD
HETATM   38  H   UNL     1      38.930  -5.569  10.323  1.00  0.00     0.158 HD
ENDBRANCH  35  36
ENDBRANCH   2  31
TORSDOF 9
ENDMDL
MODEL 8
REMARK VINA RESULT:      -7.6     18.621     21.057
REMARK  9 active torsions:
REMARK  status: ('A' for Active; 'I' for Inactive)
REMARK    1  A    between atoms: N_2  and  C_4 
REMARK    2  A    between atoms: N_2  and  C_10 
REMARK    3  A    between atoms: C_10  and  C_11 
REMARK    4  A    between atoms: N_12  and  C_13 
REMARK    5  A    between atoms: C_17  and  N_18 
REMARK    6  A    between atoms: C_21  and  C_22 
REMARK       I    between atoms: C_22  and  N_23 
REMARK    7  A    between atoms: N_23  and  N_24 
REMARK    8  A    between atoms: C_25  and  C_26 
REMARK    9  A    between atoms: C_27  and  O_28 
ROOT
HETATM    1  C   UNL     1      46.043 -29.953   0.779  1.00  0.00     0.102 A 
HETATM    2  N   UNL     1      45.198 -29.276   1.673  1.00  0.00    -0.191 N 
HETATM    3  N   UNL     1      45.906 -28.277   2.266  1.00  0.00    -0.058 NA
HETATM    4  N   UNL     1      47.098 -28.194   1.710  1.00  0.00    -0.124 NA
HETATM    5  C   UNL     1      47.205 -29.186   0.780  1.00  0.00     0.176 A 
ENDROOT
BRANCH   5   6
HETATM    6  C   UNL     1      48.402 -29.363  -0.028  1.00  0.00     0.294 C 
HETATM    7  N   UNL     1      49.474 -29.917   0.647  1.00  0.00    -0.242 N 
HETATM    8  H   UNL     1      49.396 -30.147   1.636  1.00  0.00     0.192 HD
HETATM    9  O   UNL     1      48.404 -29.058  -1.219  1.00  0.00    -0.264 OA
BRANCH   7  10
HETATM   10  N   UNL     1      50.607 -30.215  -0.045  1.00  0.00    -0.183 NA
HETATM   11  C   UNL     1      50.793 -31.466  -0.332  1.00  0.00     0.153 C 
BRANCH  11  12
HETATM   12  C   UNL     1      51.981 -31.889  -1.104  1.00  0.00     0.018 A 
HETATM   13  C   UNL     1      52.286 -31.345  -2.360  1.00  0.00     0.077 A 
HETATM   14  C   UNL     1      53.404 -31.782  -3.064  1.00  0.00     0.039 A 
HETATM   15  C   UNL     1      54.228 -32.766  -2.516  1.00  0.00     0.026 A 
HETATM   16  C   UNL     1      53.926 -33.305  -1.266  1.00  0.00     0.035 A 
HETATM   17 CL   UNL     1      54.943 -34.518  -0.593  1.00  0.00    -0.084 Cl
HETATM   18  C   UNL     1      52.806 -32.874  -0.553  1.00  0.00     0.039 A 
BRANCH  13  19
HETATM   19  O   UNL     1      51.527 -30.380  -2.964  1.00  0.00    -0.360 OA
HETATM   20  H   UNL     1      51.480 -30.591  -3.922  1.00  0.00     0.217 HD
ENDBRANCH  13  19
ENDBRANCH  11  12
ENDBRANCH   7  10
ENDBRANCH   5   6
BRANCH   1  21
HETATM   21  C   UNL     1      45.609 -31.152   0.004  1.00  0.00     0.296 C 
BRANCH  21  22
HETATM   22  N   UNL     1      45.676 -31.059  -1.514  1.00  0.00    -0.065 N 
HETATM   23  C   UNL     1      46.200 -32.354  -2.098  1.00  0.00     0.270 C 
HETATM   24  H   UNL     1      46.388 -30.337  -1.744  1.00  0.00     0.280 HD
BRANCH  22  25
HETATM   25  C   UNL     1      44.354 -30.613  -2.168  1.00  0.00     0.188 C 
HETATM   26  C   UNL     1      44.057 -29.121  -1.925  1.00  0.00     0.033 C 
HETATM   27  C   UNL     1      45.036 -28.184  -2.632  1.00  0.00     0.002 C 
HETATM   28  C   UNL     1      45.114 -28.475  -4.128  1.00  0.00     0.000 C 
HETATM   29  C   UNL     1      45.361 -29.951  -4.427  1.00  0.00     0.002 C 
HETATM   30  C   UNL     1      44.367 -30.849  -3.691  1.00  0.00     0.033 C 
ENDBRANCH  22  25
ENDBRANCH  21  22
ENDBRANCH   1  21
BRANCH   2  31
HETATM   31  C   UNL     1      43.830 -29.498   1.966  1.00  0.00     0.229 A 
HETATM   32  N   UNL     1      42.882 -28.882   1.256  1.00  0.00    -0.081 NA
HETATM   33  O   UNL     1      41.690 -29.326   1.836  1.00  0.00    -0.103 OA
HETATM   34  N   UNL     1      41.938 -30.200   2.885  1.00  0.00    -0.083 NA
HETATM   35  C   UNL     1      43.263 -30.303   2.969  1.00  0.00     0.201 A 
BRANCH  35  36
HETATM   36  N   UNL     1      43.910 -31.066   3.866  1.00  0.00    -0.379 N 
HETATM   37  H   UNL     1      44.076 -30.709   4.803  1.00  0.00     0.158 HD
HETATM   38  H   UNL     1      44.492 -31.860   3.608  1.00  0.00     0.158 HD
ENDBRANCH  35  36
ENDBRANCH   2  31
TORSDOF 9
ENDMDL
MODEL 9
REMARK VINA RESULT:      -7.6      2.485      4.463
REMARK  9 active torsions:
REMARK  status: ('A' for Active; 'I' for Inactive)
REMARK    1  A    between atoms: N_2  and  C_4 
REMARK    2  A    between atoms: N_2  and  C_10 
REMARK    3  A    between atoms: C_10  and  C_11 
REMARK    4  A    between atoms: N_12  and  C_13 
REMARK    5  A    between atoms: C_17  and  N_18 
REMARK    6  A    between atoms: C_21  and  C_22 
REMARK       I    between atoms: C_22  and  N_23 
REMARK    7  A    between atoms: N_23  and  N_24 
REMARK    8  A    between atoms: C_25  and  C_26 
REMARK    9  A    between atoms: C_27  and  O_28 
ROOT
HETATM    1  C   UNL     1      42.863  -9.675   8.954  1.00  0.00     0.102 A 
HETATM    2  N   UNL     1      43.051  -9.157  10.245  1.00  0.00    -0.191 N 
HETATM    3  N   UNL     1      43.996  -9.903  10.878  1.00  0.00    -0.058 NA
HETATM    4  N   UNL     1      44.510 -10.772  10.029  1.00  0.00    -0.124 NA
HETATM    5  C   UNL     1      43.858 -10.642   8.838  1.00  0.00     0.176 A 
ENDROOT
BRANCH   5   6
HETATM    6  C   UNL     1      44.198 -11.451   7.678  1.00  0.00     0.294 C 
HETATM    7  N   UNL     1      43.592 -12.694   7.647  1.00  0.00    -0.242 N 
HETATM    8  H   UNL     1      42.982 -12.987   8.407  1.00  0.00     0.192 HD
HETATM    9  O   UNL     1      44.946 -11.012   6.805  1.00  0.00    -0.264 OA
BRANCH   7  10
HETATM   10  N   UNL     1      43.767 -13.485   6.555  1.00  0.00    -0.183 NA
HETATM   11  C   UNL     1      43.073 -14.580   6.521  1.00  0.00     0.153 C 
BRANCH  11  12
HETATM   12  C   UNL     1      43.172 -15.495   5.364  1.00  0.00     0.018 A 
HETATM   13  C   UNL     1      43.551 -16.837   5.507  1.00  0.00     0.077 A 
HETATM   14  C   UNL     1      43.649 -17.664   4.391  1.00  0.00     0.039 A 
HETATM   15  C   UNL     1      43.367 -17.154   3.123  1.00  0.00     0.026 A 
HETATM   16  C   UNL     1      42.987 -15.820   2.982  1.00  0.00     0.035 A 
HETATM   17 CL   UNL     1      42.640 -15.193   1.418  1.00  0.00    -0.084 Cl
HETATM   18  C   UNL     1      42.888 -14.984   4.095  1.00  0.00     0.039 A 
BRANCH  13  19
HETATM   19  O   UNL     1      43.846 -17.410   6.714  1.00  0.00    -0.360 OA
HETATM   20  H   UNL     1      44.699 -17.888   6.620  1.00  0.00     0.217 HD
ENDBRANCH  13  19
ENDBRANCH  11  12
ENDBRANCH   7  10
ENDBRANCH   5   6
BRANCH   1  21
HETATM   21  C   UNL     1      41.846  -9.135   8.004  1.00  0.00     0.296 C 
BRANCH  21  22
HETATM   22  N   UNL     1      40.572  -9.946   7.817  1.00  0.00    -0.065 N 
HETATM   23  C   UNL     1      39.618  -9.704   8.969  1.00  0.00     0.270 C 
HETATM   24  H   UNL     1      40.837 -10.949   7.876  1.00  0.00     0.280 HD
BRANCH  22  25
HETATM   25  C   UNL     1      39.899  -9.737   6.446  1.00  0.00     0.188 C 
HETATM   26  C   UNL     1      40.919  -9.720   5.292  1.00  0.00     0.033 C 
HETATM   27  C   UNL     1      41.593 -11.072   5.058  1.00  0.00     0.002 C 
HETATM   28  C   UNL     1      40.570 -12.184   4.846  1.00  0.00     0.000 C 
HETATM   29  C   UNL     1      39.505 -12.216   5.939  1.00  0.00     0.002 C 
HETATM   30  C   UNL     1      38.867 -10.843   6.146  1.00  0.00     0.033 C 
ENDBRANCH  22  25
ENDBRANCH  21  22
ENDBRANCH   1  21
BRANCH   2  31
HETATM   31  C   UNL     1      42.435  -8.045  10.870  1.00  0.00     0.229 A 
HETATM   32  N   UNL     1      42.819  -6.804  10.564  1.00  0.00    -0.081 NA
HETATM   33  O   UNL     1      42.017  -5.997  11.376  1.00  0.00    -0.103 OA
HETATM   34  N   UNL     1      41.163  -6.763  12.157  1.00  0.00    -0.083 NA
HETATM   35  C   UNL     1      41.425  -8.031  11.848  1.00  0.00     0.201 A 
BRANCH  35  36
HETATM   36  N   UNL     1      40.801  -9.090  12.392  1.00  0.00    -0.379 N 
HETATM   37  H   UNL     1      40.915  -9.286  13.383  1.00  0.00     0.158 HD
HETATM   38  H   UNL     1      40.449  -9.872  11.845  1.00  0.00     0.158 HD
ENDBRANCH  35  36
ENDBRANCH   2  31
TORSDOF 9
ENDMDL
MODEL 10
REMARK VINA RESULT:      -7.5      4.443      7.183
REMARK  9 active torsions:
REMARK  status: ('A' for Active; 'I' for Inactive)
REMARK    1  A    between atoms: N_2  and  C_4 
REMARK    2  A    between atoms: N_2  and  C_10 
REMARK    3  A    between atoms: C_10  and  C_11 
REMARK    4  A    between atoms: N_12  and  C_13 
REMARK    5  A    between atoms: C_17  and  N_18 
REMARK    6  A    between atoms: C_21  and  C_22 
REMARK       I    between atoms: C_22  and  N_23 
REMARK    7  A    between atoms: N_23  and  N_24 
REMARK    8  A    between atoms: C_25  and  C_26 
REMARK    9  A    between atoms: C_27  and  O_28 
ROOT
HETATM    1  C   UNL     1      42.147 -11.328   5.420  1.00  0.00     0.102 A 
HETATM    2  N   UNL     1      42.747 -10.458   6.343  1.00  0.00    -0.191 N 
HETATM    3  N   UNL     1      42.184  -9.227   6.208  1.00  0.00    -0.058 NA
HETATM    4  N   UNL     1      41.179  -9.295   5.356  1.00  0.00    -0.124 NA
HETATM    5  C   UNL     1      41.114 -10.570   4.876  1.00  0.00     0.176 A 
ENDROOT
BRANCH   5   6
HETATM    6  C   UNL     1      40.099 -10.985   3.920  1.00  0.00     0.294 C 
HETATM    7  N   UNL     1      40.333 -10.577   2.620  1.00  0.00    -0.242 N 
HETATM    8  H   UNL     1      41.152 -10.013   2.398  1.00  0.00     0.192 HD
HETATM    9  O   UNL     1      39.142 -11.669   4.279  1.00  0.00    -0.264 OA
BRANCH   7  10
HETATM   10  N   UNL     1      39.496 -10.998   1.635  1.00  0.00    -0.183 NA
HETATM   11  C   UNL     1      40.038 -11.669   0.666  1.00  0.00     0.153 C 
BRANCH  11  12
HETATM   12  C   UNL     1      39.208 -12.194  -0.439  1.00  0.00     0.018 A 
HETATM   13  C   UNL     1      38.223 -11.417  -1.064  1.00  0.00     0.077 A 
HETATM   14  C   UNL     1      37.450 -11.952  -2.091  1.00  0.00     0.039 A 
HETATM   15  C   UNL     1      37.659 -13.269  -2.502  1.00  0.00     0.026 A 
HETATM   16  C   UNL     1      38.642 -14.041  -1.882  1.00  0.00     0.035 A 
HETATM   17 CL   UNL     1      38.897 -15.665  -2.389  1.00  0.00    -0.084 Cl
HETATM   18  C   UNL     1      39.419 -13.513  -0.850  1.00  0.00     0.039 A 
BRANCH  13  19
HETATM   19  O   UNL     1      37.956 -10.120  -0.718  1.00  0.00    -0.360 OA
HETATM   20  H   UNL     1      38.735  -9.577  -0.967  1.00  0.00     0.217 HD
ENDBRANCH  13  19
ENDBRANCH  11  12
ENDBRANCH   7  10
ENDBRANCH   5   6
BRANCH   1  21
HETATM   21  C   UNL     1      42.573 -12.748   5.250  1.00  0.00     0.296 C 
BRANCH  21  22
HETATM   22  N   UNL     1      42.660 -13.281   3.827  1.00  0.00    -0.065 N 
HETATM   23  C   UNL     1      43.581 -12.414   2.994  1.00  0.00     0.270 C 
HETATM   24  H   UNL     1      41.716 -13.177   3.404  1.00  0.00     0.280 HD
BRANCH  22  25
HETATM   25  C   UNL     1      43.029 -14.775   3.745  1.00  0.00     0.188 C 
HETATM   26  C   UNL     1      41.941 -15.679   4.354  1.00  0.00     0.033 C 
HETATM   27  C   UNL     1      40.637 -15.681   3.558  1.00  0.00     0.002 C 
HETATM   28  C   UNL     1      40.870 -16.042   2.094  1.00  0.00     0.000 C 
HETATM   29  C   UNL     1      41.973 -15.206   1.452  1.00  0.00     0.002 C 
HETATM   30  C   UNL     1      43.253 -15.225   2.287  1.00  0.00     0.033 C 
ENDBRANCH  22  25
ENDBRANCH  21  22
ENDBRANCH   1  21
BRANCH   2  31
HETATM   31  C   UNL     1      43.754 -10.717   7.307  1.00  0.00     0.229 A 
HETATM   32  N   UNL     1      43.463 -10.683   8.609  1.00  0.00    -0.081 NA
HETATM   33  O   UNL     1      44.683 -10.965   9.230  1.00  0.00    -0.103 OA
HETATM   34  N   UNL     1      45.688 -11.162   8.294  1.00  0.00    -0.083 NA
HETATM   35  C   UNL     1      45.115 -11.003   7.103  1.00  0.00     0.201 A 
BRANCH  35  36
HETATM   36  N   UNL     1      45.758 -11.118   5.929  1.00  0.00    -0.379 N 
HETATM   37  H   UNL     1      46.115 -10.286   5.468  1.00  0.00     0.158 HD
HETATM   38  H   UNL     1      45.677 -11.933   5.325  1.00  0.00     0.158 HD
ENDBRANCH  35  36
ENDBRANCH   2  31
TORSDOF 9
ENDMDL
