MODEL 1
REMARK VINA RESULT:      -8.9      0.000      0.000
REMARK  12 active torsions:
REMARK  status: ('A' for Active; 'I' for Inactive)
REMARK    1  A    between atoms: C_7  and  N_8 
REMARK    2  A    between atoms: C_12  and  N_13 
REMARK       I    between atoms: N_13  and  C_14 
REMARK    3  A    between atoms: C_14  and  C_15 
REMARK    4  A    between atoms: C_15  and  C_16 
REMARK    5  A    between atoms: C_16  and  C_17 
REMARK    6  A    between atoms: C_17  and  C_18 
REMARK    7  A    between atoms: C_18  and  C_19 
REMARK    8  A    between atoms: C_19  and  C_20 
REMARK    9  A    between atoms: C_20  and  C_21 
REMARK   10  A    between atoms: C_21  and  C_22 
REMARK       I    between atoms: C_22  and  N_23 
REMARK   11  A    between atoms: N_23  and  C_24 
REMARK   12  A    between atoms: C_33  and  N_34 
ROOT
HETATM    1  C   UNL     1      42.272 -10.111   6.073  1.00  0.00     0.000 C 
ENDROOT
BRANCH   1   2
HETATM    2  C   UNL     1      42.996 -10.880   4.962  1.00  0.00     0.000 C 
BRANCH   2   3
HETATM    3  C   UNL     1      43.720 -12.137   5.457  1.00  0.00     0.009 C 
BRANCH   3   4
HETATM    4  C   UNL     1      44.343 -12.035   6.852  1.00  0.00     0.103 C 
BRANCH   4   5
HETATM    5  C   UNL     1      45.621 -11.228   6.895  1.00  0.00     0.222 C 
HETATM    6  N   UNL     1      45.757 -10.141   7.711  1.00  0.00    -0.327 N 
HETATM    7  H   UNL     1      46.683  -9.749   7.563  1.00  0.00     0.169 HD
HETATM    8  O   UNL     1      46.592 -11.514   6.191  1.00  0.00    -0.273 OA
BRANCH   6   9
HETATM    9  C   UNL     1      44.948  -9.489   8.657  1.00  0.00     0.035 A 
HETATM   10  C   UNL     1      44.484  -8.181   8.573  1.00  0.00     0.032 A 
HETATM   11  C   UNL     1      43.650  -7.654   9.568  1.00  0.00     0.033 A 
HETATM   12  C   UNL     1      43.273  -8.427  10.673  1.00  0.00     0.044 A 
HETATM   13  N   UNL     1      42.434  -7.917  11.594  1.00  0.00    -0.359 N 
HETATM   14  C   UNL     1      43.747  -9.748  10.815  1.00  0.00     0.014 A 
HETATM   15  C   UNL     1      41.986  -8.610  12.652  1.00  0.00     0.007 A 
HETATM   16  H   UNL     1      42.102  -6.962  11.464  1.00  0.00     0.166 HD
HETATM   17  C   UNL     1      41.013  -7.965  13.584  1.00  0.00     0.068 C 
HETATM   18  C   UNL     1      42.439  -9.912  12.847  1.00  0.00     0.048 A 
HETATM   19  C   UNL     1      43.364 -10.479  11.967  1.00  0.00     0.020 A 
HETATM   20  C   UNL     1      44.577 -10.253   9.781  1.00  0.00     0.045 A 
BRANCH  19  21
HETATM   21  N   UNL     1      43.695 -11.828  12.139  1.00  0.00    -0.302 NA
HETATM   22  H   UNL     1      43.047 -12.388  12.684  1.00  0.00     0.124 HD
HETATM   23  H   UNL     1      43.973 -12.331  11.298  1.00  0.00     0.124 HD
ENDBRANCH  19  21
ENDBRANCH   6   9
ENDBRANCH   4   5
ENDBRANCH   3   4
ENDBRANCH   2   3
ENDBRANCH   1   2
BRANCH   1  24
HETATM   24  C   UNL     1      40.966  -9.498   5.557  1.00  0.00     0.000 C 
BRANCH  24  25
HETATM   25  C   UNL     1      39.709 -10.033   6.249  1.00  0.00     0.009 C 
BRANCH  25  26
HETATM   26  C   UNL     1      38.873 -11.014   5.431  1.00  0.00     0.103 C 
BRANCH  26  27
HETATM   27  C   UNL     1      39.423 -12.430   5.380  1.00  0.00     0.222 C 
HETATM   28  N   UNL     1      39.752 -12.849   4.102  1.00  0.00    -0.327 N 
HETATM   29  H   UNL     1      39.478 -12.234   3.343  1.00  0.00     0.169 HD
HETATM   30  O   UNL     1      39.556 -13.084   6.410  1.00  0.00    -0.273 OA
BRANCH  28  31
HETATM   31  C   UNL     1      40.394 -14.052   3.739  1.00  0.00     0.035 A 
HETATM   32  C   UNL     1      41.451 -14.619   4.459  1.00  0.00     0.045 A 
HETATM   33  C   UNL     1      42.084 -15.822   4.055  1.00  0.00     0.014 A 
HETATM   34  C   UNL     1      41.617 -16.438   2.873  1.00  0.00     0.044 A 
HETATM   35  C   UNL     1      43.152 -16.435   4.758  1.00  0.00     0.020 A 
HETATM   36  N   UNL     1      42.211 -17.562   2.431  1.00  0.00    -0.359 N 
HETATM   37  C   UNL     1      40.559 -15.876   2.147  1.00  0.00     0.033 A 
HETATM   38  H   UNL     1      41.858 -17.987   1.574  1.00  0.00     0.166 HD
HETATM   39  C   UNL     1      43.260 -18.136   3.041  1.00  0.00     0.007 A 
HETATM   40  C   UNL     1      43.877 -19.355   2.435  1.00  0.00     0.068 C 
HETATM   41  C   UNL     1      43.760 -17.565   4.207  1.00  0.00     0.048 A 
HETATM   42  C   UNL     1      39.956 -14.690   2.576  1.00  0.00     0.032 A 
BRANCH  35  43
HETATM   43  N   UNL     1      43.774 -15.824   5.855  1.00  0.00    -0.302 NA
HETATM   44  H   UNL     1      43.273 -15.869   6.739  1.00  0.00     0.124 HD
HETATM   45  H   UNL     1      44.145 -14.888   5.700  1.00  0.00     0.124 HD
ENDBRANCH  35  43
ENDBRANCH  28  31
ENDBRANCH  26  27
ENDBRANCH  25  26
ENDBRANCH  24  25
ENDBRANCH   1  24
TORSDOF 12
ENDMDL
MODEL 2
REMARK VINA RESULT:      -8.9      2.288      4.547
REMARK  12 active torsions:
REMARK  status: ('A' for Active; 'I' for Inactive)
REMARK    1  A    between atoms: C_7  and  N_8 
REMARK    2  A    between atoms: C_12  and  N_13 
REMARK       I    between atoms: N_13  and  C_14 
REMARK    3  A    between atoms: C_14  and  C_15 
REMARK    4  A    between atoms: C_15  and  C_16 
REMARK    5  A    between atoms: C_16  and  C_17 
REMARK    6  A    between atoms: C_17  and  C_18 
REMARK    7  A    between atoms: C_18  and  C_19 
REMARK    8  A    between atoms: C_19  and  C_20 
REMARK    9  A    between atoms: C_20  and  C_21 
REMARK   10  A    between atoms: C_21  and  C_22 
REMARK       I    between atoms: C_22  and  N_23 
REMARK   11  A    between atoms: N_23  and  C_24 
REMARK   12  A    between atoms: C_33  and  N_34 
ROOT
HETATM    1  C   UNL     1      45.939 -10.478   8.101  1.00  0.00     0.000 C 
ENDROOT
BRANCH   1   2
HETATM    2  C   UNL     1      45.633  -9.180   8.856  1.00  0.00     0.000 C 
BRANCH   2   3
HETATM    3  C   UNL     1      45.476  -9.370  10.369  1.00  0.00     0.009 C 
BRANCH   3   4
HETATM    4  C   UNL     1      44.052  -9.217  10.910  1.00  0.00     0.103 C 
BRANCH   4   5
HETATM    5  C   UNL     1      43.470 -10.494  11.472  1.00  0.00     0.222 C 
HETATM    6  N   UNL     1      42.502 -10.479  12.437  1.00  0.00    -0.327 N 
HETATM    7  H   UNL     1      42.275 -11.440  12.673  1.00  0.00     0.169 HD
HETATM    8  O   UNL     1      43.848 -11.603  11.089  1.00  0.00    -0.273 OA
BRANCH   6   9
HETATM    9  C   UNL     1      41.790  -9.483  13.128  1.00  0.00     0.035 A 
HETATM   10  C   UNL     1      42.138  -8.933  14.356  1.00  0.00     0.032 A 
HETATM   11  C   UNL     1      41.362  -7.916  14.929  1.00  0.00     0.033 A 
HETATM   12  C   UNL     1      40.216  -7.438  14.282  1.00  0.00     0.044 A 
HETATM   13  N   UNL     1      39.511  -6.428  14.828  1.00  0.00    -0.359 N 
HETATM   14  C   UNL     1      39.808  -7.990  13.051  1.00  0.00     0.014 A 
HETATM   15  C   UNL     1      38.432  -5.881  14.247  1.00  0.00     0.007 A 
HETATM   16  H   UNL     1      39.831  -6.044  15.716  1.00  0.00     0.166 HD
HETATM   17  C   UNL     1      37.756  -4.727  14.912  1.00  0.00     0.068 C 
HETATM   18  C   UNL     1      37.977  -6.402  13.038  1.00  0.00     0.048 A 
HETATM   19  C   UNL     1      38.622  -7.495  12.453  1.00  0.00     0.020 A 
HETATM   20  C   UNL     1      40.625  -9.008  12.494  1.00  0.00     0.045 A 
BRANCH  19  21
HETATM   21  N   UNL     1      38.201  -7.904  11.182  1.00  0.00    -0.302 NA
HETATM   22  H   UNL     1      38.860  -7.771  10.421  1.00  0.00     0.124 HD
HETATM   23  H   UNL     1      37.781  -8.831  11.126  1.00  0.00     0.124 HD
ENDBRANCH  19  21
ENDBRANCH   6   9
ENDBRANCH   4   5
ENDBRANCH   3   4
ENDBRANCH   2   3
ENDBRANCH   1   2
BRANCH   1  24
HETATM   24  C   UNL     1      44.912 -10.726   6.992  1.00  0.00     0.000 C 
BRANCH  24  25
HETATM   25  C   UNL     1      43.456 -10.643   7.458  1.00  0.00     0.009 C 
BRANCH  25  26
HETATM   26  C   UNL     1      42.423 -11.230   6.500  1.00  0.00     0.103 C 
BRANCH  26  27
HETATM   27  C   UNL     1      42.946 -12.338   5.601  1.00  0.00     0.222 C 
HETATM   28  N   UNL     1      42.885 -13.594   6.180  1.00  0.00    -0.327 N 
HETATM   29  H   UNL     1      42.629 -13.624   7.161  1.00  0.00     0.169 HD
HETATM   30  O   UNL     1      43.353 -12.083   4.471  1.00  0.00    -0.273 OA
BRANCH  28  31
HETATM   31  C   UNL     1      43.176 -14.830   5.565  1.00  0.00     0.035 A 
HETATM   32  C   UNL     1      42.578 -15.270   4.378  1.00  0.00     0.045 A 
HETATM   33  C   UNL     1      42.881 -16.526   3.797  1.00  0.00     0.014 A 
HETATM   34  C   UNL     1      43.814 -17.346   4.470  1.00  0.00     0.044 A 
HETATM   35  C   UNL     1      42.306 -17.007   2.594  1.00  0.00     0.020 A 
HETATM   36  N   UNL     1      44.108 -18.563   3.975  1.00  0.00    -0.359 N 
HETATM   37  C   UNL     1      44.417 -16.913   5.658  1.00  0.00     0.033 A 
HETATM   38  H   UNL     1      44.781 -19.137   4.479  1.00  0.00     0.166 HD
HETATM   39  C   UNL     1      43.538 -19.071   2.870  1.00  0.00     0.007 A 
HETATM   40  C   UNL     1      43.898 -20.456   2.437  1.00  0.00     0.068 C 
HETATM   41  C   UNL     1      42.609 -18.304   2.173  1.00  0.00     0.048 A 
HETATM   42  C   UNL     1      44.096 -15.666   6.202  1.00  0.00     0.032 A 
BRANCH  35  43
HETATM   43  N   UNL     1      41.270 -16.331   1.937  1.00  0.00    -0.302 NA
HETATM   44  H   UNL     1      40.684 -16.891   1.323  1.00  0.00     0.124 HD
HETATM   45  H   UNL     1      41.518 -15.450   1.490  1.00  0.00     0.124 HD
ENDBRANCH  35  43
ENDBRANCH  28  31
ENDBRANCH  26  27
ENDBRANCH  25  26
ENDBRANCH  24  25
ENDBRANCH   1  24
TORSDOF 12
ENDMDL
MODEL 3
REMARK VINA RESULT:      -8.8      2.602      5.562
REMARK  12 active torsions:
REMARK  status: ('A' for Active; 'I' for Inactive)
REMARK    1  A    between atoms: C_7  and  N_8 
REMARK    2  A    between atoms: C_12  and  N_13 
REMARK       I    between atoms: N_13  and  C_14 
REMARK    3  A    between atoms: C_14  and  C_15 
REMARK    4  A    between atoms: C_15  and  C_16 
REMARK    5  A    between atoms: C_16  and  C_17 
REMARK    6  A    between atoms: C_17  and  C_18 
REMARK    7  A    between atoms: C_18  and  C_19 
REMARK    8  A    between atoms: C_19  and  C_20 
REMARK    9  A    between atoms: C_20  and  C_21 
REMARK   10  A    between atoms: C_21  and  C_22 
REMARK       I    between atoms: C_22  and  N_23 
REMARK   11  A    between atoms: N_23  and  C_24 
REMARK   12  A    between atoms: C_33  and  N_34 
ROOT
HETATM    1  C   UNL     1      44.347  -9.088  10.945  1.00  0.00     0.000 C 
ENDROOT
BRANCH   1   2
HETATM    2  C   UNL     1      42.896  -8.801  11.346  1.00  0.00     0.000 C 
BRANCH   2   3
HETATM    3  C   UNL     1      42.285  -9.877  12.251  1.00  0.00     0.009 C 
BRANCH   3   4
HETATM    4  C   UNL     1      41.017  -9.464  13.004  1.00  0.00     0.103 C 
BRANCH   4   5
HETATM    5  C   UNL     1      39.831 -10.366  12.748  1.00  0.00     0.222 C 
HETATM    6  N   UNL     1      39.146 -10.335  11.567  1.00  0.00    -0.327 N 
HETATM    7  H   UNL     1      38.386 -11.007  11.624  1.00  0.00     0.169 HD
HETATM    8  O   UNL     1      39.428 -11.163  13.599  1.00  0.00    -0.273 OA
BRANCH   6   9
HETATM    9  C   UNL     1      39.260  -9.625  10.359  1.00  0.00     0.035 A 
HETATM   10  C   UNL     1      39.342  -8.243  10.229  1.00  0.00     0.032 A 
HETATM   11  C   UNL     1      39.489  -7.652   8.967  1.00  0.00     0.033 A 
HETATM   12  C   UNL     1      39.548  -8.438   7.809  1.00  0.00     0.044 A 
HETATM   13  N   UNL     1      39.737  -7.853   6.611  1.00  0.00    -0.359 N 
HETATM   14  C   UNL     1      39.436  -9.841   7.893  1.00  0.00     0.014 A 
HETATM   15  C   UNL     1      39.855  -8.539   5.464  1.00  0.00     0.007 A 
HETATM   16  H   UNL     1      39.820  -6.838   6.580  1.00  0.00     0.166 HD
HETATM   17  C   UNL     1      40.119  -7.793   4.196  1.00  0.00     0.068 C 
HETATM   18  C   UNL     1      39.734  -9.926   5.489  1.00  0.00     0.048 A 
HETATM   19  C   UNL     1      39.469 -10.590   6.690  1.00  0.00     0.020 A 
HETATM   20  C   UNL     1      39.303 -10.405   9.188  1.00  0.00     0.045 A 
BRANCH  19  21
HETATM   21  N   UNL     1      39.475 -11.990   6.682  1.00  0.00    -0.302 NA
HETATM   22  H   UNL     1      39.036 -12.441   5.886  1.00  0.00     0.124 HD
HETATM   23  H   UNL     1      40.369 -12.434   6.890  1.00  0.00     0.124 HD
ENDBRANCH  19  21
ENDBRANCH   6   9
ENDBRANCH   4   5
ENDBRANCH   3   4
ENDBRANCH   2   3
ENDBRANCH   1   2
BRANCH   1  24
HETATM   24  C   UNL     1      44.428  -9.617   9.510  1.00  0.00     0.000 C 
BRANCH  24  25
HETATM   25  C   UNL     1      43.076 -10.032   8.920  1.00  0.00     0.009 C 
BRANCH  25  26
HETATM   26  C   UNL     1      43.038 -10.180   7.401  1.00  0.00     0.103 C 
BRANCH  26  27
HETATM   27  C   UNL     1      43.588 -11.496   6.876  1.00  0.00     0.222 C 
HETATM   28  N   UNL     1      42.604 -12.397   6.506  1.00  0.00    -0.327 N 
HETATM   29  H   UNL     1      41.650 -12.142   6.740  1.00  0.00     0.169 HD
HETATM   30  O   UNL     1      44.799 -11.676   6.793  1.00  0.00    -0.273 OA
BRANCH  28  31
HETATM   31  C   UNL     1      42.786 -13.644   5.873  1.00  0.00     0.035 A 
HETATM   32  C   UNL     1      42.853 -13.812   4.485  1.00  0.00     0.045 A 
HETATM   33  C   UNL     1      43.020 -15.083   3.882  1.00  0.00     0.014 A 
HETATM   34  C   UNL     1      43.105 -16.204   4.738  1.00  0.00     0.044 A 
HETATM   35  C   UNL     1      43.101 -15.297   2.483  1.00  0.00     0.020 A 
HETATM   36  N   UNL     1      43.229 -17.435   4.210  1.00  0.00    -0.359 N 
HETATM   37  C   UNL     1      43.040 -16.044   6.129  1.00  0.00     0.033 A 
HETATM   38  H   UNL     1      43.286 -18.228   4.848  1.00  0.00     0.166 HD
HETATM   39  C   UNL     1      43.250 -17.677   2.889  1.00  0.00     0.007 A 
HETATM   40  C   UNL     1      43.338 -19.091   2.410  1.00  0.00     0.068 C 
HETATM   41  C   UNL     1      43.165 -16.607   2.004  1.00  0.00     0.048 A 
HETATM   42  C   UNL     1      42.877 -14.774   6.689  1.00  0.00     0.032 A 
BRANCH  35  43
HETATM   43  N   UNL     1      42.882 -14.270   1.555  1.00  0.00    -0.302 NA
HETATM   44  H   UNL     1      43.648 -13.616   1.418  1.00  0.00     0.124 HD
HETATM   45  H   UNL     1      41.996 -13.773   1.632  1.00  0.00     0.124 HD
ENDBRANCH  35  43
ENDBRANCH  28  31
ENDBRANCH  26  27
ENDBRANCH  25  26
ENDBRANCH  24  25
ENDBRANCH   1  24
TORSDOF 12
ENDMDL
MODEL 4
REMARK VINA RESULT:      -8.8      4.176      7.945
REMARK  12 active torsions:
REMARK  status: ('A' for Active; 'I' for Inactive)
REMARK    1  A    between atoms: C_7  and  N_8 
REMARK    2  A    between atoms: C_12  and  N_13 
REMARK       I    between atoms: N_13  and  C_14 
REMARK    3  A    between atoms: C_14  and  C_15 
REMARK    4  A    between atoms: C_15  and  C_16 
REMARK    5  A    between atoms: C_16  and  C_17 
REMARK    6  A    between atoms: C_17  and  C_18 
REMARK    7  A    between atoms: C_18  and  C_19 
REMARK    8  A    between atoms: C_19  and  C_20 
REMARK    9  A    between atoms: C_20  and  C_21 
REMARK   10  A    between atoms: C_21  and  C_22 
REMARK       I    between atoms: C_22  and  N_23 
REMARK   11  A    between atoms: N_23  and  C_24 
REMARK   12  A    between atoms: C_33  and  N_34 
ROOT
HETATM    1  C   UNL     1      42.428 -17.528   2.540  1.00  0.00     0.000 C 
ENDROOT
BRANCH   1   2
HETATM    2  C   UNL     1      43.235 -18.736   2.050  1.00  0.00     0.000 C 
BRANCH   2   3
HETATM    3  C   UNL     1      43.604 -19.722   3.164  1.00  0.00     0.009 C 
BRANCH   3   4
HETATM    4  C   UNL     1      44.381 -19.127   4.342  1.00  0.00     0.103 C 
BRANCH   4   5
HETATM    5  C   UNL     1      43.746 -19.387   5.689  1.00  0.00     0.222 C 
HETATM    6  N   UNL     1      43.388 -18.366   6.523  1.00  0.00    -0.327 N 
HETATM    7  H   UNL     1      43.000 -18.772   7.371  1.00  0.00     0.169 HD
HETATM    8  O   UNL     1      43.530 -20.531   6.094  1.00  0.00    -0.273 OA
BRANCH   6   9
HETATM    9  C   UNL     1      43.430 -16.962   6.468  1.00  0.00     0.035 A 
HETATM   10  C   UNL     1      44.579 -16.180   6.431  1.00  0.00     0.032 A 
HETATM   11  C   UNL     1      44.490 -14.784   6.340  1.00  0.00     0.033 A 
HETATM   12  C   UNL     1      43.244 -14.146   6.292  1.00  0.00     0.044 A 
HETATM   13  N   UNL     1      43.182 -12.808   6.157  1.00  0.00    -0.359 N 
HETATM   14  C   UNL     1      42.054 -14.899   6.359  1.00  0.00     0.014 A 
HETATM   15  C   UNL     1      42.030 -12.128   6.053  1.00  0.00     0.007 A 
HETATM   16  H   UNL     1      44.057 -12.289   6.105  1.00  0.00     0.166 HD
HETATM   17  C   UNL     1      42.075 -10.649   5.850  1.00  0.00     0.068 C 
HETATM   18  C   UNL     1      40.825 -12.823   6.131  1.00  0.00     0.048 A 
HETATM   19  C   UNL     1      40.819 -14.204   6.341  1.00  0.00     0.020 A 
HETATM   20  C   UNL     1      42.182 -16.310   6.437  1.00  0.00     0.045 A 
BRANCH  19  21
HETATM   21  N   UNL     1      39.589 -14.871   6.292  1.00  0.00    -0.302 NA
HETATM   22  H   UNL     1      39.469 -15.651   6.932  1.00  0.00     0.124 HD
HETATM   23  H   UNL     1      38.758 -14.280   6.299  1.00  0.00     0.124 HD
ENDBRANCH  19  21
ENDBRANCH   6   9
ENDBRANCH   4   5
ENDBRANCH   3   4
ENDBRANCH   2   3
ENDBRANCH   1   2
BRANCH   1  24
HETATM   24  C   UNL     1      43.025 -16.218   2.017  1.00  0.00     0.000 C 
BRANCH  24  25
HETATM   25  C   UNL     1      42.800 -15.017   2.941  1.00  0.00     0.009 C 
BRANCH  25  26
HETATM   26  C   UNL     1      42.745 -13.657   2.250  1.00  0.00     0.103 C 
BRANCH  26  27
HETATM   27  C   UNL     1      41.396 -13.304   1.646  1.00  0.00     0.222 C 
HETATM   28  N   UNL     1      41.365 -13.405   0.265  1.00  0.00    -0.327 N 
HETATM   29  H   UNL     1      42.255 -13.572  -0.192  1.00  0.00     0.169 HD
HETATM   30  O   UNL     1      40.455 -12.984   2.367  1.00  0.00    -0.273 OA
BRANCH  28  31
HETATM   31  C   UNL     1      40.240 -13.266  -0.574  1.00  0.00     0.035 A 
HETATM   32  C   UNL     1      39.511 -12.078  -0.711  1.00  0.00     0.045 A 
HETATM   33  C   UNL     1      38.375 -11.979  -1.551  1.00  0.00     0.014 A 
HETATM   34  C   UNL     1      37.980 -13.141  -2.252  1.00  0.00     0.044 A 
HETATM   35  C   UNL     1      37.613 -10.796  -1.725  1.00  0.00     0.020 A 
HETATM   36  N   UNL     1      36.886 -13.104  -3.035  1.00  0.00    -0.359 N 
HETATM   37  C   UNL     1      38.704 -14.333  -2.121  1.00  0.00     0.033 A 
HETATM   38  H   UNL     1      36.620 -13.955  -3.529  1.00  0.00     0.166 HD
HETATM   39  C   UNL     1      36.110 -12.017  -3.176  1.00  0.00     0.007 A 
HETATM   40  C   UNL     1      34.887 -12.102  -4.031  1.00  0.00     0.068 C 
HETATM   41  C   UNL     1      36.455 -10.849  -2.503  1.00  0.00     0.048 A 
HETATM   42  C   UNL     1      39.823 -14.394  -1.284  1.00  0.00     0.032 A 
BRANCH  35  43
HETATM   43  N   UNL     1      37.841  -9.642  -0.965  1.00  0.00    -0.302 NA
HETATM   44  H   UNL     1      37.410  -8.786  -1.306  1.00  0.00     0.124 HD
HETATM   45  H   UNL     1      38.804  -9.470  -0.681  1.00  0.00     0.124 HD
ENDBRANCH  35  43
ENDBRANCH  28  31
ENDBRANCH  26  27
ENDBRANCH  25  26
ENDBRANCH  24  25
ENDBRANCH   1  24
TORSDOF 12
ENDMDL
MODEL 5
REMARK VINA RESULT:      -8.8      4.335      7.812
REMARK  12 active torsions:
REMARK  status: ('A' for Active; 'I' for Inactive)
REMARK    1  A    between atoms: C_7  and  N_8 
REMARK    2  A    between atoms: C_12  and  N_13 
REMARK       I    between atoms: N_13  and  C_14 
REMARK    3  A    between atoms: C_14  and  C_15 
REMARK    4  A    between atoms: C_15  and  C_16 
REMARK    5  A    between atoms: C_16  and  C_17 
REMARK    6  A    between atoms: C_17  and  C_18 
REMARK    7  A    between atoms: C_18  and  C_19 
REMARK    8  A    between atoms: C_19  and  C_20 
REMARK    9  A    between atoms: C_20  and  C_21 
REMARK   10  A    between atoms: C_21  and  C_22 
REMARK       I    between atoms: C_22  and  N_23 
REMARK   11  A    between atoms: N_23  and  C_24 
REMARK   12  A    between atoms: C_33  and  N_34 
ROOT
HETATM    1  C   UNL     1      43.828 -18.776   2.414  1.00  0.00     0.000 C 
ENDROOT
BRANCH   1   2
HETATM    2  C   UNL     1      43.808 -20.240   2.867  1.00  0.00     0.000 C 
BRANCH   2   3
HETATM    3  C   UNL     1      43.836 -20.413   4.390  1.00  0.00     0.009 C 
BRANCH   3   4
HETATM    4  C   UNL     1      44.149 -19.148   5.193  1.00  0.00     0.103 C 
BRANCH   4   5
HETATM    5  C   UNL     1      43.493 -19.108   6.555  1.00  0.00     0.222 C 
HETATM    6  N   UNL     1      43.164 -17.929   7.160  1.00  0.00    -0.327 N 
HETATM    7  H   UNL     1      42.754 -18.140   8.065  1.00  0.00     0.169 HD
HETATM    8  O   UNL     1      43.232 -20.139   7.179  1.00  0.00    -0.273 OA
BRANCH   6   9
HETATM    9  C   UNL     1      43.258 -16.567   6.822  1.00  0.00     0.035 A 
HETATM   10  C   UNL     1      44.434 -15.853   6.625  1.00  0.00     0.032 A 
HETATM   11  C   UNL     1      44.396 -14.502   6.254  1.00  0.00     0.033 A 
HETATM   12  C   UNL     1      43.174 -13.839   6.083  1.00  0.00     0.044 A 
HETATM   13  N   UNL     1      43.160 -12.554   5.682  1.00  0.00    -0.359 N 
HETATM   14  C   UNL     1      41.958 -14.516   6.306  1.00  0.00     0.014 A 
HETATM   15  C   UNL     1      42.032 -11.865   5.447  1.00  0.00     0.007 A 
HETATM   16  H   UNL     1      44.053 -12.090   5.524  1.00  0.00     0.166 HD
HETATM   17  C   UNL     1      42.130 -10.459   4.951  1.00  0.00     0.068 C 
HETATM   18  C   UNL     1      40.804 -12.483   5.669  1.00  0.00     0.048 A 
HETATM   19  C   UNL     1      40.749 -13.793   6.152  1.00  0.00     0.020 A 
HETATM   20  C   UNL     1      42.034 -15.887   6.665  1.00  0.00     0.045 A 
BRANCH  19  21
HETATM   21  N   UNL     1      39.494 -14.408   6.244  1.00  0.00    -0.302 NA
HETATM   22  H   UNL     1      39.433 -15.365   5.910  1.00  0.00     0.124 HD
HETATM   23  H   UNL     1      39.015 -14.315   7.138  1.00  0.00     0.124 HD
ENDBRANCH  19  21
ENDBRANCH   6   9
ENDBRANCH   4   5
ENDBRANCH   3   4
ENDBRANCH   2   3
ENDBRANCH   1   2
BRANCH   1  24
HETATM   24  C   UNL     1      42.407 -18.218   2.290  1.00  0.00     0.000 C 
BRANCH  24  25
HETATM   25  C   UNL     1      42.150 -16.966   3.135  1.00  0.00     0.009 C 
BRANCH  25  26
HETATM   26  C   UNL     1      43.215 -15.877   3.039  1.00  0.00     0.103 C 
BRANCH  26  27
HETATM   27  C   UNL     1      42.759 -14.600   2.353  1.00  0.00     0.222 C 
HETATM   28  N   UNL     1      41.658 -14.776   1.533  1.00  0.00    -0.327 N 
HETATM   29  H   UNL     1      41.361 -15.733   1.379  1.00  0.00     0.169 HD
HETATM   30  O   UNL     1      43.342 -13.539   2.561  1.00  0.00    -0.273 OA
BRANCH  28  31
HETATM   31  C   UNL     1      40.927 -13.773   0.862  1.00  0.00     0.035 A 
HETATM   32  C   UNL     1      41.060 -13.493  -0.503  1.00  0.00     0.045 A 
HETATM   33  C   UNL     1      40.322 -12.466  -1.142  1.00  0.00     0.014 A 
HETATM   34  C   UNL     1      39.438 -11.706  -0.343  1.00  0.00     0.044 A 
HETATM   35  C   UNL     1      40.419 -12.154  -2.521  1.00  0.00     0.020 A 
HETATM   36  N   UNL     1      38.742 -10.697  -0.898  1.00  0.00    -0.359 N 
HETATM   37  C   UNL     1      39.298 -11.981   1.024  1.00  0.00     0.033 A 
HETATM   38  H   UNL     1      38.112 -10.162  -0.301  1.00  0.00     0.166 HD
HETATM   39  C   UNL     1      38.854 -10.339  -2.188  1.00  0.00     0.007 A 
HETATM   40  C   UNL     1      38.073  -9.168  -2.689  1.00  0.00     0.068 C 
HETATM   41  C   UNL     1      39.715 -11.054  -3.015  1.00  0.00     0.048 A 
HETATM   42  C   UNL     1      40.042 -13.004   1.620  1.00  0.00     0.032 A 
BRANCH  35  43
HETATM   43  N   UNL     1      41.370 -12.753  -3.358  1.00  0.00    -0.302 NA
HETATM   44  H   UNL     1      42.254 -13.009  -2.925  1.00  0.00     0.124 HD
HETATM   45  H   UNL     1      41.529 -12.302  -4.257  1.00  0.00     0.124 HD
ENDBRANCH  35  43
ENDBRANCH  28  31
ENDBRANCH  26  27
ENDBRANCH  25  26
ENDBRANCH  24  25
ENDBRANCH   1  24
TORSDOF 12
ENDMDL
MODEL 6
REMARK VINA RESULT:      -8.7      2.694      5.951
REMARK  12 active torsions:
REMARK  status: ('A' for Active; 'I' for Inactive)
REMARK    1  A    between atoms: C_7  and  N_8 
REMARK    2  A    between atoms: C_12  and  N_13 
REMARK       I    between atoms: N_13  and  C_14 
REMARK    3  A    between atoms: C_14  and  C_15 
REMARK    4  A    between atoms: C_15  and  C_16 
REMARK    5  A    between atoms: C_16  and  C_17 
REMARK    6  A    between atoms: C_17  and  C_18 
REMARK    7  A    between atoms: C_18  and  C_19 
REMARK    8  A    between atoms: C_19  and  C_20 
REMARK    9  A    between atoms: C_20  and  C_21 
REMARK   10  A    between atoms: C_21  and  C_22 
REMARK       I    between atoms: C_22  and  N_23 
REMARK   11  A    between atoms: N_23  and  C_24 
REMARK   12  A    between atoms: C_33  and  N_34 
ROOT
HETATM    1  C   UNL     1      43.444 -10.365  11.668  1.00  0.00     0.000 C 
ENDROOT
BRANCH   1   2
HETATM    2  C   UNL     1      42.682  -9.800  12.872  1.00  0.00     0.000 C 
BRANCH   2   3
HETATM    3  C   UNL     1      43.012  -8.335  13.177  1.00  0.00     0.009 C 
BRANCH   3   4
HETATM    4  C   UNL     1      42.033  -7.618  14.112  1.00  0.00     0.103 C 
BRANCH   4   5
HETATM    5  C   UNL     1      41.397  -6.387  13.505  1.00  0.00     0.222 C 
HETATM    6  N   UNL     1      40.781  -6.423  12.287  1.00  0.00    -0.327 N 
HETATM    7  H   UNL     1      40.444  -5.488  12.074  1.00  0.00     0.169 HD
HETATM    8  O   UNL     1      41.414  -5.298  14.083  1.00  0.00    -0.273 OA
BRANCH   6   9
HETATM    9  C   UNL     1      40.520  -7.413  11.323  1.00  0.00     0.035 A 
HETATM   10  C   UNL     1      39.609  -8.456  11.448  1.00  0.00     0.032 A 
HETATM   11  C   UNL     1      39.412  -9.362  10.397  1.00  0.00     0.033 A 
HETATM   12  C   UNL     1      40.132  -9.243   9.202  1.00  0.00     0.044 A 
HETATM   13  N   UNL     1      39.893 -10.095   8.188  1.00  0.00    -0.359 N 
HETATM   14  C   UNL     1      41.089  -8.219   9.045  1.00  0.00     0.014 A 
HETATM   15  C   UNL     1      40.505 -10.016   6.996  1.00  0.00     0.007 A 
HETATM   16  H   UNL     1      39.193 -10.823   8.327  1.00  0.00     0.166 HD
HETATM   17  C   UNL     1      40.124 -10.981   5.920  1.00  0.00     0.068 C 
HETATM   18  C   UNL     1      41.471  -9.034   6.795  1.00  0.00     0.048 A 
HETATM   19  C   UNL     1      41.816  -8.161   7.830  1.00  0.00     0.020 A 
HETATM   20  C   UNL     1      41.252  -7.312  10.124  1.00  0.00     0.045 A 
BRANCH  19  21
HETATM   21  N   UNL     1      42.704  -7.118   7.541  1.00  0.00    -0.302 NA
HETATM   22  H   UNL     1      42.896  -6.943   6.559  1.00  0.00     0.124 HD
HETATM   23  H   UNL     1      42.536  -6.239   8.028  1.00  0.00     0.124 HD
ENDBRANCH  19  21
ENDBRANCH   6   9
ENDBRANCH   4   5
ENDBRANCH   3   4
ENDBRANCH   2   3
ENDBRANCH   1   2
BRANCH   1  24
HETATM   24  C   UNL     1      44.211  -9.261  10.935  1.00  0.00     0.000 C 
BRANCH  24  25
HETATM   25  C   UNL     1      45.457  -9.753  10.192  1.00  0.00     0.009 C 
BRANCH  25  26
HETATM   26  C   UNL     1      45.537  -9.372   8.717  1.00  0.00     0.103 C 
BRANCH  26  27
HETATM   27  C   UNL     1      45.462 -10.545   7.752  1.00  0.00     0.222 C 
HETATM   28  N   UNL     1      44.179 -11.032   7.574  1.00  0.00    -0.327 N 
HETATM   29  H   UNL     1      43.465 -10.653   8.187  1.00  0.00     0.169 HD
HETATM   30  O   UNL     1      46.476 -10.963   7.199  1.00  0.00    -0.273 OA
BRANCH  28  31
HETATM   31  C   UNL     1      43.763 -12.023   6.660  1.00  0.00     0.035 A 
HETATM   32  C   UNL     1      43.457 -13.340   7.023  1.00  0.00     0.045 A 
HETATM   33  C   UNL     1      43.058 -14.314   6.074  1.00  0.00     0.014 A 
HETATM   34  C   UNL     1      42.990 -13.916   4.721  1.00  0.00     0.044 A 
HETATM   35  C   UNL     1      42.731 -15.655   6.399  1.00  0.00     0.020 A 
HETATM   36  N   UNL     1      42.651 -14.816   3.779  1.00  0.00    -0.359 N 
HETATM   37  C   UNL     1      43.295 -12.599   4.349  1.00  0.00     0.033 A 
HETATM   38  H   UNL     1      42.612 -14.505   2.809  1.00  0.00     0.166 HD
HETATM   39  C   UNL     1      42.392 -16.106   4.046  1.00  0.00     0.007 A 
HETATM   40  C   UNL     1      42.076 -17.033   2.917  1.00  0.00     0.068 C 
HETATM   41  C   UNL     1      42.449 -16.549   5.364  1.00  0.00     0.048 A 
HETATM   42  C   UNL     1      43.683 -11.663   5.313  1.00  0.00     0.032 A 
BRANCH  35  43
HETATM   43  N   UNL     1      42.908 -16.177   7.687  1.00  0.00    -0.302 NA
HETATM   44  H   UNL     1      42.938 -15.502   8.446  1.00  0.00     0.124 HD
HETATM   45  H   UNL     1      43.645 -16.872   7.795  1.00  0.00     0.124 HD
ENDBRANCH  35  43
ENDBRANCH  28  31
ENDBRANCH  26  27
ENDBRANCH  25  26
ENDBRANCH  24  25
ENDBRANCH   1  24
TORSDOF 12
ENDMDL
MODEL 7
REMARK VINA RESULT:      -8.6     18.275     20.960
REMARK  12 active torsions:
REMARK  status: ('A' for Active; 'I' for Inactive)
REMARK    1  A    between atoms: C_7  and  N_8 
REMARK    2  A    between atoms: C_12  and  N_13 
REMARK       I    between atoms: N_13  and  C_14 
REMARK    3  A    between atoms: C_14  and  C_15 
REMARK    4  A    between atoms: C_15  and  C_16 
REMARK    5  A    between atoms: C_16  and  C_17 
REMARK    6  A    between atoms: C_17  and  C_18 
REMARK    7  A    between atoms: C_18  and  C_19 
REMARK    8  A    between atoms: C_19  and  C_20 
REMARK    9  A    between atoms: C_20  and  C_21 
REMARK   10  A    between atoms: C_21  and  C_22 
REMARK       I    between atoms: C_22  and  N_23 
REMARK   11  A    between atoms: N_23  and  C_24 
REMARK   12  A    between atoms: C_33  and  N_34 
ROOT
HETATM    1  C   UNL     1      44.131 -29.394  -2.561  1.00  0.00     0.000 C 
ENDROOT
BRANCH   1   2
HETATM    2  C   UNL     1      44.395 -30.818  -2.059  1.00  0.00     0.000 C 
BRANCH   2   3
HETATM    3  C   UNL     1      44.671 -30.898  -0.553  1.00  0.00     0.009 C 
BRANCH   3   4
HETATM    4  C   UNL     1      43.507 -31.400   0.306  1.00  0.00     0.103 C 
BRANCH   4   5
HETATM    5  C   UNL     1      42.956 -30.364   1.259  1.00  0.00     0.222 C 
HETATM    6  N   UNL     1      43.623 -30.009   2.397  1.00  0.00    -0.327 N 
HETATM    7  H   UNL     1      43.065 -29.316   2.888  1.00  0.00     0.169 HD
HETATM    8  O   UNL     1      41.879 -29.800   1.053  1.00  0.00    -0.273 OA
BRANCH   6   9
HETATM    9  C   UNL     1      44.842 -30.366   2.999  1.00  0.00     0.035 A 
HETATM   10  C   UNL     1      45.078 -31.511   3.751  1.00  0.00     0.032 A 
HETATM   11  C   UNL     1      46.352 -31.775   4.271  1.00  0.00     0.033 A 
HETATM   12  C   UNL     1      47.414 -30.889   4.053  1.00  0.00     0.044 A 
HETATM   13  N   UNL     1      48.641 -31.184   4.522  1.00  0.00    -0.359 N 
HETATM   14  C   UNL     1      47.211 -29.699   3.324  1.00  0.00     0.014 A 
HETATM   15  C   UNL     1      49.718 -30.412   4.312  1.00  0.00     0.007 A 
HETATM   16  H   UNL     1      48.760 -32.053   5.041  1.00  0.00     0.166 HD
HETATM   17  C   UNL     1      51.046 -30.862   4.831  1.00  0.00     0.068 C 
HETATM   18  C   UNL     1      49.569 -29.217   3.613  1.00  0.00     0.048 A 
HETATM   19  C   UNL     1      48.309 -28.818   3.159  1.00  0.00     0.020 A 
HETATM   20  C   UNL     1      45.912 -29.472   2.801  1.00  0.00     0.045 A 
BRANCH  19  21
HETATM   21  N   UNL     1      48.232 -27.671   2.360  1.00  0.00    -0.302 NA
HETATM   22  H   UNL     1      48.898 -26.931   2.562  1.00  0.00     0.124 HD
HETATM   23  H   UNL     1      48.176 -27.828   1.355  1.00  0.00     0.124 HD
ENDBRANCH  19  21
ENDBRANCH   6   9
ENDBRANCH   4   5
ENDBRANCH   3   4
ENDBRANCH   2   3
ENDBRANCH   1   2
BRANCH   1  24
HETATM   24  C   UNL     1      44.670 -28.353  -1.575  1.00  0.00     0.000 C 
BRANCH  24  25
HETATM   25  C   UNL     1      46.023 -27.756  -1.974  1.00  0.00     0.009 C 
BRANCH  25  26
HETATM   26  C   UNL     1      47.157 -27.970  -0.976  1.00  0.00     0.103 C 
BRANCH  26  27
HETATM   27  C   UNL     1      48.084 -29.129  -1.304  1.00  0.00     0.222 C 
HETATM   28  N   UNL     1      49.141 -29.258  -0.418  1.00  0.00    -0.327 N 
HETATM   29  H   UNL     1      49.254 -28.511   0.258  1.00  0.00     0.169 HD
HETATM   30  O   UNL     1      47.855 -29.857  -2.265  1.00  0.00    -0.273 OA
BRANCH  28  31
HETATM   31  C   UNL     1      50.095 -30.297  -0.377  1.00  0.00     0.035 A 
HETATM   32  C   UNL     1      51.028 -30.538  -1.392  1.00  0.00     0.045 A 
HETATM   33  C   UNL     1      51.962 -31.602  -1.325  1.00  0.00     0.014 A 
HETATM   34  C   UNL     1      51.916 -32.439  -0.188  1.00  0.00     0.044 A 
HETATM   35  C   UNL     1      52.928 -31.878  -2.325  1.00  0.00     0.020 A 
HETATM   36  N   UNL     1      52.759 -33.483  -0.097  1.00  0.00    -0.359 N 
HETATM   37  C   UNL     1      50.985 -32.203   0.833  1.00  0.00     0.033 A 
HETATM   38  H   UNL     1      52.705 -34.074   0.732  1.00  0.00     0.166 HD
HETATM   39  C   UNL     1      53.647 -33.805  -1.052  1.00  0.00     0.007 A 
HETATM   40  C   UNL     1      54.501 -35.019  -0.872  1.00  0.00     0.068 C 
HETATM   41  C   UNL     1      53.728 -33.015  -2.194  1.00  0.00     0.048 A 
HETATM   42  C   UNL     1      50.079 -31.142   0.734  1.00  0.00     0.032 A 
BRANCH  35  43
HETATM   43  N   UNL     1      52.955 -31.195  -3.548  1.00  0.00    -0.302 NA
HETATM   44  H   UNL     1      52.149 -31.327  -4.155  1.00  0.00     0.124 HD
HETATM   45  H   UNL     1      53.820 -31.258  -4.082  1.00  0.00     0.124 HD
ENDBRANCH  35  43
ENDBRANCH  28  31
ENDBRANCH  26  27
ENDBRANCH  25  26
ENDBRANCH  24  25
ENDBRANCH   1  24
TORSDOF 12
ENDMDL
MODEL 8
REMARK VINA RESULT:      -8.6      4.634      8.064
REMARK  12 active torsions:
REMARK  status: ('A' for Active; 'I' for Inactive)
REMARK    1  A    between atoms: C_7  and  N_8 
REMARK    2  A    between atoms: C_12  and  N_13 
REMARK       I    between atoms: N_13  and  C_14 
REMARK    3  A    between atoms: C_14  and  C_15 
REMARK    4  A    between atoms: C_15  and  C_16 
REMARK    5  A    between atoms: C_16  and  C_17 
REMARK    6  A    between atoms: C_17  and  C_18 
REMARK    7  A    between atoms: C_18  and  C_19 
REMARK    8  A    between atoms: C_19  and  C_20 
REMARK    9  A    between atoms: C_20  and  C_21 
REMARK   10  A    between atoms: C_21  and  C_22 
REMARK       I    between atoms: C_22  and  N_23 
REMARK   11  A    between atoms: N_23  and  C_24 
REMARK   12  A    between atoms: C_33  and  N_34 
ROOT
HETATM    1  C   UNL     1      43.242 -17.499   2.354  1.00  0.00     0.000 C 
ENDROOT
BRANCH   1   2
HETATM    2  C   UNL     1      43.176 -19.014   2.133  1.00  0.00     0.000 C 
BRANCH   2   3
HETATM    3  C   UNL     1      43.859 -19.827   3.239  1.00  0.00     0.009 C 
BRANCH   3   4
HETATM    4  C   UNL     1      44.419 -19.012   4.408  1.00  0.00     0.103 C 
BRANCH   4   5
HETATM    5  C   UNL     1      43.708 -19.256   5.721  1.00  0.00     0.222 C 
HETATM    6  N   UNL     1      43.320 -18.227   6.530  1.00  0.00    -0.327 N 
HETATM    7  H   UNL     1      42.882 -18.622   7.357  1.00  0.00     0.169 HD
HETATM    8  O   UNL     1      43.456 -20.396   6.119  1.00  0.00    -0.273 OA
BRANCH   6   9
HETATM    9  C   UNL     1      43.384 -16.824   6.469  1.00  0.00     0.035 A 
HETATM   10  C   UNL     1      44.544 -16.058   6.455  1.00  0.00     0.032 A 
HETATM   11  C   UNL     1      44.478 -14.662   6.356  1.00  0.00     0.033 A 
HETATM   12  C   UNL     1      43.243 -14.006   6.278  1.00  0.00     0.044 A 
HETATM   13  N   UNL     1      43.203 -12.667   6.136  1.00  0.00    -0.359 N 
HETATM   14  C   UNL     1      42.041 -14.741   6.321  1.00  0.00     0.014 A 
HETATM   15  C   UNL     1      42.064 -11.972   6.003  1.00  0.00     0.007 A 
HETATM   16  H   UNL     1      44.087 -12.161   6.102  1.00  0.00     0.166 HD
HETATM   17  C   UNL     1      42.136 -10.494   5.796  1.00  0.00     0.068 C 
HETATM   18  C   UNL     1      40.848 -12.648   6.057  1.00  0.00     0.048 A 
HETATM   19  C   UNL     1      40.817 -14.028   6.272  1.00  0.00     0.020 A 
HETATM   20  C   UNL     1      42.147 -16.153   6.407  1.00  0.00     0.045 A 
BRANCH  19  21
HETATM   21  N   UNL     1      39.578 -14.677   6.199  1.00  0.00    -0.302 NA
HETATM   22  H   UNL     1      39.134 -14.706   5.285  1.00  0.00     0.124 HD
HETATM   23  H   UNL     1      39.525 -15.592   6.644  1.00  0.00     0.124 HD
ENDBRANCH  19  21
ENDBRANCH   6   9
ENDBRANCH   4   5
ENDBRANCH   3   4
ENDBRANCH   2   3
ENDBRANCH   1   2
BRANCH   1  24
HETATM   24  C   UNL     1      41.843 -16.912   2.568  1.00  0.00     0.000 C 
BRANCH  24  25
HETATM   25  C   UNL     1      41.709 -15.446   2.147  1.00  0.00     0.009 C 
BRANCH  25  26
HETATM   26  C   UNL     1      40.296 -14.872   2.197  1.00  0.00     0.103 C 
BRANCH  26  27
HETATM   27  C   UNL     1      40.082 -13.631   1.347  1.00  0.00     0.222 C 
HETATM   28  N   UNL     1      40.980 -13.516   0.300  1.00  0.00    -0.327 N 
HETATM   29  H   UNL     1      41.745 -14.183   0.289  1.00  0.00     0.169 HD
HETATM   30  O   UNL     1      39.169 -12.850   1.603  1.00  0.00    -0.273 OA
BRANCH  28  31
HETATM   31  C   UNL     1      40.969 -12.553  -0.730  1.00  0.00     0.035 A 
HETATM   32  C   UNL     1      41.494 -11.262  -0.597  1.00  0.00     0.045 A 
HETATM   33  C   UNL     1      41.450 -10.314  -1.650  1.00  0.00     0.014 A 
HETATM   34  C   UNL     1      40.837 -10.711  -2.859  1.00  0.00     0.044 A 
HETATM   35  C   UNL     1      41.976  -9.001  -1.561  1.00  0.00     0.020 A 
HETATM   36  N   UNL     1      40.740  -9.833  -3.874  1.00  0.00    -0.359 N 
HETATM   37  C   UNL     1      40.309 -12.001  -3.000  1.00  0.00     0.033 A 
HETATM   38  H   UNL     1      40.291 -10.141  -4.735  1.00  0.00     0.166 HD
HETATM   39  C   UNL     1      41.176  -8.564  -3.802  1.00  0.00     0.007 A 
HETATM   40  C   UNL     1      40.970  -7.657  -4.972  1.00  0.00     0.068 C 
HETATM   41  C   UNL     1      41.784  -8.124  -2.630  1.00  0.00     0.048 A 
HETATM   42  C   UNL     1      40.372 -12.912  -1.941  1.00  0.00     0.032 A 
BRANCH  35  43
HETATM   43  N   UNL     1      42.470  -8.472  -0.361  1.00  0.00    -0.302 NA
HETATM   44  H   UNL     1      42.927  -9.130   0.266  1.00  0.00     0.124 HD
HETATM   45  H   UNL     1      41.841  -7.862   0.157  1.00  0.00     0.124 HD
ENDBRANCH  35  43
ENDBRANCH  28  31
ENDBRANCH  26  27
ENDBRANCH  25  26
ENDBRANCH  24  25
ENDBRANCH   1  24
TORSDOF 12
ENDMDL
MODEL 9
REMARK VINA RESULT:      -8.6      1.662      2.229
REMARK  12 active torsions:
REMARK  status: ('A' for Active; 'I' for Inactive)
REMARK    1  A    between atoms: C_7  and  N_8 
REMARK    2  A    between atoms: C_12  and  N_13 
REMARK       I    between atoms: N_13  and  C_14 
REMARK    3  A    between atoms: C_14  and  C_15 
REMARK    4  A    between atoms: C_15  and  C_16 
REMARK    5  A    between atoms: C_16  and  C_17 
REMARK    6  A    between atoms: C_17  and  C_18 
REMARK    7  A    between atoms: C_18  and  C_19 
REMARK    8  A    between atoms: C_19  and  C_20 
REMARK    9  A    between atoms: C_20  and  C_21 
REMARK   10  A    between atoms: C_21  and  C_22 
REMARK       I    between atoms: C_22  and  N_23 
REMARK   11  A    between atoms: N_23  and  C_24 
REMARK   12  A    between atoms: C_33  and  N_34 
ROOT
HETATM    1  C   UNL     1      41.202 -11.997   6.031  1.00  0.00     0.000 C 
ENDROOT
BRANCH   1   2
HETATM    2  C   UNL     1      42.369 -12.973   5.846  1.00  0.00     0.000 C 
BRANCH   2   3
HETATM    3  C   UNL     1      43.639 -12.562   6.600  1.00  0.00     0.009 C 
BRANCH   3   4
HETATM    4  C   UNL     1      44.288 -11.254   6.138  1.00  0.00     0.103 C 
BRANCH   4   5
HETATM    5  C   UNL     1      45.679 -11.032   6.688  1.00  0.00     0.222 C 
HETATM    6  N   UNL     1      45.897 -10.276   7.805  1.00  0.00    -0.327 N 
HETATM    7  H   UNL     1      46.897 -10.251   7.979  1.00  0.00     0.169 HD
HETATM    8  O   UNL     1      46.675 -11.518   6.148  1.00  0.00    -0.273 OA
BRANCH   6   9
HETATM    9  C   UNL     1      45.088  -9.573   8.715  1.00  0.00     0.035 A 
HETATM   10  C   UNL     1      44.688  -8.247   8.597  1.00  0.00     0.032 A 
HETATM   11  C   UNL     1      43.847  -7.667   9.557  1.00  0.00     0.033 A 
HETATM   12  C   UNL     1      43.399  -8.405  10.659  1.00  0.00     0.044 A 
HETATM   13  N   UNL     1      42.554  -7.843  11.544  1.00  0.00    -0.359 N 
HETATM   14  C   UNL     1      43.807  -9.744  10.835  1.00  0.00     0.014 A 
HETATM   15  C   UNL     1      42.041  -8.499  12.596  1.00  0.00     0.007 A 
HETATM   16  H   UNL     1      42.272  -6.876  11.390  1.00  0.00     0.166 HD
HETATM   17  C   UNL     1      41.068  -7.795  13.486  1.00  0.00     0.068 C 
HETATM   18  C   UNL     1      42.426  -9.817  12.825  1.00  0.00     0.048 A 
HETATM   19  C   UNL     1      43.353 -10.439  11.983  1.00  0.00     0.020 A 
HETATM   20  C   UNL     1      44.646 -10.302   9.836  1.00  0.00     0.045 A 
BRANCH  19  21
HETATM   21  N   UNL     1      43.615 -11.799  12.185  1.00  0.00    -0.302 NA
HETATM   22  H   UNL     1      44.590 -12.083  12.151  1.00  0.00     0.124 HD
HETATM   23  H   UNL     1      43.150 -12.232  12.982  1.00  0.00     0.124 HD
ENDBRANCH  19  21
ENDBRANCH   6   9
ENDBRANCH   4   5
ENDBRANCH   3   4
ENDBRANCH   2   3
ENDBRANCH   1   2
BRANCH   1  24
HETATM   24  C   UNL     1      40.527 -11.685   4.692  1.00  0.00     0.000 C 
BRANCH  24  25
HETATM   25  C   UNL     1      41.489 -11.198   3.605  1.00  0.00     0.009 C 
BRANCH  25  26
HETATM   26  C   UNL     1      41.529 -12.042   2.334  1.00  0.00     0.103 C 
BRANCH  26  27
HETATM   27  C   UNL     1      41.462 -13.543   2.564  1.00  0.00     0.222 C 
HETATM   28  N   UNL     1      42.705 -14.137   2.696  1.00  0.00    -0.327 N 
HETATM   29  H   UNL     1      43.508 -13.548   2.501  1.00  0.00     0.169 HD
HETATM   30  O   UNL     1      40.377 -14.114   2.634  1.00  0.00    -0.273 OA
BRANCH  28  31
HETATM   31  C   UNL     1      42.975 -15.479   3.037  1.00  0.00     0.035 A 
HETATM   32  C   UNL     1      42.948 -15.971   4.348  1.00  0.00     0.045 A 
HETATM   33  C   UNL     1      43.242 -17.323   4.655  1.00  0.00     0.014 A 
HETATM   34  C   UNL     1      43.583 -18.176   3.582  1.00  0.00     0.044 A 
HETATM   35  C   UNL     1      43.218 -17.865   5.965  1.00  0.00     0.020 A 
HETATM   36  N   UNL     1      43.904 -19.459   3.829  1.00  0.00    -0.359 N 
HETATM   37  C   UNL     1      43.612 -17.691   2.268  1.00  0.00     0.033 A 
HETATM   38  H   UNL     1      44.150 -20.054   3.039  1.00  0.00     0.166 HD
HETATM   39  C   UNL     1      43.948 -19.989   5.063  1.00  0.00     0.007 A 
HETATM   40  C   UNL     1      44.369 -21.413   5.229  1.00  0.00     0.068 C 
HETATM   41  C   UNL     1      43.624 -19.188   6.154  1.00  0.00     0.048 A 
HETATM   42  C   UNL     1      43.315 -16.352   2.001  1.00  0.00     0.032 A 
BRANCH  35  43
HETATM   43  N   UNL     1      43.034 -17.067   7.102  1.00  0.00    -0.302 NA
HETATM   44  H   UNL     1      43.275 -17.491   7.994  1.00  0.00     0.124 HD
HETATM   45  H   UNL     1      42.145 -16.575   7.168  1.00  0.00     0.124 HD
ENDBRANCH  35  43
ENDBRANCH  28  31
ENDBRANCH  26  27
ENDBRANCH  25  26
ENDBRANCH  24  25
ENDBRANCH   1  24
TORSDOF 12
ENDMDL
MODEL 10
REMARK VINA RESULT:      -8.5      4.924      8.044
REMARK  12 active torsions:
REMARK  status: ('A' for Active; 'I' for Inactive)
REMARK    1  A    between atoms: C_7  and  N_8 
REMARK    2  A    between atoms: C_12  and  N_13 
REMARK       I    between atoms: N_13  and  C_14 
REMARK    3  A    between atoms: C_14  and  C_15 
REMARK    4  A    between atoms: C_15  and  C_16 
REMARK    5  A    between atoms: C_16  and  C_17 
REMARK    6  A    between atoms: C_17  and  C_18 
REMARK    7  A    between atoms: C_18  and  C_19 
REMARK    8  A    between atoms: C_19  and  C_20 
REMARK    9  A    between atoms: C_20  and  C_21 
REMARK   10  A    between atoms: C_21  and  C_22 
REMARK       I    between atoms: C_22  and  N_23 
REMARK   11  A    between atoms: N_23  and  C_24 
REMARK   12  A    between atoms: C_33  and  N_34 
ROOT
HETATM    1  C   UNL     1      40.863 -16.409   2.094  1.00  0.00     0.000 C 
ENDROOT
BRANCH   1   2
HETATM    2  C   UNL     1      42.205 -15.759   1.739  1.00  0.00     0.000 C 
BRANCH   2   3
HETATM    3  C   UNL     1      43.415 -16.659   2.010  1.00  0.00     0.009 C 
BRANCH   3   4
HETATM    4  C   UNL     1      43.138 -17.900   2.864  1.00  0.00     0.103 C 
BRANCH   4   5
HETATM    5  C   UNL     1      43.925 -17.944   4.155  1.00  0.00     0.222 C 
HETATM    6  N   UNL     1      43.607 -17.147   5.218  1.00  0.00    -0.327 N 
HETATM    7  H   UNL     1      44.273 -17.331   5.962  1.00  0.00     0.169 HD
HETATM    8  O   UNL     1      44.892 -18.695   4.299  1.00  0.00    -0.273 OA
BRANCH   6   9
HETATM    9  C   UNL     1      42.614 -16.190   5.493  1.00  0.00     0.035 A 
HETATM   10  C   UNL     1      41.338 -16.453   5.978  1.00  0.00     0.032 A 
HETATM   11  C   UNL     1      40.447 -15.405   6.248  1.00  0.00     0.033 A 
HETATM   12  C   UNL     1      40.818 -14.073   6.029  1.00  0.00     0.044 A 
HETATM   13  N   UNL     1      39.964 -13.079   6.340  1.00  0.00    -0.359 N 
HETATM   14  C   UNL     1      42.091 -13.763   5.508  1.00  0.00     0.014 A 
HETATM   15  C   UNL     1      40.264 -11.778   6.207  1.00  0.00     0.007 A 
HETATM   16  H   UNL     1      39.053 -13.331   6.720  1.00  0.00     0.166 HD
HETATM   17  C   UNL     1      39.261 -10.756   6.634  1.00  0.00     0.068 C 
HETATM   18  C   UNL     1      41.501 -11.419   5.680  1.00  0.00     0.048 A 
HETATM   19  C   UNL     1      42.408 -12.402   5.273  1.00  0.00     0.020 A 
HETATM   20  C   UNL     1      42.972 -14.848   5.260  1.00  0.00     0.045 A 
BRANCH  19  21
HETATM   21  N   UNL     1      43.682 -11.992   4.863  1.00  0.00    -0.302 NA
HETATM   22  H   UNL     1      44.442 -12.647   5.020  1.00  0.00     0.124 HD
HETATM   23  H   UNL     1      43.745 -11.599   3.925  1.00  0.00     0.124 HD
ENDBRANCH  19  21
ENDBRANCH   6   9
ENDBRANCH   4   5
ENDBRANCH   3   4
ENDBRANCH   2   3
ENDBRANCH   1   2
BRANCH   1  24
HETATM   24  C   UNL     1      39.847 -15.360   2.554  1.00  0.00     0.000 C 
BRANCH  24  25
HETATM   25  C   UNL     1      40.330 -13.914   2.406  1.00  0.00     0.009 C 
BRANCH  25  26
HETATM   26  C   UNL     1      39.255 -12.841   2.553  1.00  0.00     0.103 C 
BRANCH  26  27
HETATM   27  C   UNL     1      39.285 -11.759   1.486  1.00  0.00     0.222 C 
HETATM   28  N   UNL     1      40.396 -11.827   0.662  1.00  0.00    -0.327 N 
HETATM   29  H   UNL     1      41.115 -12.490   0.930  1.00  0.00     0.169 HD
HETATM   30  O   UNL     1      38.373 -10.942   1.402  1.00  0.00    -0.273 OA
BRANCH  28  31
HETATM   31  C   UNL     1      40.651 -11.051  -0.488  1.00  0.00     0.035 A 
HETATM   32  C   UNL     1      41.503  -9.940  -0.505  1.00  0.00     0.045 A 
HETATM   33  C   UNL     1      41.723  -9.172  -1.676  1.00  0.00     0.014 A 
HETATM   34  C   UNL     1      41.035  -9.559  -2.848  1.00  0.00     0.044 A 
HETATM   35  C   UNL     1      42.582  -8.047  -1.741  1.00  0.00     0.020 A 
HETATM   36  N   UNL     1      41.185  -8.839  -3.975  1.00  0.00    -0.359 N 
HETATM   37  C   UNL     1      40.180 -10.670  -2.838  1.00  0.00     0.033 A 
HETATM   38  H   UNL     1      40.675  -9.136  -4.806  1.00  0.00     0.166 HD
HETATM   39  C   UNL     1      41.945  -7.735  -4.054  1.00  0.00     0.007 A 
HETATM   40  C   UNL     1      42.000  -6.980  -5.343  1.00  0.00     0.068 C 
HETATM   41  C   UNL     1      42.641  -7.310  -2.926  1.00  0.00     0.048 A 
HETATM   42  C   UNL     1      39.988 -11.406  -1.665  1.00  0.00     0.032 A 
BRANCH  35  43
HETATM   43  N   UNL     1      43.192  -7.505  -0.601  1.00  0.00    -0.302 NA
HETATM   44  H   UNL     1      43.481  -6.532  -0.665  1.00  0.00     0.124 HD
HETATM   45  H   UNL     1      43.922  -8.068  -0.168  1.00  0.00     0.124 HD
ENDBRANCH  35  43
ENDBRANCH  28  31
ENDBRANCH  26  27
ENDBRANCH  25  26
ENDBRANCH  24  25
ENDBRANCH   1  24
TORSDOF 12
ENDMDL
