MODEL 1
REMARK VINA RESULT:      -8.1      0.000      0.000
REMARK  6 active torsions:
REMARK  status: ('A' for Active; 'I' for Inactive)
REMARK    1  A    between atoms: C_9  and  C_10 
REMARK    2  A    between atoms: C_12  and  O_13 
REMARK    3  A    between atoms: C_15  and  O_16 
REMARK    4  A    between atoms: O_16  and  C_17 
REMARK    5  A    between atoms: C_17  and  C_18 
REMARK    6  A    between atoms: C_18  and  N_19 
ROOT
HETATM    1  H   UNL     1      43.565 -10.621  11.127  1.00  0.00     0.186 HD
HETATM    2  N   UNL     1      42.608 -10.554  11.503  1.00  0.00    -0.304 NA
HETATM    3  C   UNL     1      41.890  -9.601  10.994  1.00  0.00     0.062 C 
HETATM    4  C   UNL     1      40.422  -9.414  11.426  1.00  0.00     0.173 C 
HETATM    5  C   UNL     1      39.531  -9.818  10.263  1.00  0.00     0.012 C 
HETATM    6  N   UNL     1      38.792 -10.154   9.298  1.00  0.00    -0.099 N 
HETATM    7  C   UNL     1      40.074 -10.285  12.575  1.00  0.00     0.090 C 
HETATM    8  N   UNL     1      39.765 -10.887  13.518  1.00  0.00    -0.195 NA
HETATM    9  C   UNL     1      40.152  -7.910  11.804  1.00  0.00     0.070 C 
HETATM   10  C   UNL     1      40.660  -6.931  10.698  1.00  0.00     0.053 C 
HETATM   11  C   UNL     1      42.110  -7.195  10.316  1.00  0.00    -0.052 C 
HETATM   12  C   UNL     1      42.980  -6.173  10.170  1.00  0.00     0.005 C 
HETATM   13  C   UNL     1      42.497  -8.629   9.982  1.00  0.00     0.171 C 
HETATM   14  C   UNL     1      42.092  -8.941   8.605  1.00  0.00     0.074 C 
HETATM   15  N   UNL     1      41.748  -9.088   7.509  1.00  0.00    -0.196 NA
HETATM   16  C   UNL     1      40.369  -5.445  11.044  1.00  0.00     0.244 C 
HETATM   17  N   UNL     1      41.121  -4.507  10.132  1.00  0.00    -0.071 N 
HETATM   18  H   UNL     1      40.947  -3.552  10.473  1.00  0.00     0.279 HD
HETATM   19  C   UNL     1      40.630  -4.499   8.705  1.00  0.00     0.270 C 
HETATM   20  C   UNL     1      42.608  -4.723  10.254  1.00  0.00     0.262 C 
ENDROOT
BRANCH   9  21
HETATM   21  C   UNL     1      40.603  -7.537  13.229  1.00  0.00    -0.047 A 
HETATM   22  C   UNL     1      39.717  -7.106  14.228  1.00  0.00     0.047 A 
HETATM   23  C   UNL     1      40.200  -6.554  15.425  1.00  0.00     0.102 A 
HETATM   24  C   UNL     1      41.573  -6.505  15.695  1.00  0.00     0.102 A 
HETATM   25  C   UNL     1      42.455  -7.028  14.751  1.00  0.00     0.040 A 
HETATM   26  C   UNL     1      41.979  -7.513  13.524  1.00  0.00     0.010 A 
BRANCH  23  27
HETATM   27  O   UNL     1      39.335  -6.053  16.370  1.00  0.00    -0.353 OA
HETATM   28  C   UNL     1      38.294  -5.267  15.779  1.00  0.00     0.210 C 
ENDBRANCH  23  27
BRANCH  24  29
HETATM   29  O   UNL     1      41.947  -5.923  16.880  1.00  0.00    -0.347 OA
BRANCH  29  30
HETATM   30  C   UNL     1      42.308  -6.811  17.943  1.00  0.00     0.203 C 
BRANCH  30  31
HETATM   31  C   UNL     1      41.894  -6.174  19.277  1.00  0.00     0.261 C 
BRANCH  31  32
HETATM   32  N   UNL     1      41.109  -7.132  20.154  1.00  0.00    -0.065 N 
HETATM   33  H   UNL     1      41.811  -7.727  20.622  1.00  0.00     0.280 HD
HETATM   34  C   UNL     1      40.286  -6.449  21.238  1.00  0.00     0.261 C 
HETATM   35  C   UNL     1      39.505  -7.497  22.038  1.00  0.00     0.195 C 
HETATM   36  O   UNL     1      38.663  -8.272  21.180  1.00  0.00    -0.388 OA
HETATM   37  C   UNL     1      39.424  -8.994  20.207  1.00  0.00     0.195 C 
HETATM   38  C   UNL     1      40.209  -8.035  19.307  1.00  0.00     0.261 C 
ENDBRANCH  31  32
ENDBRANCH  30  31
ENDBRANCH  29  30
ENDBRANCH  24  29
ENDBRANCH   9  21
TORSDOF 6
ENDMDL
MODEL 2
REMARK VINA RESULT:      -8.0      8.731     12.717
REMARK  6 active torsions:
REMARK  status: ('A' for Active; 'I' for Inactive)
REMARK    1  A    between atoms: C_9  and  C_10 
REMARK    2  A    between atoms: C_12  and  O_13 
REMARK    3  A    between atoms: C_15  and  O_16 
REMARK    4  A    between atoms: O_16  and  C_17 
REMARK    5  A    between atoms: C_17  and  C_18 
REMARK    6  A    between atoms: C_18  and  N_19 
ROOT
HETATM    1  H   UNL     1      43.003 -11.626   1.857  1.00  0.00     0.186 HD
HETATM    2  N   UNL     1      42.237 -12.267   2.113  1.00  0.00    -0.304 NA
HETATM    3  C   UNL     1      41.315 -11.740   2.858  1.00  0.00     0.062 C 
HETATM    4  C   UNL     1      40.083 -12.567   3.277  1.00  0.00     0.173 C 
HETATM    5  C   UNL     1      38.874 -12.024   2.532  1.00  0.00     0.012 C 
HETATM    6  N   UNL     1      37.871 -11.575   1.915  1.00  0.00    -0.099 N 
HETATM    7  C   UNL     1      40.230 -13.995   2.904  1.00  0.00     0.090 C 
HETATM    8  N   UNL     1      40.320 -15.135   2.705  1.00  0.00    -0.195 NA
HETATM    9  C   UNL     1      39.848 -12.448   4.829  1.00  0.00     0.070 C 
HETATM   10  C   UNL     1      39.858 -10.961   5.308  1.00  0.00     0.053 C 
HETATM   11  C   UNL     1      41.096 -10.212   4.836  1.00  0.00    -0.052 C 
HETATM   12  C   UNL     1      41.778  -9.409   5.682  1.00  0.00     0.005 C 
HETATM   13  C   UNL     1      41.451 -10.302   3.358  1.00  0.00     0.171 C 
HETATM   14  C   UNL     1      40.612  -9.369   2.593  1.00  0.00     0.074 C 
HETATM   15  N   UNL     1      39.917  -8.598   2.080  1.00  0.00    -0.196 NA
HETATM   16  C   UNL     1      39.593 -10.829   6.833  1.00  0.00     0.244 C 
HETATM   17  N   UNL     1      39.902  -9.438   7.329  1.00  0.00    -0.071 N 
HETATM   18  H   UNL     1      39.786  -9.451   8.351  1.00  0.00     0.279 HD
HETATM   19  C   UNL     1      38.941  -8.378   6.848  1.00  0.00     0.270 C 
HETATM   20  C   UNL     1      41.349  -9.092   7.083  1.00  0.00     0.262 C 
ENDROOT
BRANCH   9  21
HETATM   21  C   UNL     1      40.742 -13.384   5.665  1.00  0.00    -0.047 A 
HETATM   22  C   UNL     1      42.105 -13.140   5.897  1.00  0.00     0.047 A 
HETATM   23  C   UNL     1      42.924 -14.133   6.457  1.00  0.00     0.102 A 
HETATM   24  C   UNL     1      42.389 -15.354   6.886  1.00  0.00     0.102 A 
HETATM   25  C   UNL     1      41.017 -15.561   6.756  1.00  0.00     0.040 A 
HETATM   26  C   UNL     1      40.209 -14.600   6.130  1.00  0.00     0.010 A 
BRANCH  23  27
HETATM   27  O   UNL     1      44.276 -13.929   6.607  1.00  0.00    -0.353 OA
HETATM   28  C   UNL     1      44.596 -12.540   6.743  1.00  0.00     0.210 C 
ENDBRANCH  23  27
BRANCH  24  29
HETATM   29  O   UNL     1      43.276 -16.269   7.397  1.00  0.00    -0.347 OA
BRANCH  29  30
HETATM   30  C   UNL     1      43.245 -17.579   6.820  1.00  0.00     0.203 C 
BRANCH  30  31
HETATM   31  C   UNL     1      43.984 -17.540   5.474  1.00  0.00     0.261 C 
BRANCH  31  32
HETATM   32  N   UNL     1      43.541 -18.652   4.542  1.00  0.00    -0.065 N 
HETATM   33  H   UNL     1      42.539 -18.804   4.738  1.00  0.00     0.280 HD
HETATM   34  C   UNL     1      43.675 -18.312   3.063  1.00  0.00     0.261 C 
HETATM   35  C   UNL     1      43.242 -19.510   2.211  1.00  0.00     0.195 C 
HETATM   36  O   UNL     1      44.011 -20.672   2.533  1.00  0.00    -0.388 OA
HETATM   37  C   UNL     1      43.830 -21.062   3.898  1.00  0.00     0.195 C 
HETATM   38  C   UNL     1      44.288 -19.952   4.848  1.00  0.00     0.261 C 
ENDBRANCH  31  32
ENDBRANCH  30  31
ENDBRANCH  29  30
ENDBRANCH  24  29
ENDBRANCH   9  21
TORSDOF 6
ENDMDL
MODEL 3
REMARK VINA RESULT:      -7.9      5.049      9.327
REMARK  6 active torsions:
REMARK  status: ('A' for Active; 'I' for Inactive)
REMARK    1  A    between atoms: C_9  and  C_10 
REMARK    2  A    between atoms: C_12  and  O_13 
REMARK    3  A    between atoms: C_15  and  O_16 
REMARK    4  A    between atoms: O_16  and  C_17 
REMARK    5  A    between atoms: C_17  and  C_18 
REMARK    6  A    between atoms: C_18  and  N_19 
ROOT
HETATM    1  H   UNL     1      39.313 -10.412  11.487  1.00  0.00     0.186 HD
HETATM    2  N   UNL     1      40.329 -10.394  11.660  1.00  0.00    -0.304 NA
HETATM    3  C   UNL     1      40.842  -9.206  11.754  1.00  0.00     0.062 C 
HETATM    4  C   UNL     1      42.342  -9.027  12.061  1.00  0.00     0.173 C 
HETATM    5  C   UNL     1      42.474  -8.484  13.475  1.00  0.00     0.012 C 
HETATM    6  N   UNL     1      42.583  -8.034  14.648  1.00  0.00    -0.099 N 
HETATM    7  C   UNL     1      43.069 -10.318  12.012  1.00  0.00     0.090 C 
HETATM    8  N   UNL     1      43.705 -11.285  11.915  1.00  0.00    -0.195 NA
HETATM    9  C   UNL     1      42.990  -8.017  11.042  1.00  0.00     0.070 C 
HETATM   10  C   UNL     1      42.162  -6.697  10.923  1.00  0.00     0.053 C 
HETATM   11  C   UNL     1      40.691  -6.964  10.639  1.00  0.00    -0.052 C 
HETATM   12  C   UNL     1      40.030  -6.247   9.705  1.00  0.00     0.005 C 
HETATM   13  C   UNL     1      39.974  -7.968  11.532  1.00  0.00     0.171 C 
HETATM   14  C   UNL     1      39.599  -7.322  12.797  1.00  0.00     0.074 C 
HETATM   15  N   UNL     1      39.335  -6.724  13.753  1.00  0.00    -0.196 NA
HETATM   16  C   UNL     1      42.810  -5.679   9.945  1.00  0.00     0.244 C 
HETATM   17  N   UNL     1      41.862  -4.554   9.610  1.00  0.00    -0.071 N 
HETATM   18  H   UNL     1      42.325  -3.972   8.899  1.00  0.00     0.279 HD
HETATM   19  C   UNL     1      41.585  -3.611  10.756  1.00  0.00     0.270 C 
HETATM   20  C   UNL     1      40.613  -5.086   8.956  1.00  0.00     0.262 C 
ENDROOT
BRANCH   9  21
HETATM   21  C   UNL     1      43.359  -8.652   9.688  1.00  0.00    -0.047 A 
HETATM   22  C   UNL     1      42.403  -9.040   8.736  1.00  0.00     0.047 A 
HETATM   23  C   UNL     1      42.771  -9.826   7.631  1.00  0.00     0.102 A 
HETATM   24  C   UNL     1      44.110 -10.163   7.399  1.00  0.00     0.102 A 
HETATM   25  C   UNL     1      45.078  -9.692   8.285  1.00  0.00     0.040 A 
HETATM   26  C   UNL     1      44.705  -8.969   9.427  1.00  0.00     0.010 A 
BRANCH  23  27
HETATM   27  O   UNL     1      41.824 -10.279   6.743  1.00  0.00    -0.353 OA
HETATM   28  C   UNL     1      40.495  -9.959   7.168  1.00  0.00     0.210 C 
ENDBRANCH  23  27
BRANCH  24  29
HETATM   29  O   UNL     1      44.364 -10.956   6.308  1.00  0.00    -0.347 OA
BRANCH  29  30
HETATM   30  C   UNL     1      44.902 -12.256   6.574  1.00  0.00     0.203 C 
BRANCH  30  31
HETATM   31  C   UNL     1      43.739 -13.244   6.740  1.00  0.00     0.261 C 
BRANCH  31  32
HETATM   32  N   UNL     1      42.631 -13.004   5.729  1.00  0.00    -0.065 N 
HETATM   33  H   UNL     1      42.477 -11.984   5.715  1.00  0.00     0.280 HD
HETATM   34  C   UNL     1      42.981 -13.438   4.311  1.00  0.00     0.261 C 
HETATM   35  C   UNL     1      41.788 -13.191   3.382  1.00  0.00     0.195 C 
HETATM   36  O   UNL     1      40.625 -13.881   3.848  1.00  0.00    -0.388 OA
HETATM   37  C   UNL     1      40.226 -13.426   5.144  1.00  0.00     0.195 C 
HETATM   38  C   UNL     1      41.331 -13.676   6.175  1.00  0.00     0.261 C 
ENDBRANCH  31  32
ENDBRANCH  30  31
ENDBRANCH  29  30
ENDBRANCH  24  29
ENDBRANCH   9  21
TORSDOF 6
ENDMDL
MODEL 4
REMARK VINA RESULT:      -7.8     10.279     14.802
REMARK  6 active torsions:
REMARK  status: ('A' for Active; 'I' for Inactive)
REMARK    1  A    between atoms: C_9  and  C_10 
REMARK    2  A    between atoms: C_12  and  O_13 
REMARK    3  A    between atoms: C_15  and  O_16 
REMARK    4  A    between atoms: O_16  and  C_17 
REMARK    5  A    between atoms: C_17  and  C_18 
REMARK    6  A    between atoms: C_18  and  N_19 
ROOT
HETATM    1  H   UNL     1      39.425 -16.184   6.230  1.00  0.00     0.186 HD
HETATM    2  N   UNL     1      39.938 -16.244   5.338  1.00  0.00    -0.304 NA
HETATM    3  C   UNL     1      41.072 -15.614   5.320  1.00  0.00     0.062 C 
HETATM    4  C   UNL     1      41.969 -15.660   4.067  1.00  0.00     0.173 C 
HETATM    5  C   UNL     1      43.190 -16.505   4.390  1.00  0.00     0.012 C 
HETATM    6  N   UNL     1      44.203 -17.207   4.658  1.00  0.00    -0.099 N 
HETATM    7  C   UNL     1      41.278 -16.298   2.921  1.00  0.00     0.090 C 
HETATM    8  N   UNL     1      40.764 -16.719   1.969  1.00  0.00    -0.195 NA
HETATM    9  C   UNL     1      42.422 -14.206   3.667  1.00  0.00     0.070 C 
HETATM   10  C   UNL     1      43.003 -13.420   4.887  1.00  0.00     0.053 C 
HETATM   11  C   UNL     1      42.064 -13.441   6.085  1.00  0.00    -0.052 C 
HETATM   12  C   UNL     1      41.824 -12.314   6.790  1.00  0.00     0.005 C 
HETATM   13  C   UNL     1      41.521 -14.792   6.528  1.00  0.00     0.171 C 
HETATM   14  C   UNL     1      42.535 -15.494   7.327  1.00  0.00     0.074 C 
HETATM   15  N   UNL     1      43.391 -15.960   7.953  1.00  0.00    -0.196 NA
HETATM   16  C   UNL     1      43.483 -11.995   4.497  1.00  0.00     0.244 C 
HETATM   17  N   UNL     1      43.755 -11.150   5.718  1.00  0.00    -0.071 N 
HETATM   18  H   UNL     1      43.984 -10.204   5.384  1.00  0.00     0.279 HD
HETATM   19  C   UNL     1      44.963 -11.579   6.515  1.00  0.00     0.270 C 
HETATM   20  C   UNL     1      42.508 -11.002   6.552  1.00  0.00     0.262 C 
ENDROOT
BRANCH   9  21
HETATM   21  C   UNL     1      41.364 -13.426   2.863  1.00  0.00    -0.047 A 
HETATM   22  C   UNL     1      41.654 -12.740   1.673  1.00  0.00     0.047 A 
HETATM   23  C   UNL     1      40.721 -11.854   1.111  1.00  0.00     0.102 A 
HETATM   24  C   UNL     1      39.445 -11.702   1.666  1.00  0.00     0.102 A 
HETATM   25  C   UNL     1      39.113 -12.460   2.788  1.00  0.00     0.040 A 
HETATM   26  C   UNL     1      40.068 -13.290   3.394  1.00  0.00     0.010 A 
BRANCH  23  27
HETATM   27  O   UNL     1      41.034 -11.118  -0.007  1.00  0.00    -0.353 OA
HETATM   28  C   UNL     1      41.674  -9.881   0.329  1.00  0.00     0.210 C 
ENDBRANCH  23  27
BRANCH  24  29
HETATM   29  O   UNL     1      38.614 -10.793   1.059  1.00  0.00    -0.347 OA
BRANCH  29  30
HETATM   30  C   UNL     1      37.416 -11.313   0.475  1.00  0.00     0.203 C 
BRANCH  30  31
HETATM   31  C   UNL     1      37.552 -11.260  -1.053  1.00  0.00     0.261 C 
BRANCH  31  32
HETATM   32  N   UNL     1      38.813 -11.949  -1.543  1.00  0.00    -0.065 N 
HETATM   33  H   UNL     1      39.535 -11.757  -0.831  1.00  0.00     0.280 HD
HETATM   34  C   UNL     1      38.683 -13.462  -1.672  1.00  0.00     0.261 C 
HETATM   35  C   UNL     1      39.991 -14.053  -2.208  1.00  0.00     0.195 C 
HETATM   36  O   UNL     1      40.339 -13.468  -3.466  1.00  0.00    -0.388 OA
HETATM   37  C   UNL     1      40.552 -12.059  -3.351  1.00  0.00     0.195 C 
HETATM   38  C   UNL     1      39.282 -11.351  -2.871  1.00  0.00     0.261 C 
ENDBRANCH  31  32
ENDBRANCH  30  31
ENDBRANCH  29  30
ENDBRANCH  24  29
ENDBRANCH   9  21
TORSDOF 6
ENDMDL
MODEL 5
REMARK VINA RESULT:      -7.7     10.306     14.357
REMARK  6 active torsions:
REMARK  status: ('A' for Active; 'I' for Inactive)
REMARK    1  A    between atoms: C_9  and  C_10 
REMARK    2  A    between atoms: C_12  and  O_13 
REMARK    3  A    between atoms: C_15  and  O_16 
REMARK    4  A    between atoms: O_16  and  C_17 
REMARK    5  A    between atoms: C_17  and  C_18 
REMARK    6  A    between atoms: C_18  and  N_19 
ROOT
HETATM    1  H   UNL     1      39.488 -16.201   6.078  1.00  0.00     0.186 HD
HETATM    2  N   UNL     1      40.103 -16.345   5.264  1.00  0.00    -0.304 NA
HETATM    3  C   UNL     1      41.217 -15.682   5.302  1.00  0.00     0.062 C 
HETATM    4  C   UNL     1      42.257 -15.837   4.175  1.00  0.00     0.173 C 
HETATM    5  C   UNL     1      43.449 -16.598   4.732  1.00  0.00     0.012 C 
HETATM    6  N   UNL     1      44.438 -17.229   5.194  1.00  0.00    -0.099 N 
HETATM    7  C   UNL     1      41.719 -16.625   3.039  1.00  0.00     0.090 C 
HETATM    8  N   UNL     1      41.329 -17.170   2.091  1.00  0.00    -0.195 NA
HETATM    9  C   UNL     1      42.722 -14.423   3.662  1.00  0.00     0.070 C 
HETATM   10  C   UNL     1      43.138 -13.485   4.840  1.00  0.00     0.053 C 
HETATM   11  C   UNL     1      42.066 -13.402   5.918  1.00  0.00    -0.052 C 
HETATM   12  C   UNL     1      41.721 -12.212   6.454  1.00  0.00     0.005 C 
HETATM   13  C   UNL     1      41.503 -14.713   6.450  1.00  0.00     0.171 C 
HETATM   14  C   UNL     1      42.431 -15.283   7.436  1.00  0.00     0.074 C 
HETATM   15  N   UNL     1      43.217 -15.646   8.206  1.00  0.00    -0.196 NA
HETATM   16  C   UNL     1      43.631 -12.097   4.345  1.00  0.00     0.244 C 
HETATM   17  N   UNL     1      43.739 -11.111   5.482  1.00  0.00    -0.071 N 
HETATM   18  H   UNL     1      43.986 -10.201   5.068  1.00  0.00     0.279 HD
HETATM   19  C   UNL     1      44.853 -11.404   6.456  1.00  0.00     0.270 C 
HETATM   20  C   UNL     1      42.400 -10.912   6.144  1.00  0.00     0.262 C 
ENDROOT
BRANCH   9  21
HETATM   21  C   UNL     1      41.750 -13.777   2.657  1.00  0.00    -0.047 A 
HETATM   22  C   UNL     1      40.546 -13.165   3.037  1.00  0.00     0.047 A 
HETATM   23  C   UNL     1      39.589 -12.807   2.073  1.00  0.00     0.102 A 
HETATM   24  C   UNL     1      39.848 -12.962   0.706  1.00  0.00     0.102 A 
HETATM   25  C   UNL     1      41.086 -13.472   0.318  1.00  0.00     0.040 A 
HETATM   26  C   UNL     1      42.013 -13.898   1.280  1.00  0.00     0.010 A 
BRANCH  23  27
HETATM   27  O   UNL     1      38.373 -12.285   2.448  1.00  0.00    -0.353 OA
HETATM   28  C   UNL     1      38.500 -10.964   2.988  1.00  0.00     0.210 C 
ENDBRANCH  23  27
BRANCH  24  29
HETATM   29  O   UNL     1      38.840 -12.607  -0.155  1.00  0.00    -0.347 OA
BRANCH  29  30
HETATM   30  C   UNL     1      39.237 -12.178  -1.462  1.00  0.00     0.203 C 
BRANCH  30  31
HETATM   31  C   UNL     1      38.737 -10.742  -1.679  1.00  0.00     0.261 C 
BRANCH  31  32
HETATM   32  N   UNL     1      39.820  -9.710  -1.422  1.00  0.00    -0.065 N 
HETATM   33  H   UNL     1      39.570  -8.889  -1.995  1.00  0.00     0.280 HD
HETATM   34  C   UNL     1      39.907  -9.251   0.028  1.00  0.00     0.261 C 
HETATM   35  C   UNL     1      41.051  -8.245   0.188  1.00  0.00     0.195 C 
HETATM   36  O   UNL     1      42.294  -8.810  -0.238  1.00  0.00    -0.388 OA
HETATM   37  C   UNL     1      42.264  -9.168  -1.622  1.00  0.00     0.195 C 
HETATM   38  C   UNL     1      41.184 -10.220  -1.891  1.00  0.00     0.261 C 
ENDBRANCH  31  32
ENDBRANCH  30  31
ENDBRANCH  29  30
ENDBRANCH  24  29
ENDBRANCH   9  21
TORSDOF 6
ENDMDL
MODEL 6
REMARK VINA RESULT:      -7.7      6.549     10.307
REMARK  6 active torsions:
REMARK  status: ('A' for Active; 'I' for Inactive)
REMARK    1  A    between atoms: C_9  and  C_10 
REMARK    2  A    between atoms: C_12  and  O_13 
REMARK    3  A    between atoms: C_15  and  O_16 
REMARK    4  A    between atoms: O_16  and  C_17 
REMARK    5  A    between atoms: C_17  and  C_18 
REMARK    6  A    between atoms: C_18  and  N_19 
ROOT
HETATM    1  H   UNL     1      38.890 -15.719   2.455  1.00  0.00     0.186 HD
HETATM    2  N   UNL     1      39.509 -14.912   2.289  1.00  0.00    -0.304 NA
HETATM    3  C   UNL     1      40.660 -14.980   2.883  1.00  0.00     0.062 C 
HETATM    4  C   UNL     1      41.707 -13.866   2.684  1.00  0.00     0.173 C 
HETATM    5  C   UNL     1      42.842 -14.428   1.844  1.00  0.00     0.012 C 
HETATM    6  N   UNL     1      43.784 -14.895   1.147  1.00  0.00    -0.099 N 
HETATM    7  C   UNL     1      41.142 -12.708   1.948  1.00  0.00     0.090 C 
HETATM    8  N   UNL     1      40.737 -11.744   1.445  1.00  0.00    -0.195 NA
HETATM    9  C   UNL     1      42.264 -13.386   4.076  1.00  0.00     0.070 C 
HETATM   10  C   UNL     1      42.716 -14.586   4.968  1.00  0.00     0.053 C 
HETATM   11  C   UNL     1      41.633 -15.648   5.097  1.00  0.00    -0.052 C 
HETATM   12  C   UNL     1      41.351 -16.200   6.296  1.00  0.00     0.005 C 
HETATM   13  C   UNL     1      40.984 -16.148   3.813  1.00  0.00     0.171 C 
HETATM   14  C   UNL     1      41.860 -17.139   3.172  1.00  0.00     0.074 C 
HETATM   15  N   UNL     1      42.609 -17.914   2.750  1.00  0.00    -0.196 NA
HETATM   16  C   UNL     1      43.299 -14.123   6.331  1.00  0.00     0.244 C 
HETATM   17  N   UNL     1      43.447 -15.279   7.290  1.00  0.00    -0.071 N 
HETATM   18  H   UNL     1      43.755 -14.885   8.190  1.00  0.00     0.279 HD
HETATM   19  C   UNL     1      44.526 -16.265   6.915  1.00  0.00     0.270 C 
HETATM   20  C   UNL     1      42.111 -15.924   7.558  1.00  0.00     0.262 C 
ENDROOT
BRANCH   9  21
HETATM   21  C   UNL     1      41.350 -12.377   4.796  1.00  0.00    -0.047 A 
HETATM   22  C   UNL     1      41.730 -11.054   5.070  1.00  0.00     0.047 A 
HETATM   23  C   UNL     1      40.964 -10.253   5.932  1.00  0.00     0.102 A 
HETATM   24  C   UNL     1      39.755 -10.716   6.465  1.00  0.00     0.102 A 
HETATM   25  C   UNL     1      39.318 -11.992   6.112  1.00  0.00     0.040 A 
HETATM   26  C   UNL     1      40.117 -12.820   5.309  1.00  0.00     0.010 A 
BRANCH  23  27
HETATM   27  O   UNL     1      41.379  -8.986   6.270  1.00  0.00    -0.353 OA
HETATM   28  C   UNL     1      41.323  -8.089   5.155  1.00  0.00     0.210 C 
ENDBRANCH  23  27
BRANCH  24  29
HETATM   29  O   UNL     1      39.093  -9.868   7.317  1.00  0.00    -0.347 OA
BRANCH  29  30
HETATM   30  C   UNL     1      39.068 -10.241   8.698  1.00  0.00     0.203 C 
BRANCH  30  31
HETATM   31  C   UNL     1      39.895  -9.224   9.497  1.00  0.00     0.261 C 
BRANCH  31  32
HETATM   32  N   UNL     1      40.518  -9.836  10.739  1.00  0.00    -0.065 N 
HETATM   33  H   UNL     1      40.474 -10.858  10.603  1.00  0.00     0.280 HD
HETATM   34  C   UNL     1      41.980  -9.462  10.948  1.00  0.00     0.261 C 
HETATM   35  C   UNL     1      42.500 -10.096  12.242  1.00  0.00     0.195 C 
HETATM   36  O   UNL     1      41.710  -9.690  13.364  1.00  0.00    -0.388 OA
HETATM   37  C   UNL     1      40.349 -10.109  13.229  1.00  0.00     0.195 C 
HETATM   38  C   UNL     1      39.706  -9.485  11.987  1.00  0.00     0.261 C 
ENDBRANCH  31  32
ENDBRANCH  30  31
ENDBRANCH  29  30
ENDBRANCH  24  29
ENDBRANCH   9  21
TORSDOF 6
ENDMDL
MODEL 7
REMARK VINA RESULT:      -7.4     11.794     14.494
REMARK  6 active torsions:
REMARK  status: ('A' for Active; 'I' for Inactive)
REMARK    1  A    between atoms: C_9  and  C_10 
REMARK    2  A    between atoms: C_12  and  O_13 
REMARK    3  A    between atoms: C_15  and  O_16 
REMARK    4  A    between atoms: O_16  and  C_17 
REMARK    5  A    between atoms: C_17  and  C_18 
REMARK    6  A    between atoms: C_18  and  N_19 
ROOT
HETATM    1  H   UNL     1      35.256 -10.892   0.829  1.00  0.00     0.186 HD
HETATM    2  N   UNL     1      36.020 -10.281   1.155  1.00  0.00    -0.304 NA
HETATM    3  C   UNL     1      37.072 -10.278   0.397  1.00  0.00     0.062 C 
HETATM    4  C   UNL     1      38.274  -9.373   0.735  1.00  0.00     0.173 C 
HETATM    5  C   UNL     1      38.331  -8.258  -0.297  1.00  0.00     0.012 C 
HETATM    6  N   UNL     1      38.378  -7.333  -1.153  1.00  0.00    -0.099 N 
HETATM    7  C   UNL     1      38.124  -8.737   2.066  1.00  0.00     0.090 C 
HETATM    8  N   UNL     1      38.098  -8.272   3.130  1.00  0.00    -0.195 NA
HETATM    9  C   UNL     1      39.611 -10.202   0.694  1.00  0.00     0.070 C 
HETATM   10  C   UNL     1      39.741 -11.034  -0.623  1.00  0.00     0.053 C 
HETATM   11  C   UNL     1      38.506 -11.884  -0.892  1.00  0.00    -0.052 C 
HETATM   12  C   UNL     1      38.629 -13.169  -1.287  1.00  0.00     0.005 C 
HETATM   13  C   UNL     1      37.151 -11.194  -0.824  1.00  0.00     0.171 C 
HETATM   14  C   UNL     1      36.906 -10.466  -2.077  1.00  0.00     0.074 C 
HETATM   15  N   UNL     1      36.798  -9.936  -3.101  1.00  0.00    -0.196 NA
HETATM   16  C   UNL     1      41.072 -11.831  -0.690  1.00  0.00     0.244 C 
HETATM   17  N   UNL     1      41.051 -12.850  -1.803  1.00  0.00    -0.071 N 
HETATM   18  H   UNL     1      41.923 -13.392  -1.732  1.00  0.00     0.279 HD
HETATM   19  C   UNL     1      41.081 -12.256  -3.190  1.00  0.00     0.270 C 
HETATM   20  C   UNL     1      39.933 -13.840  -1.599  1.00  0.00     0.262 C 
ENDROOT
BRANCH   9  21
HETATM   21  C   UNL     1      39.879 -11.012   1.977  1.00  0.00    -0.047 A 
HETATM   22  C   UNL     1      40.959 -10.756   2.836  1.00  0.00     0.047 A 
HETATM   23  C   UNL     1      41.296 -11.663   3.853  1.00  0.00     0.102 A 
HETATM   24  C   UNL     1      40.511 -12.796   4.099  1.00  0.00     0.102 A 
HETATM   25  C   UNL     1      39.375 -13.001   3.317  1.00  0.00     0.040 A 
HETATM   26  C   UNL     1      39.078 -12.135   2.254  1.00  0.00     0.010 A 
BRANCH  23  27
HETATM   27  O   UNL     1      42.404 -11.458   4.641  1.00  0.00    -0.353 OA
HETATM   28  C   UNL     1      43.621 -11.585   3.897  1.00  0.00     0.210 C 
ENDBRANCH  23  27
BRANCH  24  29
HETATM   29  O   UNL     1      40.938 -13.635   5.098  1.00  0.00    -0.347 OA
BRANCH  29  30
HETATM   30  C   UNL     1      41.018 -15.027   4.772  1.00  0.00     0.203 C 
BRANCH  30  31
HETATM   31  C   UNL     1      42.314 -15.273   3.986  1.00  0.00     0.261 C 
BRANCH  31  32
HETATM   32  N   UNL     1      42.647 -16.749   3.872  1.00  0.00    -0.065 N 
HETATM   33  H   UNL     1      41.815 -17.255   4.215  1.00  0.00     0.280 HD
HETATM   34  C   UNL     1      42.914 -17.216   2.446  1.00  0.00     0.261 C 
HETATM   35  C   UNL     1      43.277 -18.705   2.445  1.00  0.00     0.195 C 
HETATM   36  O   UNL     1      44.412 -18.955   3.278  1.00  0.00    -0.388 OA
HETATM   37  C   UNL     1      44.153 -18.606   4.641  1.00  0.00     0.195 C 
HETATM   38  C   UNL     1      43.830 -17.114   4.771  1.00  0.00     0.261 C 
ENDBRANCH  31  32
ENDBRANCH  30  31
ENDBRANCH  29  30
ENDBRANCH  24  29
ENDBRANCH   9  21
TORSDOF 6
ENDMDL
MODEL 8
REMARK VINA RESULT:      -7.3     11.044     15.025
REMARK  6 active torsions:
REMARK  status: ('A' for Active; 'I' for Inactive)
REMARK    1  A    between atoms: C_9  and  C_10 
REMARK    2  A    between atoms: C_12  and  O_13 
REMARK    3  A    between atoms: C_15  and  O_16 
REMARK    4  A    between atoms: O_16  and  C_17 
REMARK    5  A    between atoms: C_17  and  C_18 
REMARK    6  A    between atoms: C_18  and  N_19 
ROOT
HETATM    1  H   UNL     1      43.253 -11.974   6.584  1.00  0.00     0.186 HD
HETATM    2  N   UNL     1      42.244 -12.116   6.434  1.00  0.00    -0.304 NA
HETATM    3  C   UNL     1      41.939 -13.200   5.788  1.00  0.00     0.062 C 
HETATM    4  C   UNL     1      40.463 -13.567   5.535  1.00  0.00     0.173 C 
HETATM    5  C   UNL     1      40.119 -14.768   6.402  1.00  0.00     0.012 C 
HETATM    6  N   UNL     1      39.833 -15.763   7.120  1.00  0.00    -0.099 N 
HETATM    7  C   UNL     1      39.550 -12.464   5.921  1.00  0.00     0.090 C 
HETATM    8  N   UNL     1      38.793 -11.611   6.135  1.00  0.00    -0.195 NA
HETATM    9  C   UNL     1      40.243 -13.927   4.018  1.00  0.00     0.070 C 
HETATM   10  C   UNL     1      41.295 -14.963   3.507  1.00  0.00     0.053 C 
HETATM   11  C   UNL     1      42.723 -14.534   3.814  1.00  0.00    -0.052 C 
HETATM   12  C   UNL     1      43.689 -14.640   2.877  1.00  0.00     0.005 C 
HETATM   13  C   UNL     1      43.037 -14.112   5.242  1.00  0.00     0.171 C 
HETATM   14  C   UNL     1      43.230 -15.305   6.078  1.00  0.00     0.074 C 
HETATM   15  N   UNL     1      43.377 -16.301   6.650  1.00  0.00    -0.196 NA
HETATM   16  C   UNL     1      41.068 -15.351   2.020  1.00  0.00     0.244 C 
HETATM   17  N   UNL     1      42.249 -16.105   1.459  1.00  0.00    -0.071 N 
HETATM   18  H   UNL     1      42.064 -16.252   0.457  1.00  0.00     0.279 HD
HETATM   19  C   UNL     1      42.426 -17.494   2.023  1.00  0.00     0.270 C 
HETATM   20  C   UNL     1      43.499 -15.266   1.528  1.00  0.00     0.262 C 
ENDROOT
BRANCH   9  21
HETATM   21  C   UNL     1      40.078 -12.697   3.106  1.00  0.00    -0.047 A 
HETATM   22  C   UNL     1      38.976 -12.511   2.257  1.00  0.00     0.047 A 
HETATM   23  C   UNL     1      38.987 -11.504   1.278  1.00  0.00     0.102 A 
HETATM   24  C   UNL     1      40.052 -10.600   1.185  1.00  0.00     0.102 A 
HETATM   25  C   UNL     1      41.102 -10.713   2.094  1.00  0.00     0.040 A 
HETATM   26  C   UNL     1      41.127 -11.762   3.025  1.00  0.00     0.010 A 
BRANCH  23  27
HETATM   27  O   UNL     1      37.946 -11.375   0.389  1.00  0.00    -0.353 OA
HETATM   28  C   UNL     1      36.776 -10.832   1.011  1.00  0.00     0.210 C 
ENDBRANCH  23  27
BRANCH  24  29
HETATM   29  O   UNL     1      39.982  -9.669   0.179  1.00  0.00    -0.347 OA
BRANCH  29  30
HETATM   30  C   UNL     1      41.094  -9.615  -0.721  1.00  0.00     0.203 C 
BRANCH  30  31
HETATM   31  C   UNL     1      40.609 -10.011  -2.124  1.00  0.00     0.261 C 
BRANCH  31  32
HETATM   32  N   UNL     1      40.034 -11.415  -2.159  1.00  0.00    -0.065 N 
HETATM   33  H   UNL     1      39.907 -11.694  -1.173  1.00  0.00     0.280 HD
HETATM   34  C   UNL     1      38.677 -11.513  -2.844  1.00  0.00     0.261 C 
HETATM   35  C   UNL     1      38.206 -12.971  -2.862  1.00  0.00     0.195 C 
HETATM   36  O   UNL     1      39.162 -13.810  -3.516  1.00  0.00    -0.388 OA
HETATM   37  C   UNL     1      40.421 -13.802  -2.837  1.00  0.00     0.195 C 
HETATM   38  C   UNL     1      41.017 -12.392  -2.808  1.00  0.00     0.261 C 
ENDBRANCH  31  32
ENDBRANCH  30  31
ENDBRANCH  29  30
ENDBRANCH  24  29
ENDBRANCH   9  21
TORSDOF 6
ENDMDL
MODEL 9
REMARK VINA RESULT:      -7.1      5.938     10.816
REMARK  6 active torsions:
REMARK  status: ('A' for Active; 'I' for Inactive)
REMARK    1  A    between atoms: C_9  and  C_10 
REMARK    2  A    between atoms: C_12  and  O_13 
REMARK    3  A    between atoms: C_15  and  O_16 
REMARK    4  A    between atoms: O_16  and  C_17 
REMARK    5  A    between atoms: C_17  and  C_18 
REMARK    6  A    between atoms: C_18  and  N_19 
ROOT
HETATM    1  H   UNL     1      43.377  -5.808   7.586  1.00  0.00     0.186 HD
HETATM    2  N   UNL     1      42.380  -6.041   7.470  1.00  0.00    -0.304 NA
HETATM    3  C   UNL     1      41.801  -6.494   8.539  1.00  0.00     0.062 C 
HETATM    4  C   UNL     1      40.298  -6.838   8.526  1.00  0.00     0.173 C 
HETATM    5  C   UNL     1      39.569  -5.800   9.363  1.00  0.00     0.012 C 
HETATM    6  N   UNL     1      38.963  -4.938  10.056  1.00  0.00    -0.099 N 
HETATM    7  C   UNL     1      39.735  -6.779   7.155  1.00  0.00     0.090 C 
HETATM    8  N   UNL     1      39.255  -6.823   6.099  1.00  0.00    -0.195 NA
HETATM    9  C   UNL     1      40.061  -8.271   9.133  1.00  0.00     0.070 C 
HETATM   10  C   UNL     1      40.783  -8.449  10.507  1.00  0.00     0.053 C 
HETATM   11  C   UNL     1      42.256  -8.070  10.438  1.00  0.00    -0.052 C 
HETATM   12  C   UNL     1      43.195  -8.853  11.011  1.00  0.00     0.005 C 
HETATM   13  C   UNL     1      42.606  -6.725   9.817  1.00  0.00     0.171 C 
HETATM   14  C   UNL     1      42.393  -5.657  10.804  1.00  0.00     0.074 C 
HETATM   15  N   UNL     1      42.207  -4.889  11.651  1.00  0.00    -0.196 NA
HETATM   16  C   UNL     1      40.529  -9.847  11.132  1.00  0.00     0.244 C 
HETATM   17  N   UNL     1      41.460 -10.114  12.290  1.00  0.00    -0.071 N 
HETATM   18  H   UNL     1      41.292 -11.082  12.594  1.00  0.00     0.279 HD
HETATM   19  C   UNL     1      41.188  -9.274  13.514  1.00  0.00     0.270 C 
HETATM   20  C   UNL     1      42.898 -10.068  11.838  1.00  0.00     0.262 C 
ENDROOT
BRANCH   9  21
HETATM   21  C   UNL     1      40.316  -9.418   8.136  1.00  0.00    -0.047 A 
HETATM   22  C   UNL     1      41.564  -9.653   7.539  1.00  0.00     0.047 A 
HETATM   23  C   UNL     1      41.687 -10.551   6.467  1.00  0.00     0.102 A 
HETATM   24  C   UNL     1      40.592 -11.304   6.027  1.00  0.00     0.102 A 
HETATM   25  C   UNL     1      39.373 -11.152   6.685  1.00  0.00     0.040 A 
HETATM   26  C   UNL     1      39.230 -10.203   7.708  1.00  0.00     0.010 A 
BRANCH  23  27
HETATM   27  O   UNL     1      42.891 -10.721   5.824  1.00  0.00    -0.353 OA
HETATM   28  C   UNL     1      43.936 -11.088   6.733  1.00  0.00     0.210 C 
ENDBRANCH  23  27
BRANCH  24  29
HETATM   29  O   UNL     1      40.807 -12.135   4.955  1.00  0.00    -0.347 OA
BRANCH  29  30
HETATM   30  C   UNL     1      40.616 -13.535   5.184  1.00  0.00     0.203 C 
BRANCH  30  31
HETATM   31  C   UNL     1      41.992 -14.197   5.345  1.00  0.00     0.261 C 
BRANCH  31  32
HETATM   32  N   UNL     1      42.072 -15.539   4.640  1.00  0.00    -0.065 N 
HETATM   33  H   UNL     1      41.397 -16.153   5.122  1.00  0.00     0.280 HD
HETATM   34  C   UNL     1      41.682 -15.491   3.168  1.00  0.00     0.261 C 
HETATM   35  C   UNL     1      41.835 -16.882   2.543  1.00  0.00     0.195 C 
HETATM   36  O   UNL     1      43.171 -17.367   2.695  1.00  0.00    -0.388 OA
HETATM   37  C   UNL     1      43.529 -17.505   4.073  1.00  0.00     0.195 C 
HETATM   38  C   UNL     1      43.465 -16.154   4.791  1.00  0.00     0.261 C 
ENDBRANCH  31  32
ENDBRANCH  30  31
ENDBRANCH  29  30
ENDBRANCH  24  29
ENDBRANCH   9  21
TORSDOF 6
ENDMDL
MODEL 10
REMARK VINA RESULT:      -7.0     11.644     14.926
REMARK  6 active torsions:
REMARK  status: ('A' for Active; 'I' for Inactive)
REMARK    1  A    between atoms: C_9  and  C_10 
REMARK    2  A    between atoms: C_12  and  O_13 
REMARK    3  A    between atoms: C_15  and  O_16 
REMARK    4  A    between atoms: O_16  and  C_17 
REMARK    5  A    between atoms: C_17  and  C_18 
REMARK    6  A    between atoms: C_18  and  N_19 
ROOT
HETATM    1  H   UNL     1      43.301  -8.719  -0.729  1.00  0.00     0.186 HD
HETATM    2  N   UNL     1      42.643  -9.410  -1.120  1.00  0.00    -0.304 NA
HETATM    3  C   UNL     1      41.431  -9.324  -0.665  1.00  0.00     0.062 C 
HETATM    4  C   UNL     1      40.330 -10.262  -1.198  1.00  0.00     0.173 C 
HETATM    5  C   UNL     1      39.373  -9.436  -2.043  1.00  0.00     0.012 C 
HETATM    6  N   UNL     1      38.580  -8.751  -2.744  1.00  0.00    -0.099 N 
HETATM    7  C   UNL     1      40.889 -11.323  -2.071  1.00  0.00     0.090 C 
HETATM    8  N   UNL     1      41.276 -12.219  -2.699  1.00  0.00    -0.195 NA
HETATM    9  C   UNL     1      39.548 -10.920  -0.001  1.00  0.00     0.070 C 
HETATM   10  C   UNL     1      39.082  -9.858   1.046  1.00  0.00     0.053 C 
HETATM   11  C   UNL     1      40.225  -8.962   1.505  1.00  0.00    -0.052 C 
HETATM   12  C   UNL     1      40.386  -8.670   2.813  1.00  0.00     0.005 C 
HETATM   13  C   UNL     1      41.084  -8.314   0.428  1.00  0.00     0.171 C 
HETATM   14  C   UNL     1      40.393  -7.134  -0.110  1.00  0.00     0.074 C 
HETATM   15  N   UNL     1      39.778  -6.217  -0.460  1.00  0.00    -0.196 NA
HETATM   16  C   UNL     1      38.280 -10.492   2.215  1.00  0.00     0.244 C 
HETATM   17  N   UNL     1      38.102  -9.518   3.355  1.00  0.00    -0.071 N 
HETATM   18  H   UNL     1      37.641 -10.031   4.118  1.00  0.00     0.279 HD
HETATM   19  C   UNL     1      37.174  -8.368   3.051  1.00  0.00     0.270 C 
HETATM   20  C   UNL     1      39.439  -9.083   3.898  1.00  0.00     0.262 C 
ENDROOT
BRANCH   9  21
HETATM   21  C   UNL     1      40.265 -12.137   0.614  1.00  0.00    -0.047 A 
HETATM   22  C   UNL     1      41.367 -12.025   1.476  1.00  0.00     0.047 A 
HETATM   23  C   UNL     1      42.128 -13.155   1.816  1.00  0.00     0.102 A 
HETATM   24  C   UNL     1      41.755 -14.433   1.385  1.00  0.00     0.102 A 
HETATM   25  C   UNL     1      40.600 -14.565   0.616  1.00  0.00     0.040 A 
HETATM   26  C   UNL     1      39.880 -13.430   0.214  1.00  0.00     0.010 A 
BRANCH  23  27
HETATM   27  O   UNL     1      43.258 -13.036   2.591  1.00  0.00    -0.353 OA
HETATM   28  C   UNL     1      43.351 -11.747   3.208  1.00  0.00     0.210 C 
ENDBRANCH  23  27
BRANCH  24  29
HETATM   29  O   UNL     1      42.577 -15.470   1.749  1.00  0.00    -0.347 OA
BRANCH  29  30
HETATM   30  C   UNL     1      42.045 -16.409   2.689  1.00  0.00     0.203 C 
BRANCH  30  31
HETATM   31  C   UNL     1      43.148 -16.775   3.693  1.00  0.00     0.261 C 
BRANCH  31  32
HETATM   32  N   UNL     1      43.748 -18.142   3.416  1.00  0.00    -0.065 N 
HETATM   33  H   UNL     1      44.708 -17.966   3.079  1.00  0.00     0.280 HD
HETATM   34  C   UNL     1      43.847 -19.036   4.645  1.00  0.00     0.261 C 
HETATM   35  C   UNL     1      44.426 -20.400   4.252  1.00  0.00     0.195 C 
HETATM   36  O   UNL     1      43.630 -21.021   3.239  1.00  0.00    -0.388 OA
HETATM   37  C   UNL     1      43.595 -20.238   2.042  1.00  0.00     0.195 C 
HETATM   38  C   UNL     1      42.978 -18.862   2.307  1.00  0.00     0.261 C 
ENDBRANCH  31  32
ENDBRANCH  30  31
ENDBRANCH  29  30
ENDBRANCH  24  29
ENDBRANCH   9  21
TORSDOF 6
ENDMDL
