MODEL 1
REMARK VINA RESULT:      -8.5      0.000      0.000
REMARK  5 active torsions:
REMARK  status: ('A' for Active; 'I' for Inactive)
REMARK    1  A    between atoms: C_8  and  C_9 
REMARK    2  A    between atoms: N_10  and  N_11 
REMARK       I    between atoms: N_11  and  C_12 
REMARK    3  A    between atoms: C_12  and  C_13 
REMARK    4  A    between atoms: C_13  and  N_14 
REMARK    5  A    between atoms: N_14  and  C_15 
ROOT
HETATM    1  N   UNL     1      42.056 -13.770   1.894  1.00  0.00    -0.246 N 
HETATM    2  C   UNL     1      40.678 -13.600   1.733  1.00  0.00     0.255 C 
HETATM    3  O   UNL     1      39.808 -14.227   2.332  1.00  0.00    -0.270 OA
HETATM    4  H   UNL     1      42.657 -12.993   1.632  1.00  0.00     0.192 HD
ENDROOT
BRANCH   1   5
HETATM    5  N   UNL     1      42.626 -14.610   2.824  1.00  0.00    -0.184 NA
HETATM    6  C   UNL     1      42.750 -15.860   2.501  1.00  0.00     0.152 C 
BRANCH   6   7
HETATM    7  C   UNL     1      43.285 -16.805   3.460  1.00  0.00     0.011 A 
HETATM    8  C   UNL     1      43.442 -18.218   3.276  1.00  0.00     0.004 A 
HETATM    9  C   UNL     1      43.174 -19.108   2.215  1.00  0.00     0.014 A 
HETATM   10  C   UNL     1      43.980 -18.736   4.456  1.00  0.00     0.043 A 
HETATM   11  C   UNL     1      43.451 -20.471   2.368  1.00  0.00     0.001 A 
HETATM   12  C   UNL     1      43.988 -20.956   3.557  1.00  0.00     0.002 A 
HETATM   13  C   UNL     1      44.263 -20.096   4.626  1.00  0.00     0.030 A 
HETATM   14  N   UNL     1      44.144 -17.681   5.323  1.00  0.00    -0.364 N 
HETATM   15  H   UNL     1      44.513 -17.763   6.261  1.00  0.00     0.165 HD
HETATM   16  C   UNL     1      43.732 -16.517   4.736  1.00  0.00     0.102 A 
ENDBRANCH   6   7
ENDBRANCH   1   5
BRANCH   2  17
HETATM   17  C   UNL     1      40.335 -12.502   0.723  1.00  0.00     0.224 C 
BRANCH  17  18
HETATM   18  N   UNL     1      38.962 -12.653   0.234  1.00  0.00    -0.381 N 
HETATM   19  H   UNL     1      38.271 -12.888   0.941  1.00  0.00     0.160 HD
BRANCH  18  20
HETATM   20  C   UNL     1      38.700 -13.183  -1.026  1.00  0.00     0.028 A 
HETATM   21  C   UNL     1      39.426 -14.311  -1.441  1.00  0.00     0.032 A 
HETATM   22  C   UNL     1      39.156 -14.943  -2.658  1.00  0.00     0.044 A 
HETATM   23  C   UNL     1      38.134 -14.464  -3.463  1.00  0.00     0.116 A 
HETATM   24  F   UNL     1      37.864 -15.072  -4.625  1.00  0.00    -0.206 F 
HETATM   25  C   UNL     1      37.378 -13.370  -3.069  1.00  0.00     0.044 A 
HETATM   26  C   UNL     1      37.655 -12.740  -1.851  1.00  0.00     0.032 A 
ENDBRANCH  18  20
ENDBRANCH  17  18
ENDBRANCH   2  17
TORSDOF 5
ENDMDL
MODEL 2
REMARK VINA RESULT:      -7.8      7.617      9.895
REMARK  5 active torsions:
REMARK  status: ('A' for Active; 'I' for Inactive)
REMARK    1  A    between atoms: C_8  and  C_9 
REMARK    2  A    between atoms: N_10  and  N_11 
REMARK       I    between atoms: N_11  and  C_12 
REMARK    3  A    between atoms: C_12  and  C_13 
REMARK    4  A    between atoms: C_13  and  N_14 
REMARK    5  A    between atoms: N_14  and  C_15 
ROOT
HETATM    1  N   UNL     1      43.066 -12.174   6.805  1.00  0.00    -0.246 N 
HETATM    2  C   UNL     1      43.845 -11.284   7.550  1.00  0.00     0.255 C 
HETATM    3  O   UNL     1      44.962 -11.523   8.004  1.00  0.00    -0.270 OA
HETATM    4  H   UNL     1      42.351 -11.777   6.202  1.00  0.00     0.192 HD
ENDROOT
BRANCH   1   5
HETATM    5  N   UNL     1      43.492 -13.419   6.399  1.00  0.00    -0.184 NA
HETATM    6  C   UNL     1      42.681 -14.415   6.582  1.00  0.00     0.152 C 
BRANCH   6   7
HETATM    7  C   UNL     1      43.097 -15.758   6.233  1.00  0.00     0.011 A 
HETATM    8  C   UNL     1      43.201 -16.308   4.914  1.00  0.00     0.004 A 
HETATM    9  C   UNL     1      42.974 -15.802   3.616  1.00  0.00     0.014 A 
HETATM   10  C   UNL     1      43.623 -17.633   5.044  1.00  0.00     0.043 A 
HETATM   11  C   UNL     1      43.175 -16.630   2.506  1.00  0.00     0.001 A 
HETATM   12  C   UNL     1      43.597 -17.947   2.671  1.00  0.00     0.002 A 
HETATM   13  C   UNL     1      43.828 -18.474   3.945  1.00  0.00     0.030 A 
HETATM   14  N   UNL     1      43.769 -17.880   6.390  1.00  0.00    -0.364 N 
HETATM   15  H   UNL     1      44.061 -18.765   6.780  1.00  0.00     0.165 HD
HETATM   16  C   UNL     1      43.458 -16.762   7.113  1.00  0.00     0.102 A 
ENDBRANCH   6   7
ENDBRANCH   1   5
BRANCH   2  17
HETATM   17  C   UNL     1      43.169  -9.924   7.737  1.00  0.00     0.224 C 
BRANCH  17  18
HETATM   18  N   UNL     1      42.256  -9.948   8.882  1.00  0.00    -0.381 N 
HETATM   19  H   UNL     1      41.272  -9.833   8.656  1.00  0.00     0.160 HD
BRANCH  18  20
HETATM   20  C   UNL     1      42.630  -9.417  10.113  1.00  0.00     0.028 A 
HETATM   21  C   UNL     1      42.691  -8.020  10.248  1.00  0.00     0.032 A 
HETATM   22  C   UNL     1      42.978  -7.419  11.477  1.00  0.00     0.044 A 
HETATM   23  C   UNL     1      43.182  -8.215  12.593  1.00  0.00     0.116 A 
HETATM   24  F   UNL     1      43.447  -7.645  13.776  1.00  0.00    -0.206 F 
HETATM   25  C   UNL     1      43.099  -9.596  12.501  1.00  0.00     0.044 A 
HETATM   26  C   UNL     1      42.814 -10.191  11.267  1.00  0.00     0.032 A 
ENDBRANCH  18  20
ENDBRANCH  17  18
ENDBRANCH   2  17
TORSDOF 5
ENDMDL
MODEL 3
REMARK VINA RESULT:      -7.8      1.744      2.095
REMARK  5 active torsions:
REMARK  status: ('A' for Active; 'I' for Inactive)
REMARK    1  A    between atoms: C_8  and  C_9 
REMARK    2  A    between atoms: N_10  and  N_11 
REMARK       I    between atoms: N_11  and  C_12 
REMARK    3  A    between atoms: C_12  and  C_13 
REMARK    4  A    between atoms: C_13  and  N_14 
REMARK    5  A    between atoms: N_14  and  C_15 
ROOT
HETATM    1  N   UNL     1      40.340 -14.283   2.719  1.00  0.00    -0.246 N 
HETATM    2  C   UNL     1      39.779 -13.154   3.321  1.00  0.00     0.255 C 
HETATM    3  O   UNL     1      39.709 -12.953   4.532  1.00  0.00    -0.270 OA
HETATM    4  H   UNL     1      40.656 -14.191   1.757  1.00  0.00     0.192 HD
ENDROOT
BRANCH   1   5
HETATM    5  N   UNL     1      40.977 -15.290   3.409  1.00  0.00    -0.184 NA
HETATM    6  C   UNL     1      42.271 -15.344   3.324  1.00  0.00     0.152 C 
BRANCH   6   7
HETATM    7  C   UNL     1      42.993 -16.416   3.978  1.00  0.00     0.011 A 
HETATM    8  C   UNL     1      43.193 -17.744   3.478  1.00  0.00     0.004 A 
HETATM    9  C   UNL     1      42.812 -18.420   2.298  1.00  0.00     0.014 A 
HETATM   10  C   UNL     1      43.930 -18.446   4.434  1.00  0.00     0.043 A 
HETATM   11  C   UNL     1      43.179 -19.759   2.118  1.00  0.00     0.001 A 
HETATM   12  C   UNL     1      43.915 -20.428   3.092  1.00  0.00     0.002 A 
HETATM   13  C   UNL     1      44.304 -19.784   4.271  1.00  0.00     0.030 A 
HETATM   14  N   UNL     1      44.170 -17.579   5.475  1.00  0.00    -0.364 N 
HETATM   15  H   UNL     1      44.680 -17.819   6.314  1.00  0.00     0.165 HD
HETATM   16  C   UNL     1      43.614 -16.357   5.211  1.00  0.00     0.102 A 
ENDBRANCH   6   7
ENDBRANCH   1   5
BRANCH   2  17
HETATM   17  C   UNL     1      39.262 -12.137   2.301  1.00  0.00     0.224 C 
BRANCH  17  18
HETATM   18  N   UNL     1      38.724 -12.813   1.117  1.00  0.00    -0.381 N 
HETATM   19  H   UNL     1      38.286 -13.713   1.290  1.00  0.00     0.160 HD
BRANCH  18  20
HETATM   20  C   UNL     1      39.353 -12.707  -0.120  1.00  0.00     0.028 A 
HETATM   21  C   UNL     1      40.072 -11.535  -0.407  1.00  0.00     0.032 A 
HETATM   22  C   UNL     1      40.796 -11.397  -1.594  1.00  0.00     0.044 A 
HETATM   23  C   UNL     1      40.826 -12.446  -2.500  1.00  0.00     0.116 A 
HETATM   24  F   UNL     1      41.526 -12.323  -3.635  1.00  0.00    -0.206 F 
HETATM   25  C   UNL     1      40.152 -13.628  -2.234  1.00  0.00     0.044 A 
HETATM   26  C   UNL     1      39.428 -13.759  -1.044  1.00  0.00     0.032 A 
ENDBRANCH  18  20
ENDBRANCH  17  18
ENDBRANCH   2  17
TORSDOF 5
ENDMDL
MODEL 4
REMARK VINA RESULT:      -7.7      7.335      9.712
REMARK  5 active torsions:
REMARK  status: ('A' for Active; 'I' for Inactive)
REMARK    1  A    between atoms: C_8  and  C_9 
REMARK    2  A    between atoms: N_10  and  N_11 
REMARK       I    between atoms: N_11  and  C_12 
REMARK    3  A    between atoms: C_12  and  C_13 
REMARK    4  A    between atoms: C_13  and  N_14 
REMARK    5  A    between atoms: N_14  and  C_15 
ROOT
HETATM    1  N   UNL     1      43.475 -12.515   7.130  1.00  0.00    -0.246 N 
HETATM    2  C   UNL     1      44.544 -11.615   7.086  1.00  0.00     0.255 C 
HETATM    3  O   UNL     1      45.229 -11.372   6.096  1.00  0.00    -0.270 OA
HETATM    4  H   UNL     1      42.782 -12.382   7.862  1.00  0.00     0.192 HD
ENDROOT
BRANCH   1   5
HETATM    5  N   UNL     1      42.987 -13.187   6.032  1.00  0.00    -0.184 NA
HETATM    6  C   UNL     1      43.263 -14.451   5.935  1.00  0.00     0.152 C 
BRANCH   6   7
HETATM    7  C   UNL     1      42.830 -15.199   4.772  1.00  0.00     0.011 A 
HETATM    8  C   UNL     1      43.298 -16.488   4.359  1.00  0.00     0.004 A 
HETATM    9  C   UNL     1      44.238 -17.406   4.875  1.00  0.00     0.014 A 
HETATM   10  C   UNL     1      42.623 -16.822   3.183  1.00  0.00     0.043 A 
HETATM   11  C   UNL     1      44.467 -18.613   4.204  1.00  0.00     0.001 A 
HETATM   12  C   UNL     1      43.776 -18.915   3.033  1.00  0.00     0.002 A 
HETATM   13  C   UNL     1      42.840 -18.024   2.499  1.00  0.00     0.030 A 
HETATM   14  N   UNL     1      41.777 -15.776   2.892  1.00  0.00    -0.364 N 
HETATM   15  H   UNL     1      41.166 -15.742   2.088  1.00  0.00     0.165 HD
HETATM   16  C   UNL     1      41.891 -14.797   3.840  1.00  0.00     0.102 A 
ENDBRANCH   6   7
ENDBRANCH   1   5
BRANCH   2  17
HETATM   17  C   UNL     1      44.778 -10.914   8.425  1.00  0.00     0.224 C 
BRANCH  17  18
HETATM   18  N   UNL     1      43.533 -10.825   9.193  1.00  0.00    -0.381 N 
HETATM   19  H   UNL     1      42.705 -11.180   8.724  1.00  0.00     0.160 HD
BRANCH  18  20
HETATM   20  C   UNL     1      43.293  -9.759  10.055  1.00  0.00     0.028 A 
HETATM   21  C   UNL     1      42.270  -8.853   9.731  1.00  0.00     0.032 A 
HETATM   22  C   UNL     1      41.920  -7.810  10.592  1.00  0.00     0.044 A 
HETATM   23  C   UNL     1      42.579  -7.678  11.804  1.00  0.00     0.116 A 
HETATM   24  F   UNL     1      42.241  -6.686  12.639  1.00  0.00    -0.206 F 
HETATM   25  C   UNL     1      43.574  -8.572  12.169  1.00  0.00     0.044 A 
HETATM   26  C   UNL     1      43.921  -9.613  11.301  1.00  0.00     0.032 A 
ENDBRANCH  18  20
ENDBRANCH  17  18
ENDBRANCH   2  17
TORSDOF 5
ENDMDL
MODEL 5
REMARK VINA RESULT:      -7.7      5.800      8.109
REMARK  5 active torsions:
REMARK  status: ('A' for Active; 'I' for Inactive)
REMARK    1  A    between atoms: C_8  and  C_9 
REMARK    2  A    between atoms: N_10  and  N_11 
REMARK       I    between atoms: N_11  and  C_12 
REMARK    3  A    between atoms: C_12  and  C_13 
REMARK    4  A    between atoms: C_13  and  N_14 
REMARK    5  A    between atoms: N_14  and  C_15 
ROOT
HETATM    1  N   UNL     1      42.934 -13.316   4.500  1.00  0.00    -0.246 N 
HETATM    2  C   UNL     1      43.381 -12.076   4.035  1.00  0.00     0.255 C 
HETATM    3  O   UNL     1      43.920 -11.874   2.950  1.00  0.00    -0.270 OA
HETATM    4  H   UNL     1      42.216 -13.315   5.219  1.00  0.00     0.192 HD
ENDROOT
BRANCH   1   5
HETATM    5  N   UNL     1      42.958 -14.473   3.755  1.00  0.00    -0.184 NA
HETATM    6  C   UNL     1      43.222 -15.580   4.379  1.00  0.00     0.152 C 
BRANCH   6   7
HETATM    7  C   UNL     1      43.322 -16.821   3.639  1.00  0.00     0.011 A 
HETATM    8  C   UNL     1      43.549 -18.127   4.182  1.00  0.00     0.004 A 
HETATM    9  C   UNL     1      43.729 -18.633   5.487  1.00  0.00     0.014 A 
HETATM   10  C   UNL     1      43.586 -19.025   3.113  1.00  0.00     0.043 A 
HETATM   11  C   UNL     1      43.937 -20.004   5.676  1.00  0.00     0.001 A 
HETATM   12  C   UNL     1      43.968 -20.872   4.588  1.00  0.00     0.002 A 
HETATM   13  C   UNL     1      43.794 -20.399   3.284  1.00  0.00     0.030 A 
HETATM   14  N   UNL     1      43.390 -18.294   1.964  1.00  0.00    -0.364 N 
HETATM   15  H   UNL     1      43.374 -18.685   1.033  1.00  0.00     0.165 HD
HETATM   16  C   UNL     1      43.228 -16.970   2.268  1.00  0.00     0.102 A 
ENDBRANCH   6   7
ENDBRANCH   1   5
BRANCH   2  17
HETATM   17  C   UNL     1      43.107 -10.942   5.026  1.00  0.00     0.224 C 
BRANCH  17  18
HETATM   18  N   UNL     1      42.908 -11.467   6.379  1.00  0.00    -0.381 N 
HETATM   19  H   UNL     1      41.955 -11.737   6.606  1.00  0.00     0.160 HD
BRANCH  18  20
HETATM   20  C   UNL     1      43.640 -10.978   7.457  1.00  0.00     0.028 A 
HETATM   21  C   UNL     1      45.038 -11.109   7.430  1.00  0.00     0.032 A 
HETATM   22  C   UNL     1      45.840 -10.566   8.438  1.00  0.00     0.044 A 
HETATM   23  C   UNL     1      45.247  -9.861   9.474  1.00  0.00     0.116 A 
HETATM   24  F   UNL     1      46.011  -9.330  10.437  1.00  0.00    -0.206 F 
HETATM   25  C   UNL     1      43.872  -9.688   9.515  1.00  0.00     0.044 A 
HETATM   26  C   UNL     1      43.075 -10.236   8.504  1.00  0.00     0.032 A 
ENDBRANCH  18  20
ENDBRANCH  17  18
ENDBRANCH   2  17
TORSDOF 5
ENDMDL
MODEL 6
REMARK VINA RESULT:      -7.6      5.814      8.211
REMARK  5 active torsions:
REMARK  status: ('A' for Active; 'I' for Inactive)
REMARK    1  A    between atoms: C_8  and  C_9 
REMARK    2  A    between atoms: N_10  and  N_11 
REMARK       I    between atoms: N_11  and  C_12 
REMARK    3  A    between atoms: C_12  and  C_13 
REMARK    4  A    between atoms: C_13  and  N_14 
REMARK    5  A    between atoms: N_14  and  C_15 
ROOT
HETATM    1  N   UNL     1      42.001 -11.343   4.671  1.00  0.00    -0.246 N 
HETATM    2  C   UNL     1      41.058 -11.291   5.701  1.00  0.00     0.255 C 
HETATM    3  O   UNL     1      40.140 -12.091   5.867  1.00  0.00    -0.270 OA
HETATM    4  H   UNL     1      42.887 -10.869   4.824  1.00  0.00     0.192 HD
ENDROOT
BRANCH   1   5
HETATM    5  N   UNL     1      42.080 -12.361   3.748  1.00  0.00    -0.184 NA
HETATM    6  C   UNL     1      42.661 -13.460   4.120  1.00  0.00     0.152 C 
BRANCH   6   7
HETATM    7  C   UNL     1      42.829 -14.544   3.174  1.00  0.00     0.011 A 
HETATM    8  C   UNL     1      43.166 -15.904   3.480  1.00  0.00     0.004 A 
HETATM    9  C   UNL     1      43.420 -16.610   4.674  1.00  0.00     0.014 A 
HETATM   10  C   UNL     1      43.237 -16.599   2.271  1.00  0.00     0.043 A 
HETATM   11  C   UNL     1      43.732 -17.974   4.619  1.00  0.00     0.001 A 
HETATM   12  C   UNL     1      43.795 -18.637   3.397  1.00  0.00     0.002 A 
HETATM   13  C   UNL     1      43.549 -17.961   2.197  1.00  0.00     0.030 A 
HETATM   14  N   UNL     1      42.955 -15.699   1.269  1.00  0.00    -0.364 N 
HETATM   15  H   UNL     1      42.941 -15.925   0.284  1.00  0.00     0.165 HD
HETATM   16  C   UNL     1      42.707 -14.463   1.800  1.00  0.00     0.102 A 
ENDBRANCH   6   7
ENDBRANCH   1   5
BRANCH   2  17
HETATM   17  C   UNL     1      41.294 -10.120   6.657  1.00  0.00     0.224 C 
BRANCH  17  18
HETATM   18  N   UNL     1      42.173 -10.515   7.760  1.00  0.00    -0.381 N 
HETATM   19  H   UNL     1      41.758 -10.468   8.687  1.00  0.00     0.160 HD
BRANCH  18  20
HETATM   20  C   UNL     1      43.538 -10.243   7.727  1.00  0.00     0.028 A 
HETATM   21  C   UNL     1      43.998  -9.055   8.318  1.00  0.00     0.032 A 
HETATM   22  C   UNL     1      45.362  -8.760   8.393  1.00  0.00     0.044 A 
HETATM   23  C   UNL     1      46.284  -9.669   7.898  1.00  0.00     0.116 A 
HETATM   24  F   UNL     1      47.593  -9.396   7.977  1.00  0.00    -0.206 F 
HETATM   25  C   UNL     1      45.865 -10.865   7.335  1.00  0.00     0.044 A 
HETATM   26  C   UNL     1      44.498 -11.153   7.260  1.00  0.00     0.032 A 
ENDBRANCH  18  20
ENDBRANCH  17  18
ENDBRANCH   2  17
TORSDOF 5
ENDMDL
MODEL 7
REMARK VINA RESULT:      -7.4      5.629      8.975
REMARK  5 active torsions:
REMARK  status: ('A' for Active; 'I' for Inactive)
REMARK    1  A    between atoms: C_8  and  C_9 
REMARK    2  A    between atoms: N_10  and  N_11 
REMARK       I    between atoms: N_11  and  C_12 
REMARK    3  A    between atoms: C_12  and  C_13 
REMARK    4  A    between atoms: C_13  and  N_14 
REMARK    5  A    between atoms: N_14  and  C_15 
ROOT
HETATM    1  N   UNL     1      42.469 -14.729   6.395  1.00  0.00    -0.246 N 
HETATM    2  C   UNL     1      42.874 -15.902   7.038  1.00  0.00     0.255 C 
HETATM    3  O   UNL     1      43.413 -15.960   8.141  1.00  0.00    -0.270 OA
HETATM    4  H   UNL     1      41.745 -14.811   5.686  1.00  0.00     0.192 HD
ENDROOT
BRANCH   1   5
HETATM    5  N   UNL     1      42.541 -13.475   6.959  1.00  0.00    -0.184 NA
HETATM    6  C   UNL     1      42.472 -12.456   6.159  1.00  0.00     0.152 C 
BRANCH   6   7
HETATM    7  C   UNL     1      42.604 -11.114   6.686  1.00  0.00     0.011 A 
HETATM    8  C   UNL     1      43.741 -10.567   7.365  1.00  0.00     0.004 A 
HETATM    9  C   UNL     1      45.010 -11.071   7.723  1.00  0.00     0.014 A 
HETATM   10  C   UNL     1      43.430  -9.250   7.710  1.00  0.00     0.043 A 
HETATM   11  C   UNL     1      45.915 -10.248   8.404  1.00  0.00     0.001 A 
HETATM   12  C   UNL     1      45.573  -8.939   8.732  1.00  0.00     0.002 A 
HETATM   13  C   UNL     1      44.322  -8.414   8.392  1.00  0.00     0.030 A 
HETATM   14  N   UNL     1      42.154  -9.005   7.258  1.00  0.00    -0.364 N 
HETATM   15  H   UNL     1      41.665  -8.128   7.375  1.00  0.00     0.165 HD
HETATM   16  C   UNL     1      41.649 -10.115   6.641  1.00  0.00     0.102 A 
ENDBRANCH   6   7
ENDBRANCH   1   5
BRANCH   2  17
HETATM   17  C   UNL     1      42.550 -17.160   6.229  1.00  0.00     0.224 C 
BRANCH  17  18
HETATM   18  N   UNL     1      43.776 -17.799   5.744  1.00  0.00    -0.381 N 
HETATM   19  H   UNL     1      44.637 -17.300   5.948  1.00  0.00     0.160 HD
BRANCH  18  20
HETATM   20  C   UNL     1      43.792 -18.512   4.549  1.00  0.00     0.028 A 
HETATM   21  C   UNL     1      44.056 -19.891   4.596  1.00  0.00     0.032 A 
HETATM   22  C   UNL     1      44.006 -20.682   3.445  1.00  0.00     0.044 A 
HETATM   23  C   UNL     1      43.665 -20.100   2.233  1.00  0.00     0.116 A 
HETATM   24  F   UNL     1      43.604 -20.856   1.129  1.00  0.00    -0.206 F 
HETATM   25  C   UNL     1      43.369 -18.748   2.157  1.00  0.00     0.044 A 
HETATM   26  C   UNL     1      43.423 -17.961   3.312  1.00  0.00     0.032 A 
ENDBRANCH  18  20
ENDBRANCH  17  18
ENDBRANCH   2  17
TORSDOF 5
ENDMDL
MODEL 8
REMARK VINA RESULT:      -7.3      8.246     10.729
REMARK  5 active torsions:
REMARK  status: ('A' for Active; 'I' for Inactive)
REMARK    1  A    between atoms: C_8  and  C_9 
REMARK    2  A    between atoms: N_10  and  N_11 
REMARK       I    between atoms: N_11  and  C_12 
REMARK    3  A    between atoms: C_12  and  C_13 
REMARK    4  A    between atoms: C_13  and  N_14 
REMARK    5  A    between atoms: N_14  and  C_15 
ROOT
HETATM    1  N   UNL     1      43.242 -10.459   7.190  1.00  0.00    -0.246 N 
HETATM    2  C   UNL     1      44.124 -10.552   8.270  1.00  0.00     0.255 C 
HETATM    3  O   UNL     1      45.096 -11.302   8.333  1.00  0.00    -0.270 OA
HETATM    4  H   UNL     1      42.712  -9.597   7.093  1.00  0.00     0.192 HD
ENDROOT
BRANCH   1   5
HETATM    5  N   UNL     1      43.402 -11.138   6.003  1.00  0.00    -0.184 NA
HETATM    6  C   UNL     1      42.753 -12.253   5.862  1.00  0.00     0.152 C 
BRANCH   6   7
HETATM    7  C   UNL     1      42.928 -13.043   4.661  1.00  0.00     0.011 A 
HETATM    8  C   UNL     1      42.863 -14.471   4.558  1.00  0.00     0.004 A 
HETATM    9  C   UNL     1      42.624 -15.515   5.477  1.00  0.00     0.014 A 
HETATM   10  C   UNL     1      43.103 -14.806   3.223  1.00  0.00     0.043 A 
HETATM   11  C   UNL     1      42.633 -16.843   5.035  1.00  0.00     0.001 A 
HETATM   12  C   UNL     1      42.875 -17.142   3.697  1.00  0.00     0.002 A 
HETATM   13  C   UNL     1      43.116 -16.128   2.764  1.00  0.00     0.030 A 
HETATM   14  N   UNL     1      43.306 -13.628   2.542  1.00  0.00    -0.364 N 
HETATM   15  H   UNL     1      43.508 -13.567   1.553  1.00  0.00     0.165 HD
HETATM   16  C   UNL     1      43.201 -12.564   3.394  1.00  0.00     0.102 A 
ENDBRANCH   6   7
ENDBRANCH   1   5
BRANCH   2  17
HETATM   17  C   UNL     1      43.775  -9.583   9.402  1.00  0.00     0.224 C 
BRANCH  17  18
HETATM   18  N   UNL     1      42.552 -10.003  10.090  1.00  0.00    -0.381 N 
HETATM   19  H   UNL     1      41.738 -10.129   9.495  1.00  0.00     0.160 HD
BRANCH  18  20
HETATM   20  C   UNL     1      42.261  -9.559  11.377  1.00  0.00     0.028 A 
HETATM   21  C   UNL     1      41.085 -10.018  11.993  1.00  0.00     0.032 A 
HETATM   22  C   UNL     1      40.774  -9.679  13.312  1.00  0.00     0.044 A 
HETATM   23  C   UNL     1      41.654  -8.892  14.039  1.00  0.00     0.116 A 
HETATM   24  F   UNL     1      41.367  -8.573  15.308  1.00  0.00    -0.206 F 
HETATM   25  C   UNL     1      42.838  -8.447  13.471  1.00  0.00     0.044 A 
HETATM   26  C   UNL     1      43.142  -8.788  12.149  1.00  0.00     0.032 A 
ENDBRANCH  18  20
ENDBRANCH  17  18
ENDBRANCH   2  17
TORSDOF 5
ENDMDL
MODEL 9
REMARK VINA RESULT:      -7.2      6.416      9.234
REMARK  5 active torsions:
REMARK  status: ('A' for Active; 'I' for Inactive)
REMARK    1  A    between atoms: C_8  and  C_9 
REMARK    2  A    between atoms: N_10  and  N_11 
REMARK       I    between atoms: N_11  and  C_12 
REMARK    3  A    between atoms: C_12  and  C_13 
REMARK    4  A    between atoms: C_13  and  N_14 
REMARK    5  A    between atoms: N_14  and  C_15 
ROOT
HETATM    1  N   UNL     1      41.760 -12.551   5.577  1.00  0.00    -0.246 N 
HETATM    2  C   UNL     1      40.865 -13.622   5.651  1.00  0.00     0.255 C 
HETATM    3  O   UNL     1      39.926 -13.712   6.439  1.00  0.00    -0.270 OA
HETATM    4  H   UNL     1      42.253 -12.415   4.699  1.00  0.00     0.192 HD
ENDROOT
BRANCH   1   5
HETATM    5  N   UNL     1      41.651 -11.401   6.325  1.00  0.00    -0.184 NA
HETATM    6  C   UNL     1      42.751 -10.854   6.742  1.00  0.00     0.152 C 
BRANCH   6   7
HETATM    7  C   UNL     1      42.698  -9.677   7.586  1.00  0.00     0.011 A 
HETATM    8  C   UNL     1      43.136  -9.578   8.947  1.00  0.00     0.004 A 
HETATM    9  C   UNL     1      43.720 -10.480   9.861  1.00  0.00     0.014 A 
HETATM   10  C   UNL     1      42.888  -8.271   9.372  1.00  0.00     0.043 A 
HETATM   11  C   UNL     1      44.034 -10.049  11.155  1.00  0.00     0.001 A 
HETATM   12  C   UNL     1      43.773  -8.739  11.548  1.00  0.00     0.002 A 
HETATM   13  C   UNL     1      43.193  -7.824  10.663  1.00  0.00     0.030 A 
HETATM   14  N   UNL     1      42.321  -7.602   8.313  1.00  0.00    -0.364 N 
HETATM   15  H   UNL     1      42.030  -6.634   8.337  1.00  0.00     0.165 HD
HETATM   16  C   UNL     1      42.204  -8.435   7.234  1.00  0.00     0.102 A 
ENDBRANCH   6   7
ENDBRANCH   1   5
BRANCH   2  17
HETATM   17  C   UNL     1      41.152 -14.703   4.608  1.00  0.00     0.224 C 
BRANCH  17  18
HETATM   18  N   UNL     1      42.544 -15.154   4.691  1.00  0.00    -0.381 N 
HETATM   19  H   UNL     1      43.244 -14.422   4.613  1.00  0.00     0.160 HD
BRANCH  18  20
HETATM   20  C   UNL     1      42.936 -16.383   4.170  1.00  0.00     0.028 A 
HETATM   21  C   UNL     1      42.521 -16.722   2.871  1.00  0.00     0.032 A 
HETATM   22  C   UNL     1      42.947 -17.902   2.256  1.00  0.00     0.044 A 
HETATM   23  C   UNL     1      43.816 -18.746   2.929  1.00  0.00     0.116 A 
HETATM   24  F   UNL     1      44.236 -19.874   2.340  1.00  0.00    -0.206 F 
HETATM   25  C   UNL     1      44.268 -18.427   4.201  1.00  0.00     0.044 A 
HETATM   26  C   UNL     1      43.836 -17.246   4.812  1.00  0.00     0.032 A 
ENDBRANCH  18  20
ENDBRANCH  17  18
ENDBRANCH   2  17
TORSDOF 5
ENDMDL
MODEL 10
REMARK VINA RESULT:      -7.1      6.927      9.211
REMARK  5 active torsions:
REMARK  status: ('A' for Active; 'I' for Inactive)
REMARK    1  A    between atoms: C_8  and  C_9 
REMARK    2  A    between atoms: N_10  and  N_11 
REMARK       I    between atoms: N_11  and  C_12 
REMARK    3  A    between atoms: C_12  and  C_13 
REMARK    4  A    between atoms: C_13  and  N_14 
REMARK    5  A    between atoms: N_14  and  C_15 
ROOT
HETATM    1  N   UNL     1      42.837 -11.018   4.758  1.00  0.00    -0.246 N 
HETATM    2  C   UNL     1      41.774 -10.608   5.568  1.00  0.00     0.255 C 
HETATM    3  O   UNL     1      40.615 -11.006   5.477  1.00  0.00    -0.270 OA
HETATM    4  H   UNL     1      43.777 -10.906   5.128  1.00  0.00     0.192 HD
ENDROOT
BRANCH   1   5
HETATM    5  N   UNL     1      42.742 -12.001   3.798  1.00  0.00    -0.184 NA
HETATM    6  C   UNL     1      42.950 -13.224   4.176  1.00  0.00     0.152 C 
BRANCH   6   7
HETATM    7  C   UNL     1      42.926 -14.295   3.201  1.00  0.00     0.011 A 
HETATM    8  C   UNL     1      43.210 -15.679   3.440  1.00  0.00     0.004 A 
HETATM    9  C   UNL     1      43.569 -16.428   4.582  1.00  0.00     0.014 A 
HETATM   10  C   UNL     1      43.080 -16.350   2.222  1.00  0.00     0.043 A 
HETATM   11  C   UNL     1      43.783 -17.806   4.467  1.00  0.00     0.001 A 
HETATM   12  C   UNL     1      43.645 -18.444   3.237  1.00  0.00     0.002 A 
HETATM   13  C   UNL     1      43.291 -17.728   2.090  1.00  0.00     0.030 A 
HETATM   14  N   UNL     1      42.731 -15.412   1.279  1.00  0.00    -0.364 N 
HETATM   15  H   UNL     1      42.575 -15.614   0.301  1.00  0.00     0.165 HD
HETATM   16  C   UNL     1      42.633 -14.175   1.855  1.00  0.00     0.102 A 
ENDBRANCH   6   7
ENDBRANCH   1   5
BRANCH   2  17
HETATM   17  C   UNL     1      42.202  -9.600   6.636  1.00  0.00     0.224 C 
BRANCH  17  18
HETATM   18  N   UNL     1      41.846 -10.076   7.975  1.00  0.00    -0.381 N 
HETATM   19  H   UNL     1      40.872 -10.337   8.100  1.00  0.00     0.160 HD
BRANCH  18  20
HETATM   20  C   UNL     1      42.450  -9.547   9.112  1.00  0.00     0.028 A 
HETATM   21  C   UNL     1      41.639  -8.910  10.066  1.00  0.00     0.032 A 
HETATM   22  C   UNL     1      42.168  -8.431  11.268  1.00  0.00     0.044 A 
HETATM   23  C   UNL     1      43.516  -8.608  11.538  1.00  0.00     0.116 A 
HETATM   24  F   UNL     1      44.025  -8.161  12.693  1.00  0.00    -0.206 F 
HETATM   25  C   UNL     1      44.338  -9.260  10.631  1.00  0.00     0.044 A 
HETATM   26  C   UNL     1      43.804  -9.735   9.429  1.00  0.00     0.032 A 
ENDBRANCH  18  20
ENDBRANCH  17  18
ENDBRANCH   2  17
TORSDOF 5
ENDMDL
