MODEL 1
REMARK VINA RESULT:      -7.9      0.000      0.000
REMARK  8 active torsions:
REMARK  status: ('A' for Active; 'I' for Inactive)
REMARK    1  A    between atoms: C_9  and  S_10 
REMARK    2  A    between atoms: S_10  and  C_11 
REMARK    3  A    between atoms: C_11  and  C_12 
REMARK       I    between atoms: C_12  and  N_13 
REMARK    4  A    between atoms: N_13  and  C_14 
REMARK    5  A    between atoms: C_15  and  O_16 
REMARK    6  A    between atoms: C_19  and  O_20 
REMARK    7  A    between atoms: N_25  and  C_26 
REMARK    8  A    between atoms: C_33  and  N_34 
ROOT
HETATM    1  C   UNL     1      43.251 -18.729   2.310  1.00  0.00     0.073 C 
HETATM    2  C   UNL     1      43.500 -17.950   3.551  1.00  0.00     0.068 A 
HETATM    3  N   UNL     1      44.199 -18.514   4.543  1.00  0.00    -0.177 NA
HETATM    4  N   UNL     1      44.257 -17.567   5.490  1.00  0.00    -0.260 N 
HETATM    5  H   UNL     1      44.751 -17.767   6.356  1.00  0.00     0.191 HD
HETATM    6  C   UNL     1      43.616 -16.417   5.134  1.00  0.00     0.162 A 
HETATM    7  C   UNL     1      43.095 -16.618   3.873  1.00  0.00     0.081 A 
HETATM    8  N   UNL     1      43.515 -15.314   5.871  1.00  0.00    -0.204 NA
HETATM    9  C   UNL     1      42.824 -14.336   5.245  1.00  0.00     0.177 A 
HETATM   10  N   UNL     1      42.289 -14.441   3.994  1.00  0.00    -0.276 N 
HETATM   11  C   UNL     1      42.366 -15.588   3.256  1.00  0.00     0.124 A 
ENDROOT
BRANCH   9  12
HETATM   12  S   UNL     1      42.741 -12.810   6.192  1.00  0.00    -0.082 SA
BRANCH  12  13
HETATM   13  C   UNL     1      44.520 -12.536   6.491  1.00  0.00     0.185 C 
BRANCH  13  14
HETATM   14  C   UNL     1      44.698 -11.423   7.503  1.00  0.00     0.232 C 
HETATM   15  N   UNL     1      43.684 -11.376   8.443  1.00  0.00    -0.324 N 
HETATM   16  H   UNL     1      43.285 -12.263   8.724  1.00  0.00     0.169 HD
HETATM   17  O   UNL     1      45.701 -10.714   7.470  1.00  0.00    -0.272 OA
BRANCH  15  18
HETATM   18  C   UNL     1      43.423 -10.276   9.293  1.00  0.00     0.068 A 
HETATM   19  C   UNL     1      42.462  -9.282   9.010  1.00  0.00     0.097 A 
HETATM   20  C   UNL     1      42.281  -8.223   9.914  1.00  0.00     0.075 A 
HETATM   21  C   UNL     1      43.012  -8.169  11.103  1.00  0.00     0.070 A 
HETATM   22  C   UNL     1      43.912  -9.191  11.402  1.00  0.00     0.039 A 
HETATM   23  C   UNL     1      44.111 -10.244  10.510  1.00  0.00     0.035 A 
BRANCH  19  24
HETATM   24  O   UNL     1      41.676  -9.481   7.902  1.00  0.00    -0.354 OA
HETATM   25  C   UNL     1      41.895  -8.648   6.770  1.00  0.00     0.210 C 
ENDBRANCH  19  24
BRANCH  21  26
HETATM   26  O   UNL     1      42.921  -7.199  12.063  1.00  0.00    -0.356 OA
HETATM   27  C   UNL     1      43.116  -7.599  13.414  1.00  0.00     0.210 C 
ENDBRANCH  21  26
ENDBRANCH  15  18
ENDBRANCH  13  14
ENDBRANCH  12  13
ENDBRANCH   9  12
BRANCH  10  28
HETATM   28  C   UNL     1      41.662 -13.294   3.392  1.00  0.00     0.043 A 
HETATM   29  C   UNL     1      42.449 -12.431   2.622  1.00  0.00     0.031 A 
HETATM   30  C   UNL     1      41.837 -11.354   1.980  1.00  0.00     0.021 A 
HETATM   31  C   UNL     1      40.460 -11.159   2.113  1.00  0.00     0.011 A 
HETATM   32 BR   UNL     1      39.638  -9.701   1.236  1.00  0.00    -0.051 Br
HETATM   33  C   UNL     1      39.683 -12.032   2.880  1.00  0.00     0.021 A 
HETATM   34  C   UNL     1      40.282 -13.118   3.524  1.00  0.00     0.031 A 
ENDBRANCH  10  28
BRANCH  11  35
HETATM   35  N   UNL     1      41.784 -15.725   2.001  1.00  0.00    -0.384 N 
HETATM   36  H   UNL     1      41.065 -15.086   1.680  1.00  0.00     0.157 HD
HETATM   37  H   UNL     1      41.711 -16.656   1.603  1.00  0.00     0.157 HD
ENDBRANCH  11  35
TORSDOF 8
ENDMDL
MODEL 2
REMARK VINA RESULT:      -7.8      1.108      1.993
REMARK  8 active torsions:
REMARK  status: ('A' for Active; 'I' for Inactive)
REMARK    1  A    between atoms: C_9  and  S_10 
REMARK    2  A    between atoms: S_10  and  C_11 
REMARK    3  A    between atoms: C_11  and  C_12 
REMARK       I    between atoms: C_12  and  N_13 
REMARK    4  A    between atoms: N_13  and  C_14 
REMARK    5  A    between atoms: C_15  and  O_16 
REMARK    6  A    between atoms: C_19  and  O_20 
REMARK    7  A    between atoms: N_25  and  C_26 
REMARK    8  A    between atoms: C_33  and  N_34 
ROOT
HETATM    1  C   UNL     1      43.200 -18.922   2.277  1.00  0.00     0.073 C 
HETATM    2  C   UNL     1      43.509 -18.111   3.484  1.00  0.00     0.068 A 
HETATM    3  N   UNL     1      44.308 -18.627   4.426  1.00  0.00    -0.177 NA
HETATM    4  N   UNL     1      44.397 -17.662   5.352  1.00  0.00    -0.260 N 
HETATM    5  H   UNL     1      44.965 -17.825   6.179  1.00  0.00     0.191 HD
HETATM    6  C   UNL     1      43.680 -16.547   5.030  1.00  0.00     0.162 A 
HETATM    7  C   UNL     1      43.073 -16.792   3.817  1.00  0.00     0.081 A 
HETATM    8  N   UNL     1      43.589 -15.436   5.757  1.00  0.00    -0.204 NA
HETATM    9  C   UNL     1      42.808 -14.500   5.173  1.00  0.00     0.177 A 
HETATM   10  N   UNL     1      42.184 -14.650   3.969  1.00  0.00    -0.276 N 
HETATM   11  C   UNL     1      42.254 -15.805   3.244  1.00  0.00     0.124 A 
ENDROOT
BRANCH   9  12
HETATM   12  S   UNL     1      42.732 -12.962   6.102  1.00  0.00    -0.082 SA
BRANCH  12  13
HETATM   13  C   UNL     1      44.515 -12.674   6.367  1.00  0.00     0.185 C 
BRANCH  13  14
HETATM   14  C   UNL     1      44.703 -11.564   7.380  1.00  0.00     0.232 C 
HETATM   15  N   UNL     1      43.514 -11.137   7.946  1.00  0.00    -0.324 N 
HETATM   16  H   UNL     1      42.802 -11.842   8.087  1.00  0.00     0.169 HD
HETATM   17  O   UNL     1      45.833 -11.176   7.667  1.00  0.00    -0.272 OA
BRANCH  15  18
HETATM   18  C   UNL     1      43.351  -9.930   8.664  1.00  0.00     0.068 A 
HETATM   19  C   UNL     1      43.469  -9.835  10.067  1.00  0.00     0.097 A 
HETATM   20  C   UNL     1      43.282  -8.590  10.690  1.00  0.00     0.075 A 
HETATM   21  C   UNL     1      43.022  -7.446   9.932  1.00  0.00     0.070 A 
HETATM   22  C   UNL     1      42.973  -7.541   8.542  1.00  0.00     0.039 A 
HETATM   23  C   UNL     1      43.146  -8.771   7.908  1.00  0.00     0.035 A 
BRANCH  19  24
HETATM   24  O   UNL     1      43.874 -10.966  10.731  1.00  0.00    -0.354 OA
HETATM   25  C   UNL     1      43.522 -11.098  12.102  1.00  0.00     0.210 C 
ENDBRANCH  19  24
BRANCH  21  26
HETATM   26  O   UNL     1      42.831  -6.182  10.418  1.00  0.00    -0.356 OA
HETATM   27  C   UNL     1      41.979  -5.320   9.674  1.00  0.00     0.210 C 
ENDBRANCH  21  26
ENDBRANCH  15  18
ENDBRANCH  13  14
ENDBRANCH  12  13
ENDBRANCH   9  12
BRANCH  10  28
HETATM   28  C   UNL     1      41.462 -13.542   3.401  1.00  0.00     0.043 A 
HETATM   29  C   UNL     1      40.119 -13.372   3.749  1.00  0.00     0.031 A 
HETATM   30  C   UNL     1      39.429 -12.264   3.256  1.00  0.00     0.021 A 
HETATM   31  C   UNL     1      40.088 -11.349   2.431  1.00  0.00     0.011 A 
HETATM   32 BR   UNL     1      39.149  -9.847   1.772  1.00  0.00    -0.051 Br
HETATM   33  C   UNL     1      41.434 -11.525   2.096  1.00  0.00     0.021 A 
HETATM   34  C   UNL     1      42.138 -12.628   2.587  1.00  0.00     0.031 A 
ENDBRANCH  10  28
BRANCH  11  35
HETATM   35  N   UNL     1      41.582 -15.990   2.040  1.00  0.00    -0.384 N 
HETATM   36  H   UNL     1      41.675 -16.850   1.511  1.00  0.00     0.157 HD
HETATM   37  H   UNL     1      41.390 -15.174   1.467  1.00  0.00     0.157 HD
ENDBRANCH  11  35
TORSDOF 8
ENDMDL
MODEL 3
REMARK VINA RESULT:      -7.7      1.965      2.984
REMARK  8 active torsions:
REMARK  status: ('A' for Active; 'I' for Inactive)
REMARK    1  A    between atoms: C_9  and  S_10 
REMARK    2  A    between atoms: S_10  and  C_11 
REMARK    3  A    between atoms: C_11  and  C_12 
REMARK       I    between atoms: C_12  and  N_13 
REMARK    4  A    between atoms: N_13  and  C_14 
REMARK    5  A    between atoms: C_15  and  O_16 
REMARK    6  A    between atoms: C_19  and  O_20 
REMARK    7  A    between atoms: N_25  and  C_26 
REMARK    8  A    between atoms: C_33  and  N_34 
ROOT
HETATM    1  C   UNL     1      43.968 -19.823   2.161  1.00  0.00     0.073 C 
HETATM    2  C   UNL     1      43.828 -19.261   3.530  1.00  0.00     0.068 A 
HETATM    3  N   UNL     1      44.176 -20.014   4.580  1.00  0.00    -0.177 NA
HETATM    4  N   UNL     1      43.949 -19.228   5.643  1.00  0.00    -0.260 N 
HETATM    5  H   UNL     1      44.146 -19.589   6.572  1.00  0.00     0.191 HD
HETATM    6  C   UNL     1      43.466 -17.998   5.302  1.00  0.00     0.162 A 
HETATM    7  C   UNL     1      43.362 -17.970   3.928  1.00  0.00     0.081 A 
HETATM    8  N   UNL     1      43.156 -17.016   6.145  1.00  0.00    -0.204 NA
HETATM    9  C   UNL     1      42.708 -15.913   5.509  1.00  0.00     0.177 A 
HETATM   10  N   UNL     1      42.588 -15.790   4.155  1.00  0.00    -0.276 N 
HETATM   11  C   UNL     1      42.875 -16.813   3.297  1.00  0.00     0.124 A 
ENDROOT
BRANCH   9  12
HETATM   12  S   UNL     1      42.355 -14.546   6.624  1.00  0.00    -0.082 SA
BRANCH  12  13
HETATM   13  C   UNL     1      44.046 -13.910   6.876  1.00  0.00     0.185 C 
BRANCH  13  14
HETATM   14  C   UNL     1      44.052 -12.405   6.704  1.00  0.00     0.232 C 
HETATM   15  N   UNL     1      42.886 -11.803   7.145  1.00  0.00    -0.324 N 
HETATM   16  H   UNL     1      42.435 -12.224   7.948  1.00  0.00     0.169 HD
HETATM   17  O   UNL     1      45.051 -11.837   6.270  1.00  0.00    -0.272 OA
BRANCH  15  18
HETATM   18  C   UNL     1      42.489 -10.484   6.825  1.00  0.00     0.068 A 
HETATM   19  C   UNL     1      42.780  -9.364   7.631  1.00  0.00     0.097 A 
HETATM   20  C   UNL     1      42.335  -8.093   7.230  1.00  0.00     0.075 A 
HETATM   21  C   UNL     1      41.645  -7.928   6.026  1.00  0.00     0.070 A 
HETATM   22  C   UNL     1      41.420  -9.033   5.207  1.00  0.00     0.039 A 
HETATM   23  C   UNL     1      41.847 -10.302   5.595  1.00  0.00     0.035 A 
BRANCH  19  24
HETATM   24  O   UNL     1      43.590  -9.580   8.718  1.00  0.00    -0.354 OA
HETATM   25  C   UNL     1      44.937  -9.130   8.647  1.00  0.00     0.210 C 
ENDBRANCH  19  24
BRANCH  21  26
HETATM   26  O   UNL     1      41.170  -6.747   5.525  1.00  0.00    -0.356 OA
HETATM   27  C   UNL     1      41.699  -5.546   6.075  1.00  0.00     0.210 C 
ENDBRANCH  21  26
ENDBRANCH  15  18
ENDBRANCH  13  14
ENDBRANCH  12  13
ENDBRANCH   9  12
BRANCH  10  28
HETATM   28  C   UNL     1      42.195 -14.527   3.588  1.00  0.00     0.043 A 
HETATM   29  C   UNL     1      43.194 -13.606   3.256  1.00  0.00     0.031 A 
HETATM   30  C   UNL     1      42.828 -12.406   2.646  1.00  0.00     0.021 A 
HETATM   31  C   UNL     1      41.482 -12.148   2.375  1.00  0.00     0.011 A 
HETATM   32 BR   UNL     1      40.994 -10.524   1.542  1.00  0.00    -0.051 Br
HETATM   33  C   UNL     1      40.493 -13.080   2.705  1.00  0.00     0.021 A 
HETATM   34  C   UNL     1      40.846 -14.288   3.312  1.00  0.00     0.031 A 
ENDBRANCH  10  28
BRANCH  11  35
HETATM   35  N   UNL     1      42.711 -16.720   1.919  1.00  0.00    -0.384 N 
HETATM   36  H   UNL     1      43.500 -16.797   1.287  1.00  0.00     0.157 HD
HETATM   37  H   UNL     1      41.955 -16.143   1.563  1.00  0.00     0.157 HD
ENDBRANCH  11  35
TORSDOF 8
ENDMDL
MODEL 4
REMARK VINA RESULT:      -7.7      4.045      9.017
REMARK  8 active torsions:
REMARK  status: ('A' for Active; 'I' for Inactive)
REMARK    1  A    between atoms: C_9  and  S_10 
REMARK    2  A    between atoms: S_10  and  C_11 
REMARK    3  A    between atoms: C_11  and  C_12 
REMARK       I    between atoms: C_12  and  N_13 
REMARK    4  A    between atoms: N_13  and  C_14 
REMARK    5  A    between atoms: C_15  and  O_16 
REMARK    6  A    between atoms: C_19  and  O_20 
REMARK    7  A    between atoms: N_25  and  C_26 
REMARK    8  A    between atoms: C_33  and  N_34 
ROOT
HETATM    1  C   UNL     1      45.865  -9.204   8.242  1.00  0.00     0.073 C 
HETATM    2  C   UNL     1      44.417  -9.128   7.915  1.00  0.00     0.068 A 
HETATM    3  N   UNL     1      43.734  -8.023   8.242  1.00  0.00    -0.177 NA
HETATM    4  N   UNL     1      42.488  -8.261   7.808  1.00  0.00    -0.260 N 
HETATM    5  H   UNL     1      41.776  -7.549   7.944  1.00  0.00     0.191 HD
HETATM    6  C   UNL     1      42.355  -9.483   7.216  1.00  0.00     0.162 A 
HETATM    7  C   UNL     1      43.589 -10.095   7.266  1.00  0.00     0.081 A 
HETATM    8  N   UNL     1      41.238  -9.983   6.692  1.00  0.00    -0.204 NA
HETATM    9  C   UNL     1      41.420 -11.217   6.172  1.00  0.00     0.177 A 
HETATM   10  N   UNL     1      42.608 -11.889   6.161  1.00  0.00    -0.276 N 
HETATM   11  C   UNL     1      43.741 -11.385   6.731  1.00  0.00     0.124 A 
ENDROOT
BRANCH   9  12
HETATM   12  S   UNL     1      39.943 -11.880   5.390  1.00  0.00    -0.082 SA
BRANCH  12  13
HETATM   13  C   UNL     1      39.527 -10.488   4.286  1.00  0.00     0.185 C 
BRANCH  13  14
HETATM   14  C   UNL     1      39.876 -10.853   2.858  1.00  0.00     0.232 C 
HETATM   15  N   UNL     1      38.962 -11.715   2.278  1.00  0.00    -0.324 N 
HETATM   16  H   UNL     1      37.996 -11.602   2.554  1.00  0.00     0.169 HD
HETATM   17  O   UNL     1      40.853 -10.345   2.313  1.00  0.00    -0.272 OA
BRANCH  15  18
HETATM   18  C   UNL     1      39.193 -12.459   1.097  1.00  0.00     0.068 A 
HETATM   19  C   UNL     1      39.787 -13.739   1.086  1.00  0.00     0.097 A 
HETATM   20  C   UNL     1      39.980 -14.396  -0.141  1.00  0.00     0.075 A 
HETATM   21  C   UNL     1      39.556 -13.812  -1.337  1.00  0.00     0.070 A 
HETATM   22  C   UNL     1      38.912 -12.575  -1.305  1.00  0.00     0.039 A 
HETATM   23  C   UNL     1      38.721 -11.906  -0.097  1.00  0.00     0.035 A 
BRANCH  19  24
HETATM   24  O   UNL     1      40.039 -14.314   2.306  1.00  0.00    -0.354 OA
HETATM   25  C   UNL     1      39.796 -15.707   2.451  1.00  0.00     0.210 C 
ENDBRANCH  19  24
BRANCH  21  26
HETATM   26  O   UNL     1      39.680 -14.352  -2.587  1.00  0.00    -0.356 OA
HETATM   27  C   UNL     1      38.480 -14.610  -3.307  1.00  0.00     0.210 C 
ENDBRANCH  21  26
ENDBRANCH  15  18
ENDBRANCH  13  14
ENDBRANCH  12  13
ENDBRANCH   9  12
BRANCH  10  28
HETATM   28  C   UNL     1      42.701 -13.155   5.485  1.00  0.00     0.043 A 
HETATM   29  C   UNL     1      43.022 -13.162   4.124  1.00  0.00     0.031 A 
HETATM   30  C   UNL     1      43.179 -14.388   3.475  1.00  0.00     0.021 A 
HETATM   31  C   UNL     1      43.017 -15.576   4.190  1.00  0.00     0.011 A 
HETATM   32 BR   UNL     1      43.238 -17.232   3.305  1.00  0.00    -0.051 Br
HETATM   33  C   UNL     1      42.703 -15.557   5.552  1.00  0.00     0.021 A 
HETATM   34  C   UNL     1      42.548 -14.337   6.216  1.00  0.00     0.031 A 
ENDBRANCH  10  28
BRANCH  11  35
HETATM   35  N   UNL     1      44.946 -12.080   6.773  1.00  0.00    -0.384 N 
HETATM   36  H   UNL     1      44.980 -13.061   7.028  1.00  0.00     0.157 HD
HETATM   37  H   UNL     1      45.790 -11.566   7.005  1.00  0.00     0.157 HD
ENDBRANCH  11  35
TORSDOF 8
ENDMDL
MODEL 5
REMARK VINA RESULT:      -7.7      2.679      4.723
REMARK  8 active torsions:
REMARK  status: ('A' for Active; 'I' for Inactive)
REMARK    1  A    between atoms: C_9  and  S_10 
REMARK    2  A    between atoms: S_10  and  C_11 
REMARK    3  A    between atoms: C_11  and  C_12 
REMARK       I    between atoms: C_12  and  N_13 
REMARK    4  A    between atoms: N_13  and  C_14 
REMARK    5  A    between atoms: C_15  and  O_16 
REMARK    6  A    between atoms: C_19  and  O_20 
REMARK    7  A    between atoms: N_25  and  C_26 
REMARK    8  A    between atoms: C_33  and  N_34 
ROOT
HETATM    1  C   UNL     1      37.965 -10.711   2.131  1.00  0.00     0.073 C 
HETATM    2  C   UNL     1      38.889 -10.578   3.287  1.00  0.00     0.068 A 
HETATM    3  N   UNL     1      38.784  -9.507   4.084  1.00  0.00    -0.177 NA
HETATM    4  N   UNL     1      39.728  -9.692   5.017  1.00  0.00    -0.260 N 
HETATM    5  H   UNL     1      39.840  -8.996   5.748  1.00  0.00     0.191 HD
HETATM    6  C   UNL     1      40.433 -10.847   4.840  1.00  0.00     0.162 A 
HETATM    7  C   UNL     1      39.927 -11.463   3.715  1.00  0.00     0.081 A 
HETATM    8  N   UNL     1      41.423 -11.288   5.613  1.00  0.00    -0.204 NA
HETATM    9  C   UNL     1      41.923 -12.469   5.186  1.00  0.00     0.177 A 
HETATM   10  N   UNL     1      41.473 -13.156   4.096  1.00  0.00    -0.276 N 
HETATM   11  C   UNL     1      40.480 -12.681   3.288  1.00  0.00     0.124 A 
ENDROOT
BRANCH   9  12
HETATM   12  S   UNL     1      43.211 -13.121   6.259  1.00  0.00    -0.082 SA
BRANCH  12  13
HETATM   13  C   UNL     1      44.402 -11.741   6.184  1.00  0.00     0.185 C 
BRANCH  13  14
HETATM   14  C   UNL     1      44.654 -11.213   7.581  1.00  0.00     0.232 C 
HETATM   15  N   UNL     1      43.499 -10.797   8.221  1.00  0.00    -0.324 N 
HETATM   16  H   UNL     1      42.656 -11.316   8.016  1.00  0.00     0.169 HD
HETATM   17  O   UNL     1      45.786 -11.242   8.057  1.00  0.00    -0.272 OA
BRANCH  15  18
HETATM   18  C   UNL     1      43.468  -9.984   9.378  1.00  0.00     0.068 A 
HETATM   19  C   UNL     1      43.306  -8.582   9.343  1.00  0.00     0.097 A 
HETATM   20  C   UNL     1      43.294  -7.861  10.548  1.00  0.00     0.075 A 
HETATM   21  C   UNL     1      43.401  -8.522  11.775  1.00  0.00     0.070 A 
HETATM   22  C   UNL     1      43.496  -9.912  11.799  1.00  0.00     0.039 A 
HETATM   23  C   UNL     1      43.518 -10.642  10.611  1.00  0.00     0.035 A 
BRANCH  19  24
HETATM   24  O   UNL     1      43.055  -8.021   8.116  1.00  0.00    -0.354 OA
HETATM   25  C   UNL     1      42.314  -6.808   8.076  1.00  0.00     0.210 C 
ENDBRANCH  19  24
BRANCH  21  26
HETATM   26  O   UNL     1      43.394  -7.935  13.010  1.00  0.00    -0.356 OA
HETATM   27  C   UNL     1      42.260  -8.170  13.837  1.00  0.00     0.210 C 
ENDBRANCH  21  26
ENDBRANCH  15  18
ENDBRANCH  13  14
ENDBRANCH  12  13
ENDBRANCH   9  12
BRANCH  10  28
HETATM   28  C   UNL     1      42.017 -14.455   3.802  1.00  0.00     0.043 A 
HETATM   29  C   UNL     1      41.482 -15.567   4.460  1.00  0.00     0.031 A 
HETATM   30  C   UNL     1      41.958 -16.837   4.132  1.00  0.00     0.021 A 
HETATM   31  C   UNL     1      42.950 -16.976   3.159  1.00  0.00     0.011 A 
HETATM   32 BR   UNL     1      43.585 -18.700   2.715  1.00  0.00    -0.051 Br
HETATM   33  C   UNL     1      43.472 -15.857   2.502  1.00  0.00     0.021 A 
HETATM   34  C   UNL     1      43.001 -14.580   2.816  1.00  0.00     0.031 A 
ENDBRANCH  10  28
BRANCH  11  35
HETATM   35  N   UNL     1      40.046 -13.346   2.146  1.00  0.00    -0.384 N 
HETATM   36  H   UNL     1      39.420 -12.902   1.483  1.00  0.00     0.157 HD
HETATM   37  H   UNL     1      39.954 -14.356   2.183  1.00  0.00     0.157 HD
ENDBRANCH  11  35
TORSDOF 8
ENDMDL
MODEL 6
REMARK VINA RESULT:      -7.6      3.210      8.442
REMARK  8 active torsions:
REMARK  status: ('A' for Active; 'I' for Inactive)
REMARK    1  A    between atoms: C_9  and  S_10 
REMARK    2  A    between atoms: S_10  and  C_11 
REMARK    3  A    between atoms: C_11  and  C_12 
REMARK       I    between atoms: C_12  and  N_13 
REMARK    4  A    between atoms: N_13  and  C_14 
REMARK    5  A    between atoms: C_15  and  O_16 
REMARK    6  A    between atoms: C_19  and  O_20 
REMARK    7  A    between atoms: N_25  and  C_26 
REMARK    8  A    between atoms: C_33  and  N_34 
ROOT
HETATM    1  C   UNL     1      44.242  -9.334  10.416  1.00  0.00     0.073 C 
HETATM    2  C   UNL     1      44.449 -10.014   9.111  1.00  0.00     0.068 A 
HETATM    3  N   UNL     1      45.500 -10.829   8.962  1.00  0.00    -0.177 NA
HETATM    4  N   UNL     1      45.394 -11.283   7.705  1.00  0.00    -0.260 N 
HETATM    5  H   UNL     1      46.092 -11.933   7.357  1.00  0.00     0.191 HD
HETATM    6  C   UNL     1      44.308 -10.783   7.048  1.00  0.00     0.162 A 
HETATM    7  C   UNL     1      43.657  -9.939   7.924  1.00  0.00     0.081 A 
HETATM    8  N   UNL     1      43.951 -11.061   5.796  1.00  0.00    -0.204 NA
HETATM    9  C   UNL     1      42.823 -10.417   5.426  1.00  0.00     0.177 A 
HETATM   10  N   UNL     1      42.106  -9.579   6.230  1.00  0.00    -0.276 N 
HETATM   11  C   UNL     1      42.496  -9.271   7.502  1.00  0.00     0.124 A 
ENDROOT
BRANCH   9  12
HETATM   12  S   UNL     1      42.280 -10.837   3.764  1.00  0.00    -0.082 SA
BRANCH  12  13
HETATM   13  C   UNL     1      41.451 -12.427   4.104  1.00  0.00     0.185 C 
BRANCH  13  14
HETATM   14  C   UNL     1      42.281 -13.562   3.539  1.00  0.00     0.232 C 
HETATM   15  N   UNL     1      41.716 -14.807   3.753  1.00  0.00    -0.324 N 
HETATM   16  H   UNL     1      40.705 -14.855   3.734  1.00  0.00     0.169 HD
HETATM   17  O   UNL     1      43.308 -13.321   2.909  1.00  0.00    -0.272 OA
BRANCH  15  18
HETATM   18  C   UNL     1      42.403 -16.037   3.623  1.00  0.00     0.068 A 
HETATM   19  C   UNL     1      43.222 -16.583   4.634  1.00  0.00     0.097 A 
HETATM   20  C   UNL     1      43.868 -17.809   4.408  1.00  0.00     0.075 A 
HETATM   21  C   UNL     1      43.676 -18.505   3.212  1.00  0.00     0.070 A 
HETATM   22  C   UNL     1      42.814 -17.986   2.247  1.00  0.00     0.039 A 
HETATM   23  C   UNL     1      42.172 -16.766   2.452  1.00  0.00     0.035 A 
BRANCH  19  24
HETATM   24  O   UNL     1      43.243 -15.920   5.836  1.00  0.00    -0.354 OA
HETATM   25  C   UNL     1      42.410 -16.406   6.881  1.00  0.00     0.210 C 
ENDBRANCH  19  24
BRANCH  21  26
HETATM   26  O   UNL     1      44.240 -19.706   2.878  1.00  0.00    -0.356 OA
HETATM   27  C   UNL     1      43.583 -20.479   1.881  1.00  0.00     0.210 C 
ENDBRANCH  21  26
ENDBRANCH  15  18
ENDBRANCH  13  14
ENDBRANCH  12  13
ENDBRANCH   9  12
BRANCH  10  28
HETATM   28  C   UNL     1      40.863  -9.032   5.756  1.00  0.00     0.043 A 
HETATM   29  C   UNL     1      39.682  -9.734   6.018  1.00  0.00     0.031 A 
HETATM   30  C   UNL     1      38.465  -9.178   5.620  1.00  0.00     0.021 A 
HETATM   31  C   UNL     1      38.447  -7.939   4.976  1.00  0.00     0.011 A 
HETATM   32 BR   UNL     1      36.795  -7.190   4.446  1.00  0.00    -0.051 Br
HETATM   33  C   UNL     1      39.634  -7.243   4.726  1.00  0.00     0.021 A 
HETATM   34  C   UNL     1      40.858  -7.785   5.124  1.00  0.00     0.031 A 
ENDBRANCH  10  28
BRANCH  11  35
HETATM   35  N   UNL     1      41.803  -8.381   8.315  1.00  0.00    -0.384 N 
HETATM   36  H   UNL     1      42.122  -7.427   8.446  1.00  0.00     0.157 HD
HETATM   37  H   UNL     1      41.290  -8.753   9.108  1.00  0.00     0.157 HD
ENDBRANCH  11  35
TORSDOF 8
ENDMDL
MODEL 7
REMARK VINA RESULT:      -7.5      5.238      8.097
REMARK  8 active torsions:
REMARK  status: ('A' for Active; 'I' for Inactive)
REMARK    1  A    between atoms: C_9  and  S_10 
REMARK    2  A    between atoms: S_10  and  C_11 
REMARK    3  A    between atoms: C_11  and  C_12 
REMARK       I    between atoms: C_12  and  N_13 
REMARK    4  A    between atoms: N_13  and  C_14 
REMARK    5  A    between atoms: C_15  and  O_16 
REMARK    6  A    between atoms: C_19  and  O_20 
REMARK    7  A    between atoms: N_25  and  C_26 
REMARK    8  A    between atoms: C_33  and  N_34 
ROOT
HETATM    1  C   UNL     1      38.314 -14.551  -3.724  1.00  0.00     0.073 C 
HETATM    2  C   UNL     1      38.863 -14.522  -2.343  1.00  0.00     0.068 A 
HETATM    3  N   UNL     1      38.859 -15.647  -1.618  1.00  0.00    -0.177 NA
HETATM    4  N   UNL     1      39.422 -15.295  -0.453  1.00  0.00    -0.260 N 
HETATM    5  H   UNL     1      39.533 -15.999   0.271  1.00  0.00     0.191 HD
HETATM    6  C   UNL     1      39.783 -13.980  -0.412  1.00  0.00     0.162 A 
HETATM    7  C   UNL     1      39.432 -13.425  -1.624  1.00  0.00     0.081 A 
HETATM    8  N   UNL     1      40.364 -13.358   0.611  1.00  0.00    -0.204 NA
HETATM    9  C   UNL     1      40.606 -12.055   0.351  1.00  0.00     0.177 A 
HETATM   10  N   UNL     1      40.310 -11.427  -0.824  1.00  0.00    -0.276 N 
HETATM   11  C   UNL     1      39.682 -12.063  -1.857  1.00  0.00     0.124 A 
ENDROOT
BRANCH   9  12
HETATM   12  S   UNL     1      41.460 -11.212   1.692  1.00  0.00    -0.082 SA
BRANCH  12  13
HETATM   13  C   UNL     1      41.117 -12.377   3.054  1.00  0.00     0.185 C 
BRANCH  13  14
HETATM   14  C   UNL     1      42.192 -13.444   3.091  1.00  0.00     0.232 C 
HETATM   15  N   UNL     1      41.681 -14.730   3.118  1.00  0.00    -0.324 N 
HETATM   16  H   UNL     1      40.823 -14.887   2.605  1.00  0.00     0.169 HD
HETATM   17  O   UNL     1      43.378 -13.127   3.034  1.00  0.00    -0.272 OA
BRANCH  15  18
HETATM   18  C   UNL     1      42.420 -15.883   3.470  1.00  0.00     0.068 A 
HETATM   19  C   UNL     1      42.793 -16.198   4.794  1.00  0.00     0.097 A 
HETATM   20  C   UNL     1      43.534 -17.365   5.040  1.00  0.00     0.075 A 
HETATM   21  C   UNL     1      43.868 -18.231   3.996  1.00  0.00     0.070 A 
HETATM   22  C   UNL     1      43.438 -17.942   2.702  1.00  0.00     0.039 A 
HETATM   23  C   UNL     1      42.710 -16.783   2.438  1.00  0.00     0.035 A 
BRANCH  19  24
HETATM   24  O   UNL     1      42.301 -15.383   5.783  1.00  0.00    -0.354 OA
HETATM   25  C   UNL     1      41.525 -15.980   6.815  1.00  0.00     0.210 C 
ENDBRANCH  19  24
BRANCH  21  26
HETATM   26  O   UNL     1      44.575 -19.396   4.109  1.00  0.00    -0.356 OA
HETATM   27  C   UNL     1      44.187 -20.296   5.141  1.00  0.00     0.210 C 
ENDBRANCH  21  26
ENDBRANCH  15  18
ENDBRANCH  13  14
ENDBRANCH  12  13
ENDBRANCH   9  12
BRANCH  10  28
HETATM   28  C   UNL     1      40.710 -10.059  -1.019  1.00  0.00     0.043 A 
HETATM   29  C   UNL     1      39.809  -9.045  -0.681  1.00  0.00     0.031 A 
HETATM   30  C   UNL     1      40.212  -7.715  -0.805  1.00  0.00     0.021 A 
HETATM   31  C   UNL     1      41.500  -7.422  -1.259  1.00  0.00     0.011 A 
HETATM   32 BR   UNL     1      42.043  -5.618  -1.418  1.00  0.00    -0.051 Br
HETATM   33  C   UNL     1      42.396  -8.444  -1.587  1.00  0.00     0.021 A 
HETATM   34  C   UNL     1      42.006  -9.780  -1.463  1.00  0.00     0.031 A 
ENDBRANCH  10  28
BRANCH  11  35
HETATM   35  N   UNL     1      39.329 -11.424  -3.041  1.00  0.00    -0.384 N 
HETATM   36  H   UNL     1      39.068 -10.444  -3.054  1.00  0.00     0.157 HD
HETATM   37  H   UNL     1      38.890 -11.975  -3.772  1.00  0.00     0.157 HD
ENDBRANCH  11  35
TORSDOF 8
ENDMDL
MODEL 8
REMARK VINA RESULT:      -7.4      4.725      8.056
REMARK  8 active torsions:
REMARK  status: ('A' for Active; 'I' for Inactive)
REMARK    1  A    between atoms: C_9  and  S_10 
REMARK    2  A    between atoms: S_10  and  C_11 
REMARK    3  A    between atoms: C_11  and  C_12 
REMARK       I    between atoms: C_12  and  N_13 
REMARK    4  A    between atoms: N_13  and  C_14 
REMARK    5  A    between atoms: C_15  and  O_16 
REMARK    6  A    between atoms: C_19  and  O_20 
REMARK    7  A    between atoms: N_25  and  C_26 
REMARK    8  A    between atoms: C_33  and  N_34 
ROOT
HETATM    1  C   UNL     1      37.575 -12.895  -2.122  1.00  0.00     0.073 C 
HETATM    2  C   UNL     1      38.812 -13.258  -1.383  1.00  0.00     0.068 A 
HETATM    3  N   UNL     1      39.537 -14.303  -1.801  1.00  0.00    -0.177 NA
HETATM    4  N   UNL     1      40.570 -14.354  -0.949  1.00  0.00    -0.260 N 
HETATM    5  H   UNL     1      41.272 -15.079  -1.071  1.00  0.00     0.191 HD
HETATM    6  C   UNL     1      40.527 -13.375  -0.000  1.00  0.00     0.162 A 
HETATM    7  C   UNL     1      39.390 -12.632  -0.235  1.00  0.00     0.081 A 
HETATM    8  N   UNL     1      41.420 -13.181   0.968  1.00  0.00    -0.204 NA
HETATM    9  C   UNL     1      41.109 -12.125   1.752  1.00  0.00     0.177 A 
HETATM   10  N   UNL     1      40.016 -11.326   1.583  1.00  0.00    -0.276 N 
HETATM   11  C   UNL     1      39.086 -11.551   0.608  1.00  0.00     0.124 A 
ENDROOT
BRANCH   9  12
HETATM   12  S   UNL     1      42.341 -11.798   3.020  1.00  0.00    -0.082 SA
BRANCH  12  13
HETATM   13  C   UNL     1      41.448 -12.421   4.485  1.00  0.00     0.185 C 
BRANCH  13  14
HETATM   14  C   UNL     1      41.543 -13.932   4.533  1.00  0.00     0.232 C 
HETATM   15  N   UNL     1      42.790 -14.409   4.167  1.00  0.00    -0.324 N 
HETATM   16  H   UNL     1      43.586 -13.838   4.422  1.00  0.00     0.169 HD
HETATM   17  O   UNL     1      40.590 -14.598   4.928  1.00  0.00    -0.272 OA
BRANCH  15  18
HETATM   18  C   UNL     1      43.068 -15.751   3.817  1.00  0.00     0.068 A 
HETATM   19  C   UNL     1      43.532 -16.716   4.737  1.00  0.00     0.097 A 
HETATM   20  C   UNL     1      43.787 -18.023   4.290  1.00  0.00     0.075 A 
HETATM   21  C   UNL     1      43.547 -18.382   2.962  1.00  0.00     0.070 A 
HETATM   22  C   UNL     1      43.028 -17.436   2.079  1.00  0.00     0.039 A 
HETATM   23  C   UNL     1      42.779 -16.132   2.503  1.00  0.00     0.035 A 
BRANCH  19  24
HETATM   24  O   UNL     1      43.599 -16.333   6.053  1.00  0.00    -0.354 OA
HETATM   25  C   UNL     1      43.546 -17.348   7.047  1.00  0.00     0.210 C 
ENDBRANCH  19  24
BRANCH  21  26
HETATM   26  O   UNL     1      43.747 -19.618   2.411  1.00  0.00    -0.356 OA
HETATM   27  C   UNL     1      43.852 -20.720   3.306  1.00  0.00     0.210 C 
ENDBRANCH  21  26
ENDBRANCH  15  18
ENDBRANCH  13  14
ENDBRANCH  12  13
ENDBRANCH   9  12
BRANCH  10  28
HETATM   28  C   UNL     1      39.847 -10.168   2.420  1.00  0.00     0.043 A 
HETATM   29  C   UNL     1      39.006 -10.267   3.533  1.00  0.00     0.031 A 
HETATM   30  C   UNL     1      38.887  -9.170   4.387  1.00  0.00     0.021 A 
HETATM   31  C   UNL     1      39.606  -8.002   4.120  1.00  0.00     0.011 A 
HETATM   32 BR   UNL     1      39.445  -6.523   5.285  1.00  0.00    -0.051 Br
HETATM   33  C   UNL     1      40.449  -7.917   3.008  1.00  0.00     0.021 A 
HETATM   34  C   UNL     1      40.582  -9.010   2.147  1.00  0.00     0.031 A 
ENDBRANCH  10  28
BRANCH  11  35
HETATM   35  N   UNL     1      37.942 -10.775   0.455  1.00  0.00    -0.384 N 
HETATM   36  H   UNL     1      37.740 -10.299  -0.417  1.00  0.00     0.157 HD
HETATM   37  H   UNL     1      37.564 -10.309   1.274  1.00  0.00     0.157 HD
ENDBRANCH  11  35
TORSDOF 8
ENDMDL
MODEL 9
REMARK VINA RESULT:      -7.4     18.465     21.079
REMARK  8 active torsions:
REMARK  status: ('A' for Active; 'I' for Inactive)
REMARK    1  A    between atoms: C_9  and  S_10 
REMARK    2  A    between atoms: S_10  and  C_11 
REMARK    3  A    between atoms: C_11  and  C_12 
REMARK       I    between atoms: C_12  and  N_13 
REMARK    4  A    between atoms: N_13  and  C_14 
REMARK    5  A    between atoms: C_15  and  O_16 
REMARK    6  A    between atoms: C_19  and  O_20 
REMARK    7  A    between atoms: N_25  and  C_26 
REMARK    8  A    between atoms: C_33  and  N_34 
ROOT
HETATM    1  C   UNL     1      41.928 -30.077   3.396  1.00  0.00     0.073 C 
HETATM    2  C   UNL     1      42.709 -29.693   2.191  1.00  0.00     0.068 A 
HETATM    3  N   UNL     1      42.062 -29.209   1.124  1.00  0.00    -0.177 NA
HETATM    4  N   UNL     1      43.032 -28.953   0.235  1.00  0.00    -0.260 N 
HETATM    5  H   UNL     1      42.779 -28.567  -0.671  1.00  0.00     0.191 HD
HETATM    6  C   UNL     1      44.277 -29.259   0.701  1.00  0.00     0.162 A 
HETATM    7  C   UNL     1      44.121 -29.755   1.978  1.00  0.00     0.081 A 
HETATM    8  N   UNL     1      45.422 -29.106   0.040  1.00  0.00    -0.204 NA
HETATM    9  C   UNL     1      46.493 -29.493   0.768  1.00  0.00     0.177 A 
HETATM   10  N   UNL     1      46.434 -29.978   2.042  1.00  0.00    -0.276 N 
HETATM   11  C   UNL     1      45.253 -30.165   2.701  1.00  0.00     0.124 A 
ENDROOT
BRANCH   9  12
HETATM   12  S   UNL     1      48.057 -29.223  -0.077  1.00  0.00    -0.082 SA
BRANCH  12  13
HETATM   13  C   UNL     1      48.430 -30.935  -0.589  1.00  0.00     0.185 C 
BRANCH  13  14
HETATM   14  C   UNL     1      47.342 -31.434  -1.517  1.00  0.00     0.232 C 
HETATM   15  N   UNL     1      47.443 -30.921  -2.798  1.00  0.00    -0.324 N 
HETATM   16  H   UNL     1      48.379 -30.758  -3.148  1.00  0.00     0.169 HD
HETATM   17  O   UNL     1      46.525 -32.262  -1.121  1.00  0.00    -0.272 OA
BRANCH  15  18
HETATM   18  C   UNL     1      46.411 -30.957  -3.764  1.00  0.00     0.068 A 
HETATM   19  C   UNL     1      45.581 -29.854  -4.061  1.00  0.00     0.097 A 
HETATM   20  C   UNL     1      44.578 -29.992  -5.034  1.00  0.00     0.075 A 
HETATM   21  C   UNL     1      44.422 -31.191  -5.733  1.00  0.00     0.070 A 
HETATM   22  C   UNL     1      45.290 -32.252  -5.475  1.00  0.00     0.039 A 
HETATM   23  C   UNL     1      46.285 -32.135  -4.506  1.00  0.00     0.035 A 
BRANCH  19  24
HETATM   24  O   UNL     1      45.890 -28.667  -3.446  1.00  0.00    -0.354 OA
HETATM   25  C   UNL     1      44.855 -27.703  -3.299  1.00  0.00     0.210 C 
ENDBRANCH  19  24
BRANCH  21  26
HETATM   26  O   UNL     1      43.492 -31.444  -6.703  1.00  0.00    -0.356 OA
HETATM   27  C   UNL     1      43.951 -31.482  -8.050  1.00  0.00     0.210 C 
ENDBRANCH  21  26
ENDBRANCH  15  18
ENDBRANCH  13  14
ENDBRANCH  12  13
ENDBRANCH   9  12
BRANCH  10  28
HETATM   28  C   UNL     1      47.653 -30.260   2.752  1.00  0.00     0.043 A 
HETATM   29  C   UNL     1      48.291 -29.212   3.423  1.00  0.00     0.031 A 
HETATM   30  C   UNL     1      49.438 -29.489   4.168  1.00  0.00     0.021 A 
HETATM   31  C   UNL     1      49.923 -30.797   4.233  1.00  0.00     0.011 A 
HETATM   32 BR   UNL     1      51.473 -31.166   5.250  1.00  0.00    -0.051 Br
HETATM   33  C   UNL     1      49.273 -31.838   3.563  1.00  0.00     0.021 A 
HETATM   34  C   UNL     1      48.120 -31.576   2.818  1.00  0.00     0.031 A 
ENDBRANCH  10  28
BRANCH  11  35
HETATM   35  N   UNL     1      45.174 -30.705   3.981  1.00  0.00    -0.384 N 
HETATM   36  H   UNL     1      44.283 -30.971   4.387  1.00  0.00     0.157 HD
HETATM   37  H   UNL     1      45.869 -30.426   4.665  1.00  0.00     0.157 HD
ENDBRANCH  11  35
TORSDOF 8
ENDMDL
MODEL 10
REMARK VINA RESULT:      -7.4      4.191      8.537
REMARK  8 active torsions:
REMARK  status: ('A' for Active; 'I' for Inactive)
REMARK    1  A    between atoms: C_9  and  S_10 
REMARK    2  A    between atoms: S_10  and  C_11 
REMARK    3  A    between atoms: C_11  and  C_12 
REMARK       I    between atoms: C_12  and  N_13 
REMARK    4  A    between atoms: N_13  and  C_14 
REMARK    5  A    between atoms: C_15  and  O_16 
REMARK    6  A    between atoms: C_19  and  O_20 
REMARK    7  A    between atoms: N_25  and  C_26 
REMARK    8  A    between atoms: C_33  and  N_34 
ROOT
HETATM    1  C   UNL     1      36.636  -9.937   0.755  1.00  0.00     0.073 C 
HETATM    2  C   UNL     1      37.679 -10.933   1.114  1.00  0.00     0.068 A 
HETATM    3  N   UNL     1      37.978 -11.905   0.244  1.00  0.00    -0.177 NA
HETATM    4  N   UNL     1      38.944 -12.610   0.849  1.00  0.00    -0.260 N 
HETATM    5  H   UNL     1      39.340 -13.413   0.370  1.00  0.00     0.191 HD
HETATM    6  C   UNL     1      39.270 -12.119   2.080  1.00  0.00     0.162 A 
HETATM    7  C   UNL     1      38.465 -11.022   2.305  1.00  0.00     0.081 A 
HETATM    8  N   UNL     1      40.193 -12.612   2.902  1.00  0.00    -0.204 NA
HETATM    9  C   UNL     1      40.293 -11.904   4.049  1.00  0.00     0.177 A 
HETATM   10  N   UNL     1      39.551 -10.799   4.348  1.00  0.00    -0.276 N 
HETATM   11  C   UNL     1      38.582 -10.318   3.514  1.00  0.00     0.124 A 
ENDROOT
BRANCH   9  12
HETATM   12  S   UNL     1      41.587 -12.508   5.142  1.00  0.00    -0.082 SA
BRANCH  12  13
HETATM   13  C   UNL     1      40.614 -13.671   6.157  1.00  0.00     0.185 C 
BRANCH  13  14
HETATM   14  C   UNL     1      41.017 -15.093   5.824  1.00  0.00     0.232 C 
HETATM   15  N   UNL     1      42.203 -15.170   5.116  1.00  0.00    -0.324 N 
HETATM   16  H   UNL     1      42.907 -14.478   5.336  1.00  0.00     0.169 HD
HETATM   17  O   UNL     1      40.343 -16.036   6.231  1.00  0.00    -0.272 OA
BRANCH  15  18
HETATM   18  C   UNL     1      42.647 -16.312   4.410  1.00  0.00     0.068 A 
HETATM   19  C   UNL     1      42.262 -16.608   3.084  1.00  0.00     0.097 A 
HETATM   20  C   UNL     1      42.752 -17.773   2.471  1.00  0.00     0.075 A 
HETATM   21  C   UNL     1      43.643 -18.613   3.144  1.00  0.00     0.070 A 
HETATM   22  C   UNL     1      44.065 -18.275   4.429  1.00  0.00     0.039 A 
HETATM   23  C   UNL     1      43.581 -17.128   5.056  1.00  0.00     0.035 A 
BRANCH  19  24
HETATM   24  O   UNL     1      41.508 -15.663   2.435  1.00  0.00    -0.354 OA
HETATM   25  C   UNL     1      40.237 -16.053   1.932  1.00  0.00     0.210 C 
ENDBRANCH  19  24
BRANCH  21  26
HETATM   26  O   UNL     1      44.193 -19.764   2.653  1.00  0.00    -0.356 OA
HETATM   27  C   UNL     1      43.493 -20.426   1.606  1.00  0.00     0.210 C 
ENDBRANCH  21  26
ENDBRANCH  15  18
ENDBRANCH  13  14
ENDBRANCH  12  13
ENDBRANCH   9  12
BRANCH  10  28
HETATM   28  C   UNL     1      39.821 -10.069   5.558  1.00  0.00     0.043 A 
HETATM   29  C   UNL     1      40.707  -8.988   5.502  1.00  0.00     0.031 A 
HETATM   30  C   UNL     1      40.924  -8.234   6.655  1.00  0.00     0.021 A 
HETATM   31  C   UNL     1      40.256  -8.566   7.836  1.00  0.00     0.011 A 
HETATM   32 BR   UNL     1      40.550  -7.535   9.393  1.00  0.00    -0.051 Br
HETATM   33  C   UNL     1      39.366  -9.644   7.879  1.00  0.00     0.021 A 
HETATM   34  C   UNL     1      39.136 -10.405   6.729  1.00  0.00     0.031 A 
ENDBRANCH  10  28
BRANCH  11  35
HETATM   35  N   UNL     1      37.784  -9.223   3.828  1.00  0.00    -0.384 N 
HETATM   36  H   UNL     1      37.036  -8.922   3.213  1.00  0.00     0.157 HD
HETATM   37  H   UNL     1      38.191  -8.473   4.377  1.00  0.00     0.157 HD
ENDBRANCH  11  35
TORSDOF 8
ENDMDL
