MODEL 1
REMARK VINA RESULT:      -8.9      0.000      0.000
REMARK  5 active torsions:
REMARK  status: ('A' for Active; 'I' for Inactive)
REMARK    1  A    between atoms: C_8  and  N_9 
REMARK    2  A    between atoms: C_12  and  N_13 
REMARK    3  A    between atoms: N_13  and  C_15 
REMARK    4  A    between atoms: C_15  and  C_16 
REMARK    5  A    between atoms: C_17  and  C_18 
ROOT
HETATM    1  N   UNL     1      42.392 -12.432   4.707  1.00  0.00    -0.067 N 
HETATM    2  H   UNL     1      41.382 -12.537   4.560  1.00  0.00     0.280 HD
HETATM    3  C   UNL     1      42.568 -11.305   5.704  1.00  0.00     0.270 C 
ENDROOT
BRANCH   1   4
HETATM    4  C   UNL     1      43.092 -12.214   3.350  1.00  0.00     0.190 C 
HETATM    5  C   UNL     1      43.013 -13.479   2.479  1.00  0.00     0.048 C 
HETATM    6  C   UNL     1      41.645 -13.682   1.828  1.00  0.00     0.099 C 
HETATM    7  N   UNL     1      41.272 -12.465   1.095  1.00  0.00    -0.268 NA
HETATM    8  C   UNL     1      41.196 -11.255   1.921  1.00  0.00     0.099 C 
HETATM    9  C   UNL     1      42.562 -11.008   2.557  1.00  0.00     0.048 C 
BRANCH   7  10
HETATM   10  C   UNL     1      40.216 -12.633   0.188  1.00  0.00     0.109 A 
HETATM   11  N   UNL     1      39.225 -11.725   0.145  1.00  0.00    -0.224 NA
HETATM   12  C   UNL     1      38.181 -11.952  -0.692  1.00  0.00     0.102 A 
HETATM   13  N   UNL     1      38.087 -13.039  -1.470  1.00  0.00    -0.348 N 
HETATM   14  C   UNL     1      37.061 -10.960  -0.708  1.00  0.00     0.091 C 
HETATM   15  C   UNL     1      39.059 -13.963  -1.453  1.00  0.00     0.009 A 
HETATM   16  H   UNL     1      37.267 -13.161  -2.062  1.00  0.00     0.167 HD
HETATM   17  C   UNL     1      38.925 -15.176  -2.315  1.00  0.00     0.068 C 
HETATM   18  C   UNL     1      40.154 -13.773  -0.608  1.00  0.00     0.069 A 
ENDBRANCH   7  10
ENDBRANCH   1   4
BRANCH   1  19
HETATM   19  C   UNL     1      42.851 -13.751   5.356  1.00  0.00     0.277 C 
BRANCH  19  20
HETATM   20  C   UNL     1      41.749 -14.711   5.621  1.00  0.00     0.016 A 
HETATM   21  C   UNL     1      41.596 -16.073   5.202  1.00  0.00     0.099 A 
HETATM   22  N   UNL     1      40.393 -16.538   5.566  1.00  0.00    -0.174 NA
HETATM   23  N   UNL     1      39.849 -15.579   6.320  1.00  0.00    -0.288 N 
HETATM   24  H   UNL     1      38.950 -15.761   6.762  1.00  0.00     0.188 HD
HETATM   25  C   UNL     1      40.603 -14.446   6.351  1.00  0.00     0.120 A 
BRANCH  21  26
HETATM   26  C   UNL     1      42.490 -16.942   4.437  1.00  0.00     0.034 A 
HETATM   27  C   UNL     1      43.506 -17.684   5.046  1.00  0.00     0.129 A 
HETATM   28  F   UNL     1      43.732 -17.584   6.363  1.00  0.00    -0.205 F 
HETATM   29  C   UNL     1      44.310 -18.556   4.312  1.00  0.00     0.043 A 
HETATM   30  C   UNL     1      44.099 -18.706   2.943  1.00  0.00     0.003 A 
HETATM   31  C   UNL     1      43.088 -17.980   2.315  1.00  0.00     0.001 A 
HETATM   32  C   UNL     1      42.288 -17.107   3.058  1.00  0.00     0.017 A 
ENDBRANCH  21  26
ENDBRANCH  19  20
ENDBRANCH   1  19
TORSDOF 5
ENDMDL
MODEL 2
REMARK VINA RESULT:      -8.9      1.744      2.370
REMARK  5 active torsions:
REMARK  status: ('A' for Active; 'I' for Inactive)
REMARK    1  A    between atoms: C_8  and  N_9 
REMARK    2  A    between atoms: C_12  and  N_13 
REMARK    3  A    between atoms: N_13  and  C_15 
REMARK    4  A    between atoms: C_15  and  C_16 
REMARK    5  A    between atoms: C_17  and  C_18 
ROOT
HETATM    1  N   UNL     1      40.574 -15.248   4.670  1.00  0.00    -0.067 N 
HETATM    2  H   UNL     1      39.636 -15.386   4.274  1.00  0.00     0.280 HD
HETATM    3  C   UNL     1      40.508 -13.988   5.506  1.00  0.00     0.270 C 
ENDROOT
BRANCH   1   4
HETATM    4  C   UNL     1      41.615 -15.221   3.533  1.00  0.00     0.190 C 
HETATM    5  C   UNL     1      41.206 -16.160   2.386  1.00  0.00     0.048 C 
HETATM    6  C   UNL     1      40.105 -15.583   1.495  1.00  0.00     0.099 C 
HETATM    7  N   UNL     1      40.513 -14.254   1.022  1.00  0.00    -0.268 NA
HETATM    8  C   UNL     1      40.776 -13.282   2.087  1.00  0.00     0.099 C 
HETATM    9  C   UNL     1      41.897 -13.817   2.974  1.00  0.00     0.048 C 
BRANCH   7  10
HETATM   10  C   UNL     1      39.760 -13.766  -0.057  1.00  0.00     0.109 A 
HETATM   11  N   UNL     1      39.243 -12.525   0.001  1.00  0.00    -0.224 NA
HETATM   12  C   UNL     1      38.460 -12.107  -1.027  1.00  0.00     0.102 A 
HETATM   13  N   UNL     1      38.172 -12.872  -2.088  1.00  0.00    -0.348 N 
HETATM   14  C   UNL     1      37.855 -10.742  -0.941  1.00  0.00     0.091 C 
HETATM   15  C   UNL     1      38.673 -14.113  -2.178  1.00  0.00     0.009 A 
HETATM   16  H   UNL     1      37.561 -12.507  -2.817  1.00  0.00     0.167 HD
HETATM   17  C   UNL     1      38.324 -14.955  -3.361  1.00  0.00     0.068 C 
HETATM   18  C   UNL     1      39.485 -14.587  -1.145  1.00  0.00     0.069 A 
ENDBRANCH   7  10
ENDBRANCH   1   4
BRANCH   1  19
HETATM   19  C   UNL     1      40.807 -16.455   5.598  1.00  0.00     0.277 C 
BRANCH  19  20
HETATM   20  C   UNL     1      42.093 -16.410   6.338  1.00  0.00     0.016 A 
HETATM   21  C   UNL     1      43.255 -17.240   6.213  1.00  0.00     0.099 A 
HETATM   22  N   UNL     1      44.153 -16.926   7.157  1.00  0.00    -0.174 NA
HETATM   23  N   UNL     1      43.669 -15.843   7.770  1.00  0.00    -0.288 N 
HETATM   24  H   UNL     1      44.239 -15.394   8.485  1.00  0.00     0.188 HD
HETATM   25  C   UNL     1      42.418 -15.516   7.345  1.00  0.00     0.120 A 
BRANCH  21  26
HETATM   26  C   UNL     1      43.546 -18.341   5.295  1.00  0.00     0.034 A 
HETATM   27  C   UNL     1      43.574 -19.673   5.718  1.00  0.00     0.129 A 
HETATM   28  F   UNL     1      43.381 -19.986   7.007  1.00  0.00    -0.205 F 
HETATM   29  C   UNL     1      43.791 -20.717   4.819  1.00  0.00     0.043 A 
HETATM   30  C   UNL     1      43.978 -20.439   3.467  1.00  0.00     0.003 A 
HETATM   31  C   UNL     1      43.949 -19.119   3.021  1.00  0.00     0.001 A 
HETATM   32  C   UNL     1      43.732 -18.078   3.929  1.00  0.00     0.017 A 
ENDBRANCH  21  26
ENDBRANCH  19  20
ENDBRANCH   1  19
TORSDOF 5
ENDMDL
MODEL 3
REMARK VINA RESULT:      -8.8      1.028      2.003
REMARK  5 active torsions:
REMARK  status: ('A' for Active; 'I' for Inactive)
REMARK    1  A    between atoms: C_8  and  N_9 
REMARK    2  A    between atoms: C_12  and  N_13 
REMARK    3  A    between atoms: N_13  and  C_15 
REMARK    4  A    between atoms: C_15  and  C_16 
REMARK    5  A    between atoms: C_17  and  C_18 
ROOT
HETATM    1  N   UNL     1      42.405 -12.408   4.652  1.00  0.00    -0.067 N 
HETATM    2  H   UNL     1      41.385 -12.474   4.558  1.00  0.00     0.280 HD
HETATM    3  C   UNL     1      42.675 -11.309   5.657  1.00  0.00     0.270 C 
ENDROOT
BRANCH   1   4
HETATM    4  C   UNL     1      43.038 -12.190   3.263  1.00  0.00     0.190 C 
HETATM    5  C   UNL     1      42.926 -13.457   2.399  1.00  0.00     0.048 C 
HETATM    6  C   UNL     1      41.529 -13.669   1.814  1.00  0.00     0.099 C 
HETATM    7  N   UNL     1      41.115 -12.456   1.098  1.00  0.00    -0.268 NA
HETATM    8  C   UNL     1      41.071 -11.245   1.924  1.00  0.00     0.099 C 
HETATM    9  C   UNL     1      42.464 -10.989   2.494  1.00  0.00     0.048 C 
BRANCH   7  10
HETATM   10  C   UNL     1      40.018 -12.633   0.241  1.00  0.00     0.109 A 
HETATM   11  N   UNL     1      39.969 -13.710  -0.563  1.00  0.00    -0.224 NA
HETATM   12  C   UNL     1      38.931 -13.817  -1.431  1.00  0.00     0.102 A 
HETATM   13  N   UNL     1      37.960 -12.899  -1.530  1.00  0.00    -0.348 N 
HETATM   14  C   UNL     1      38.900 -14.996  -2.351  1.00  0.00     0.091 C 
HETATM   15  C   UNL     1      37.978 -11.815  -0.741  1.00  0.00     0.009 A 
HETATM   16  H   UNL     1      37.218 -13.027  -2.216  1.00  0.00     0.167 HD
HETATM   17  C   UNL     1      36.895 -10.795  -0.881  1.00  0.00     0.068 C 
HETATM   18  C   UNL     1      39.026 -11.661   0.169  1.00  0.00     0.069 A 
ENDBRANCH   7  10
ENDBRANCH   1   4
BRANCH   1  19
HETATM   19  C   UNL     1      42.849 -13.756   5.251  1.00  0.00     0.277 C 
BRANCH  19  20
HETATM   20  C   UNL     1      41.728 -14.680   5.560  1.00  0.00     0.016 A 
HETATM   21  C   UNL     1      41.535 -16.049   5.183  1.00  0.00     0.099 A 
HETATM   22  N   UNL     1      40.327 -16.474   5.577  1.00  0.00    -0.174 NA
HETATM   23  N   UNL     1      39.818 -15.481   6.311  1.00  0.00    -0.288 N 
HETATM   24  H   UNL     1      38.921 -15.628   6.771  1.00  0.00     0.188 HD
HETATM   25  C   UNL     1      40.599 -14.366   6.299  1.00  0.00     0.120 A 
BRANCH  21  26
HETATM   26  C   UNL     1      42.396 -16.962   4.430  1.00  0.00     0.034 A 
HETATM   27  C   UNL     1      42.188 -17.230   3.074  1.00  0.00     0.129 A 
HETATM   28  F   UNL     1      41.149 -16.693   2.421  1.00  0.00    -0.205 F 
HETATM   29  C   UNL     1      43.054 -18.054   2.355  1.00  0.00     0.043 A 
HETATM   30  C   UNL     1      44.158 -18.620   2.989  1.00  0.00     0.003 A 
HETATM   31  C   UNL     1      44.388 -18.362   4.339  1.00  0.00     0.001 A 
HETATM   32  C   UNL     1      43.515 -17.536   5.053  1.00  0.00     0.017 A 
ENDBRANCH  21  26
ENDBRANCH  19  20
ENDBRANCH   1  19
TORSDOF 5
ENDMDL
MODEL 4
REMARK VINA RESULT:      -8.3      1.925      2.949
REMARK  5 active torsions:
REMARK  status: ('A' for Active; 'I' for Inactive)
REMARK    1  A    between atoms: C_8  and  N_9 
REMARK    2  A    between atoms: C_12  and  N_13 
REMARK    3  A    between atoms: N_13  and  C_15 
REMARK    4  A    between atoms: C_15  and  C_16 
REMARK    5  A    between atoms: C_17  and  C_18 
ROOT
HETATM    1  N   UNL     1      41.031 -15.086   4.443  1.00  0.00    -0.067 N 
HETATM    2  H   UNL     1      40.075 -14.909   4.110  1.00  0.00     0.280 HD
HETATM    3  C   UNL     1      41.459 -13.847   5.201  1.00  0.00     0.270 C 
ENDROOT
BRANCH   1   4
HETATM    4  C   UNL     1      41.932 -15.462   3.250  1.00  0.00     0.190 C 
HETATM    5  C   UNL     1      41.171 -16.333   2.235  1.00  0.00     0.048 C 
HETATM    6  C   UNL     1      40.207 -15.535   1.356  1.00  0.00     0.099 C 
HETATM    7  N   UNL     1      40.935 -14.429   0.720  1.00  0.00    -0.268 NA
HETATM    8  C   UNL     1      41.559 -13.491   1.658  1.00  0.00     0.099 C 
HETATM    9  C   UNL     1      42.554 -14.255   2.528  1.00  0.00     0.048 C 
BRANCH   7  10
HETATM   10  C   UNL     1      40.262 -13.834  -0.358  1.00  0.00     0.109 A 
HETATM   11  N   UNL     1      39.586 -14.607  -1.228  1.00  0.00    -0.224 NA
HETATM   12  C   UNL     1      39.005 -14.010  -2.299  1.00  0.00     0.102 A 
HETATM   13  N   UNL     1      39.079 -12.693  -2.536  1.00  0.00    -0.348 N 
HETATM   14  C   UNL     1      38.288 -14.876  -3.286  1.00  0.00     0.091 C 
HETATM   15  C   UNL     1      39.744 -11.895  -1.687  1.00  0.00     0.009 A 
HETATM   16  H   UNL     1      38.639 -12.309  -3.370  1.00  0.00     0.167 HD
HETATM   17  C   UNL     1      39.829 -10.433  -1.980  1.00  0.00     0.068 C 
HETATM   18  C   UNL     1      40.357 -12.463  -0.569  1.00  0.00     0.069 A 
ENDBRANCH   7  10
ENDBRANCH   1   4
BRANCH   1  19
HETATM   19  C   UNL     1      40.909 -16.262   5.431  1.00  0.00     0.277 C 
BRANCH  19  20
HETATM   20  C   UNL     1      42.014 -16.338   6.419  1.00  0.00     0.016 A 
HETATM   21  C   UNL     1      43.078 -17.291   6.535  1.00  0.00     0.099 A 
HETATM   22  N   UNL     1      43.793 -17.055   7.644  1.00  0.00    -0.174 NA
HETATM   23  N   UNL     1      43.317 -15.913   8.144  1.00  0.00    -0.288 N 
HETATM   24  H   UNL     1      43.774 -15.512   8.961  1.00  0.00     0.188 HD
HETATM   25  C   UNL     1      42.222 -15.462   7.472  1.00  0.00     0.120 A 
BRANCH  21  26
HETATM   26  C   UNL     1      43.428 -18.438   5.697  1.00  0.00     0.034 A 
HETATM   27  C   UNL     1      43.915 -18.285   4.395  1.00  0.00     0.129 A 
HETATM   28  F   UNL     1      44.030 -17.069   3.845  1.00  0.00    -0.205 F 
HETATM   29  C   UNL     1      44.303 -19.385   3.631  1.00  0.00     0.043 A 
HETATM   30  C   UNL     1      44.217 -20.668   4.169  1.00  0.00     0.003 A 
HETATM   31  C   UNL     1      43.741 -20.843   5.467  1.00  0.00     0.001 A 
HETATM   32  C   UNL     1      43.352 -19.736   6.226  1.00  0.00     0.017 A 
ENDBRANCH  21  26
ENDBRANCH  19  20
ENDBRANCH   1  19
TORSDOF 5
ENDMDL
MODEL 5
REMARK VINA RESULT:      -8.3      2.264      3.981
REMARK  5 active torsions:
REMARK  status: ('A' for Active; 'I' for Inactive)
REMARK    1  A    between atoms: C_8  and  N_9 
REMARK    2  A    between atoms: C_12  and  N_13 
REMARK    3  A    between atoms: N_13  and  C_15 
REMARK    4  A    between atoms: C_15  and  C_16 
REMARK    5  A    between atoms: C_17  and  C_18 
ROOT
HETATM    1  N   UNL     1      42.110 -15.250   5.780  1.00  0.00    -0.067 N 
HETATM    2  H   UNL     1      41.636 -15.439   4.890  1.00  0.00     0.280 HD
HETATM    3  C   UNL     1      41.430 -16.114   6.822  1.00  0.00     0.270 C 
ENDROOT
BRANCH   1   4
HETATM    4  C   UNL     1      42.080 -13.736   6.071  1.00  0.00     0.190 C 
HETATM    5  C   UNL     1      42.957 -12.964   5.071  1.00  0.00     0.048 C 
HETATM    6  C   UNL     1      42.304 -12.792   3.700  1.00  0.00     0.099 C 
HETATM    7  N   UNL     1      40.975 -12.191   3.869  1.00  0.00    -0.268 NA
HETATM    8  C   UNL     1      40.055 -12.971   4.703  1.00  0.00     0.099 C 
HETATM    9  C   UNL     1      40.667 -13.129   6.092  1.00  0.00     0.048 C 
BRANCH   7  10
HETATM   10  C   UNL     1      40.416 -11.675   2.689  1.00  0.00     0.109 A 
HETATM   11  N   UNL     1      41.211 -11.075   1.785  1.00  0.00    -0.224 NA
HETATM   12  C   UNL     1      40.632 -10.523   0.688  1.00  0.00     0.102 A 
HETATM   13  N   UNL     1      39.310 -10.540   0.469  1.00  0.00    -0.348 N 
HETATM   14  C   UNL     1      41.513  -9.822  -0.297  1.00  0.00     0.091 C 
HETATM   15  C   UNL     1      38.490 -11.131   1.350  1.00  0.00     0.009 A 
HETATM   16  H   UNL     1      38.935 -10.089  -0.364  1.00  0.00     0.167 HD
HETATM   17  C   UNL     1      37.019 -11.122   1.094  1.00  0.00     0.068 C 
HETATM   18  C   UNL     1      39.039 -11.715   2.494  1.00  0.00     0.069 A 
ENDBRANCH   7  10
ENDBRANCH   1   4
BRANCH   1  19
HETATM   19  C   UNL     1      43.556 -15.743   5.586  1.00  0.00     0.277 C 
BRANCH  19  20
HETATM   20  C   UNL     1      43.681 -16.915   4.684  1.00  0.00     0.016 A 
HETATM   21  C   UNL     1      43.054 -17.172   3.421  1.00  0.00     0.099 A 
HETATM   22  N   UNL     1      43.355 -18.407   2.996  1.00  0.00    -0.174 NA
HETATM   23  N   UNL     1      44.258 -18.875   3.861  1.00  0.00    -0.288 N 
HETATM   24  H   UNL     1      44.678 -19.786   3.680  1.00  0.00     0.188 HD
HETATM   25  C   UNL     1      44.459 -18.037   4.915  1.00  0.00     0.120 A 
BRANCH  21  26
HETATM   26  C   UNL     1      42.149 -16.349   2.619  1.00  0.00     0.034 A 
HETATM   27  C   UNL     1      42.597 -15.595   1.531  1.00  0.00     0.129 A 
HETATM   28  F   UNL     1      43.898 -15.561   1.211  1.00  0.00    -0.205 F 
HETATM   29  C   UNL     1      41.713 -14.865   0.738  1.00  0.00     0.043 A 
HETATM   30  C   UNL     1      40.349 -14.885   1.022  1.00  0.00     0.003 A 
HETATM   31  C   UNL     1      39.878 -15.634   2.099  1.00  0.00     0.001 A 
HETATM   32  C   UNL     1      40.771 -16.363   2.890  1.00  0.00     0.017 A 
ENDBRANCH  21  26
ENDBRANCH  19  20
ENDBRANCH   1  19
TORSDOF 5
ENDMDL
MODEL 6
REMARK VINA RESULT:      -8.1      4.009      7.415
REMARK  5 active torsions:
REMARK  status: ('A' for Active; 'I' for Inactive)
REMARK    1  A    between atoms: C_8  and  N_9 
REMARK    2  A    between atoms: C_12  and  N_13 
REMARK    3  A    between atoms: N_13  and  C_15 
REMARK    4  A    between atoms: C_15  and  C_16 
REMARK    5  A    between atoms: C_17  and  C_18 
ROOT
HETATM    1  N   UNL     1      43.289 -12.966   6.222  1.00  0.00    -0.067 N 
HETATM    2  H   UNL     1      42.622 -12.732   6.967  1.00  0.00     0.280 HD
HETATM    3  C   UNL     1      44.163 -14.079   6.761  1.00  0.00     0.270 C 
ENDROOT
BRANCH   1   4
HETATM    4  C   UNL     1      44.048 -11.696   5.790  1.00  0.00     0.190 C 
HETATM    5  C   UNL     1      43.077 -10.528   5.547  1.00  0.00     0.048 C 
HETATM    6  C   UNL     1      42.573  -9.881   6.838  1.00  0.00     0.099 C 
HETATM    7  N   UNL     1      43.723  -9.499   7.668  1.00  0.00    -0.268 NA
HETATM    8  C   UNL     1      44.601 -10.613   8.043  1.00  0.00     0.099 C 
HETATM    9  C   UNL     1      45.147 -11.256   6.771  1.00  0.00     0.048 C 
BRANCH   7  10
HETATM   10  C   UNL     1      43.419  -8.606   8.706  1.00  0.00     0.109 A 
HETATM   11  N   UNL     1      43.593  -8.988   9.984  1.00  0.00    -0.224 NA
HETATM   12  C   UNL     1      43.223  -8.128  10.967  1.00  0.00     0.102 A 
HETATM   13  N   UNL     1      42.686  -6.924  10.726  1.00  0.00    -0.348 N 
HETATM   14  C   UNL     1      43.381  -8.571  12.388  1.00  0.00     0.091 C 
HETATM   15  C   UNL     1      42.501  -6.512   9.464  1.00  0.00     0.009 A 
HETATM   16  H   UNL     1      42.410  -6.333  11.509  1.00  0.00     0.167 HD
HETATM   17  C   UNL     1      41.885  -5.174   9.218  1.00  0.00     0.068 C 
HETATM   18  C   UNL     1      42.867  -7.362   8.417  1.00  0.00     0.069 A 
ENDBRANCH   7  10
ENDBRANCH   1   4
BRANCH   1  19
HETATM   19  C   UNL     1      42.434 -13.515   5.064  1.00  0.00     0.277 C 
BRANCH  19  20
HETATM   20  C   UNL     1      41.454 -14.553   5.475  1.00  0.00     0.016 A 
HETATM   21  C   UNL     1      41.418 -15.953   5.170  1.00  0.00     0.099 A 
HETATM   22  N   UNL     1      40.293 -16.502   5.648  1.00  0.00    -0.174 NA
HETATM   23  N   UNL     1      39.699 -15.544   6.364  1.00  0.00    -0.288 N 
HETATM   24  H   UNL     1      38.852 -15.777   6.879  1.00  0.00     0.188 HD
HETATM   25  C   UNL     1      40.333 -14.343   6.260  1.00  0.00     0.120 A 
BRANCH  21  26
HETATM   26  C   UNL     1      42.348 -16.790   4.412  1.00  0.00     0.034 A 
HETATM   27  C   UNL     1      43.364 -17.522   5.034  1.00  0.00     0.129 A 
HETATM   28  F   UNL     1      43.554 -17.442   6.358  1.00  0.00    -0.205 F 
HETATM   29  C   UNL     1      44.204 -18.364   4.305  1.00  0.00     0.043 A 
HETATM   30  C   UNL     1      44.031 -18.492   2.928  1.00  0.00     0.003 A 
HETATM   31  C   UNL     1      43.021 -17.776   2.288  1.00  0.00     0.001 A 
HETATM   32  C   UNL     1      42.184 -16.933   3.025  1.00  0.00     0.017 A 
ENDBRANCH  21  26
ENDBRANCH  19  20
ENDBRANCH   1  19
TORSDOF 5
ENDMDL
MODEL 7
REMARK VINA RESULT:      -8.1      1.623      2.590
REMARK  5 active torsions:
REMARK  status: ('A' for Active; 'I' for Inactive)
REMARK    1  A    between atoms: C_8  and  N_9 
REMARK    2  A    between atoms: C_12  and  N_13 
REMARK    3  A    between atoms: N_13  and  C_15 
REMARK    4  A    between atoms: C_15  and  C_16 
REMARK    5  A    between atoms: C_17  and  C_18 
ROOT
HETATM    1  N   UNL     1      41.908 -13.417   2.751  1.00  0.00    -0.067 N 
HETATM    2  H   UNL     1      41.968 -12.420   2.515  1.00  0.00     0.280 HD
HETATM    3  C   UNL     1      43.000 -14.112   1.965  1.00  0.00     0.270 C 
ENDROOT
BRANCH   1   4
HETATM    4  C   UNL     1      40.481 -13.929   2.474  1.00  0.00     0.190 C 
HETATM    5  C   UNL     1      39.466 -12.773   2.491  1.00  0.00     0.048 C 
HETATM    6  C   UNL     1      39.493 -11.926   1.218  1.00  0.00     0.099 C 
HETATM    7  N   UNL     1      39.334 -12.803   0.050  1.00  0.00    -0.268 NA
HETATM    8  C   UNL     1      40.368 -13.835  -0.082  1.00  0.00     0.099 C 
HETATM    9  C   UNL     1      40.341 -14.719   1.162  1.00  0.00     0.048 C 
BRANCH   7  10
HETATM   10  C   UNL     1      39.006 -12.133  -1.138  1.00  0.00     0.109 A 
HETATM   11  N   UNL     1      39.972 -11.518  -1.843  1.00  0.00    -0.224 NA
HETATM   12  C   UNL     1      39.613 -10.818  -2.950  1.00  0.00     0.102 A 
HETATM   13  N   UNL     1      38.346 -10.706  -3.368  1.00  0.00    -0.348 N 
HETATM   14  C   UNL     1      40.685 -10.102  -3.710  1.00  0.00     0.091 C 
HETATM   15  C   UNL     1      37.358 -11.309  -2.689  1.00  0.00     0.009 A 
HETATM   16  H   UNL     1      38.139 -10.149  -4.196  1.00  0.00     0.167 HD
HETATM   17  C   UNL     1      35.950 -11.155  -3.163  1.00  0.00     0.068 C 
HETATM   18  C   UNL     1      37.679 -12.041  -1.544  1.00  0.00     0.069 A 
ENDBRANCH   7  10
ENDBRANCH   1   4
BRANCH   1  19
HETATM   19  C   UNL     1      42.239 -13.502   4.253  1.00  0.00     0.277 C 
BRANCH  19  20
HETATM   20  C   UNL     1      41.424 -14.495   4.998  1.00  0.00     0.016 A 
HETATM   21  C   UNL     1      41.502 -15.926   5.008  1.00  0.00     0.099 A 
HETATM   22  N   UNL     1      40.498 -16.440   5.732  1.00  0.00    -0.174 NA
HETATM   23  N   UNL     1      39.887 -15.395   6.295  1.00  0.00    -0.288 N 
HETATM   24  H   UNL     1      39.129 -15.571   6.951  1.00  0.00     0.188 HD
HETATM   25  C   UNL     1      40.376 -14.202   5.856  1.00  0.00     0.120 A 
BRANCH  21  26
HETATM   26  C   UNL     1      42.429 -16.836   4.335  1.00  0.00     0.034 A 
HETATM   27  C   UNL     1      43.527 -17.398   4.993  1.00  0.00     0.129 A 
HETATM   28  F   UNL     1      43.800 -17.078   6.265  1.00  0.00    -0.205 F 
HETATM   29  C   UNL     1      44.366 -18.312   4.357  1.00  0.00     0.043 A 
HETATM   30  C   UNL     1      44.110 -18.687   3.040  1.00  0.00     0.003 A 
HETATM   31  C   UNL     1      43.017 -18.144   2.366  1.00  0.00     0.001 A 
HETATM   32  C   UNL     1      42.182 -17.227   3.010  1.00  0.00     0.017 A 
ENDBRANCH  21  26
ENDBRANCH  19  20
ENDBRANCH   1  19
TORSDOF 5
ENDMDL
MODEL 8
REMARK VINA RESULT:      -8.0      3.693      7.344
REMARK  5 active torsions:
REMARK  status: ('A' for Active; 'I' for Inactive)
REMARK    1  A    between atoms: C_8  and  N_9 
REMARK    2  A    between atoms: C_12  and  N_13 
REMARK    3  A    between atoms: N_13  and  C_15 
REMARK    4  A    between atoms: C_15  and  C_16 
REMARK    5  A    between atoms: C_17  and  C_18 
ROOT
HETATM    1  N   UNL     1      43.180 -12.992   5.651  1.00  0.00    -0.067 N 
HETATM    2  H   UNL     1      42.204 -12.931   5.965  1.00  0.00     0.280 HD
HETATM    3  C   UNL     1      43.856 -14.012   6.543  1.00  0.00     0.270 C 
ENDROOT
BRANCH   1   4
HETATM    4  C   UNL     1      43.817 -11.588   5.669  1.00  0.00     0.190 C 
HETATM    5  C   UNL     1      42.745 -10.492   5.545  1.00  0.00     0.048 C 
HETATM    6  C   UNL     1      41.978 -10.246   6.845  1.00  0.00     0.099 C 
HETATM    7  N   UNL     1      42.935  -9.983   7.928  1.00  0.00    -0.268 NA
HETATM    8  C   UNL     1      43.889 -11.068   8.175  1.00  0.00     0.099 C 
HETATM    9  C   UNL     1      44.694 -11.313   6.902  1.00  0.00     0.048 C 
BRANCH   7  10
HETATM   10  C   UNL     1      42.367  -9.415   9.079  1.00  0.00     0.109 A 
HETATM   11  N   UNL     1      41.070  -9.059   9.075  1.00  0.00    -0.224 NA
HETATM   12  C   UNL     1      40.568  -8.447  10.178  1.00  0.00     0.102 A 
HETATM   13  N   UNL     1      41.303  -8.176  11.264  1.00  0.00    -0.348 N 
HETATM   14  C   UNL     1      39.136  -8.016  10.155  1.00  0.00     0.091 C 
HETATM   15  C   UNL     1      42.599  -8.520  11.303  1.00  0.00     0.009 A 
HETATM   16  H   UNL     1      40.872  -7.696  12.053  1.00  0.00     0.167 HD
HETATM   17  C   UNL     1      43.403  -8.191  12.517  1.00  0.00     0.068 C 
HETATM   18  C   UNL     1      43.160  -9.152  10.191  1.00  0.00     0.069 A 
ENDBRANCH   7  10
ENDBRANCH   1   4
BRANCH   1  19
HETATM   19  C   UNL     1      43.114 -13.546   4.215  1.00  0.00     0.277 C 
BRANCH  19  20
HETATM   20  C   UNL     1      41.864 -14.286   3.909  1.00  0.00     0.016 A 
HETATM   21  C   UNL     1      41.641 -15.696   3.774  1.00  0.00     0.099 A 
HETATM   22  N   UNL     1      40.382 -15.930   3.378  1.00  0.00    -0.174 NA
HETATM   23  N   UNL     1      39.769 -14.744   3.403  1.00  0.00    -0.288 N 
HETATM   24  H   UNL     1      38.772 -14.709   3.200  1.00  0.00     0.188 HD
HETATM   25  C   UNL     1      40.623 -13.719   3.675  1.00  0.00     0.120 A 
BRANCH  21  26
HETATM   26  C   UNL     1      42.553 -16.827   3.944  1.00  0.00     0.034 A 
HETATM   27  C   UNL     1      43.161 -17.461   2.857  1.00  0.00     0.129 A 
HETATM   28  F   UNL     1      42.886 -17.081   1.602  1.00  0.00    -0.205 F 
HETATM   29  C   UNL     1      44.076 -18.497   3.039  1.00  0.00     0.043 A 
HETATM   30  C   UNL     1      44.406 -18.913   4.327  1.00  0.00     0.003 A 
HETATM   31  C   UNL     1      43.816 -18.291   5.427  1.00  0.00     0.001 A 
HETATM   32  C   UNL     1      42.898 -17.254   5.236  1.00  0.00     0.017 A 
ENDBRANCH  21  26
ENDBRANCH  19  20
ENDBRANCH   1  19
TORSDOF 5
ENDMDL
MODEL 9
REMARK VINA RESULT:      -7.7      4.396      8.069
REMARK  5 active torsions:
REMARK  status: ('A' for Active; 'I' for Inactive)
REMARK    1  A    between atoms: C_8  and  N_9 
REMARK    2  A    between atoms: C_12  and  N_13 
REMARK    3  A    between atoms: N_13  and  C_15 
REMARK    4  A    between atoms: C_15  and  C_16 
REMARK    5  A    between atoms: C_17  and  C_18 
ROOT
HETATM    1  N   UNL     1      41.443 -10.186   7.507  1.00  0.00    -0.067 N 
HETATM    2  H   UNL     1      41.773 -11.066   7.919  1.00  0.00     0.280 HD
HETATM    3  C   UNL     1      40.497  -9.566   8.514  1.00  0.00     0.270 C 
ENDROOT
BRANCH   1   4
HETATM    4  C   UNL     1      40.827 -10.463   6.121  1.00  0.00     0.190 C 
HETATM    5  C   UNL     1      41.910 -10.492   5.030  1.00  0.00     0.048 C 
HETATM    6  C   UNL     1      42.720 -11.789   5.015  1.00  0.00     0.099 C 
HETATM    7  N   UNL     1      41.802 -12.932   4.932  1.00  0.00    -0.268 NA
HETATM    8  C   UNL     1      40.839 -13.022   6.035  1.00  0.00     0.099 C 
HETATM    9  C   UNL     1      39.992 -11.753   6.052  1.00  0.00     0.048 C 
BRANCH   7  10
HETATM   10  C   UNL     1      42.412 -14.143   4.574  1.00  0.00     0.109 A 
HETATM   11  N   UNL     1      42.607 -14.431   3.275  1.00  0.00    -0.224 NA
HETATM   12  C   UNL     1      43.135 -15.641   2.957  1.00  0.00     0.102 A 
HETATM   13  N   UNL     1      43.462 -16.562   3.873  1.00  0.00    -0.348 N 
HETATM   14  C   UNL     1      43.313 -15.974   1.510  1.00  0.00     0.091 C 
HETATM   15  C   UNL     1      43.282 -16.306   5.177  1.00  0.00     0.009 A 
HETATM   16  H   UNL     1      43.835 -17.460   3.569  1.00  0.00     0.167 HD
HETATM   17  C   UNL     1      43.637 -17.354   6.180  1.00  0.00     0.068 C 
HETATM   18  C   UNL     1      42.743 -15.074   5.554  1.00  0.00     0.069 A 
ENDBRANCH   7  10
ENDBRANCH   1   4
BRANCH   1  19
HETATM   19  C   UNL     1      42.696  -9.298   7.382  1.00  0.00     0.277 C 
BRANCH  19  20
HETATM   20  C   UNL     1      43.921  -9.894   7.971  1.00  0.00     0.016 A 
HETATM   21  C   UNL     1      44.345  -9.959   9.339  1.00  0.00     0.099 A 
HETATM   22  N   UNL     1      45.575 -10.485   9.419  1.00  0.00    -0.174 NA
HETATM   23  N   UNL     1      45.877 -10.886   8.182  1.00  0.00    -0.288 N 
HETATM   24  H   UNL     1      46.753 -11.384   8.033  1.00  0.00     0.188 HD
HETATM   25  C   UNL     1      44.937 -10.519   7.267  1.00  0.00     0.120 A 
BRANCH  21  26
HETATM   26  C   UNL     1      43.686  -9.509  10.565  1.00  0.00     0.034 A 
HETATM   27  C   UNL     1      43.357  -8.168  10.783  1.00  0.00     0.129 A 
HETATM   28  F   UNL     1      43.686  -7.229   9.886  1.00  0.00    -0.205 F 
HETATM   29  C   UNL     1      42.673  -7.764  11.929  1.00  0.00     0.043 A 
HETATM   30  C   UNL     1      42.296  -8.710  12.880  1.00  0.00     0.003 A 
HETATM   31  C   UNL     1      42.607 -10.054  12.681  1.00  0.00     0.001 A 
HETATM   32  C   UNL     1      43.295 -10.451  11.531  1.00  0.00     0.017 A 
ENDBRANCH  21  26
ENDBRANCH  19  20
ENDBRANCH   1  19
TORSDOF 5
ENDMDL
MODEL 10
REMARK VINA RESULT:      -7.6      3.459      8.312
REMARK  5 active torsions:
REMARK  status: ('A' for Active; 'I' for Inactive)
REMARK    1  A    between atoms: C_8  and  N_9 
REMARK    2  A    between atoms: C_12  and  N_13 
REMARK    3  A    between atoms: N_13  and  C_15 
REMARK    4  A    between atoms: C_15  and  C_16 
REMARK    5  A    between atoms: C_17  and  C_18 
ROOT
HETATM    1  N   UNL     1      40.238 -11.899   0.816  1.00  0.00    -0.067 N 
HETATM    2  H   UNL     1      40.946 -12.576   0.509  1.00  0.00     0.280 HD
HETATM    3  C   UNL     1      40.728 -10.535   0.380  1.00  0.00     0.270 C 
ENDROOT
BRANCH   1   4
HETATM    4  C   UNL     1      40.002 -12.051   2.333  1.00  0.00     0.190 C 
HETATM    5  C   UNL     1      39.321 -13.392   2.654  1.00  0.00     0.048 C 
HETATM    6  C   UNL     1      40.278 -14.584   2.605  1.00  0.00     0.099 C 
HETATM    7  N   UNL     1      41.433 -14.313   3.470  1.00  0.00    -0.268 NA
HETATM    8  C   UNL     1      42.198 -13.115   3.109  1.00  0.00     0.099 C 
HETATM    9  C   UNL     1      41.275 -11.902   3.183  1.00  0.00     0.048 C 
BRANCH   7  10
HETATM   10  C   UNL     1      42.207 -15.443   3.778  1.00  0.00     0.109 A 
HETATM   11  N   UNL     1      42.976 -15.442   4.882  1.00  0.00    -0.224 NA
HETATM   12  C   UNL     1      43.767 -16.520   5.114  1.00  0.00     0.102 A 
HETATM   13  N   UNL     1      43.824 -17.578   4.295  1.00  0.00    -0.348 N 
HETATM   14  C   UNL     1      44.650 -16.499   6.321  1.00  0.00     0.091 C 
HETATM   15  C   UNL     1      43.070 -17.612   3.186  1.00  0.00     0.009 A 
HETATM   16  H   UNL     1      44.455 -18.348   4.515  1.00  0.00     0.167 HD
HETATM   17  C   UNL     1      43.163 -18.794   2.278  1.00  0.00     0.068 C 
HETATM   18  C   UNL     1      42.238 -16.526   2.905  1.00  0.00     0.069 A 
ENDBRANCH   7  10
ENDBRANCH   1   4
BRANCH   1  19
HETATM   19  C   UNL     1      38.964 -12.252   0.025  1.00  0.00     0.277 C 
BRANCH  19  20
HETATM   20  C   UNL     1      39.216 -13.034  -1.211  1.00  0.00     0.016 A 
HETATM   21  C   UNL     1      39.425 -12.584  -2.556  1.00  0.00     0.099 A 
HETATM   22  N   UNL     1      39.502 -13.632  -3.388  1.00  0.00    -0.174 NA
HETATM   23  N   UNL     1      39.499 -14.714  -2.607  1.00  0.00    -0.288 N 
HETATM   24  H   UNL     1      39.623 -15.627  -3.041  1.00  0.00     0.188 HD
HETATM   25  C   UNL     1      39.289 -14.414  -1.296  1.00  0.00     0.120 A 
BRANCH  21  26
HETATM   26  C   UNL     1      39.503 -11.232  -3.109  1.00  0.00     0.034 A 
HETATM   27  C   UNL     1      38.368 -10.435  -3.284  1.00  0.00     0.129 A 
HETATM   28  F   UNL     1      37.148 -10.907  -2.994  1.00  0.00    -0.205 F 
HETATM   29  C   UNL     1      38.466  -9.125  -3.754  1.00  0.00     0.043 A 
HETATM   30  C   UNL     1      39.716  -8.587  -4.051  1.00  0.00     0.003 A 
HETATM   31  C   UNL     1      40.862  -9.362  -3.879  1.00  0.00     0.001 A 
HETATM   32  C   UNL     1      40.756 -10.674  -3.409  1.00  0.00     0.017 A 
ENDBRANCH  21  26
ENDBRANCH  19  20
ENDBRANCH   1  19
TORSDOF 5
ENDMDL
