MODEL 1
REMARK VINA RESULT:      -9.7      0.000      0.000
REMARK  6 active torsions:
REMARK  status: ('A' for Active; 'I' for Inactive)
REMARK    1  A    between atoms: C_2  and  C_3 
REMARK    2  A    between atoms: C_3  and  C_4 
REMARK    3  A    between atoms: N_7  and  C_9 
REMARK    4  A    between atoms: C_9  and  C_10 
REMARK    5  A    between atoms: N_23  and  C_24 
REMARK    6  A    between atoms: C_24  and  C_25 
ROOT
HETATM    1  C   UNL     1      40.954 -12.608   4.964  1.00  0.00     0.119 C 
HETATM    2  N   UNL     1      42.337 -12.528   4.521  1.00  0.00    -0.324 N 
HETATM    3  C   UNL     1      42.441 -11.922   3.284  1.00  0.00     0.326 C 
HETATM    4  O   UNL     1      43.515 -11.610   2.804  1.00  0.00    -0.247 OA
HETATM    5  N   UNL     1      41.201 -11.768   2.764  1.00  0.00    -0.264 N 
HETATM    6  C   UNL     1      40.251 -12.181   3.652  1.00  0.00     0.257 C 
HETATM    7  O   UNL     1      39.044 -12.211   3.466  1.00  0.00    -0.270 OA
HETATM    8  H   UNL     1      43.120 -12.337   5.136  1.00  0.00     0.165 HD
ENDROOT
BRANCH   1   9
HETATM    9  C   UNL     1      40.727 -11.509   6.031  1.00  0.00     0.037 C 
HETATM   10  C   UNL     1      39.318 -11.423   6.601  1.00  0.00     0.008 C 
ENDBRANCH   1   9
BRANCH   1  11
HETATM   11  C   UNL     1      40.537 -14.052   5.389  1.00  0.00     0.026 C 
HETATM   12  C   UNL     1      41.436 -14.677   6.469  1.00  0.00     0.035 C 
HETATM   13  C   UNL     1      42.766 -15.213   5.951  1.00  0.00     0.235 C 
HETATM   14  N   UNL     1      42.551 -16.180   4.813  1.00  0.00    -0.067 N 
HETATM   15  H   UNL     1      42.053 -16.993   5.199  1.00  0.00     0.280 HD
HETATM   16  C   UNL     1      41.701 -15.613   3.697  1.00  0.00     0.235 C 
HETATM   17  C   UNL     1      40.388 -15.073   4.241  1.00  0.00     0.035 C 
BRANCH  14  18
HETATM   18  C   UNL     1      43.852 -16.713   4.227  1.00  0.00     0.273 C 
BRANCH  18  19
HETATM   19  C   UNL     1      43.872 -18.195   3.969  1.00  0.00    -0.027 A 
HETATM   20  C   UNL     1      43.587 -18.719   2.700  1.00  0.00     0.051 A 
HETATM   21  C   UNL     1      43.590 -20.100   2.498  1.00  0.00     0.119 A 
HETATM   22  F   UNL     1      43.309 -20.577   1.280  1.00  0.00    -0.206 F 
HETATM   23  C   UNL     1      43.866 -20.982   3.532  1.00  0.00     0.084 A 
HETATM   24  C   UNL     1      44.150 -20.464   4.786  1.00  0.00     0.119 A 
HETATM   25  F   UNL     1      44.412 -21.294   5.802  1.00  0.00    -0.206 F 
HETATM   26  C   UNL     1      44.157 -19.090   5.014  1.00  0.00     0.051 A 
ENDBRANCH  18  19
ENDBRANCH  14  18
ENDBRANCH   1  11
BRANCH   5  27
HETATM   27  C   UNL     1      40.929 -11.222   1.453  1.00  0.00     0.175 C 
BRANCH  27  28
HETATM   28  C   UNL     1      40.385 -12.278   0.517  1.00  0.00    -0.037 A 
HETATM   29  C   UNL     1      39.419 -11.940  -0.445  1.00  0.00     0.048 A 
HETATM   30  C   UNL     1      38.970 -12.934  -1.289  1.00  0.00     0.105 A 
HETATM   31  C   UNL     1      39.428 -14.227  -1.196  1.00  0.00     0.105 A 
HETATM   32  O   UNL     1      38.057 -12.778  -2.285  1.00  0.00    -0.323 OA
HETATM   33  O   UNL     1      38.863 -15.044  -2.124  1.00  0.00    -0.323 OA
HETATM   34  C   UNL     1      40.355 -14.603  -0.251  1.00  0.00     0.040 A 
HETATM   35  C   UNL     1      38.068 -14.097  -2.871  1.00  0.00     0.352 A 
HETATM   36  C   UNL     1      40.836 -13.615   0.616  1.00  0.00     0.012 A 
ENDBRANCH  27  28
ENDBRANCH   5  27
TORSDOF 6
ENDMDL
MODEL 2
REMARK VINA RESULT:      -9.7      0.072      1.409
REMARK  6 active torsions:
REMARK  status: ('A' for Active; 'I' for Inactive)
REMARK    1  A    between atoms: C_2  and  C_3 
REMARK    2  A    between atoms: C_3  and  C_4 
REMARK    3  A    between atoms: N_7  and  C_9 
REMARK    4  A    between atoms: C_9  and  C_10 
REMARK    5  A    between atoms: N_23  and  C_24 
REMARK    6  A    between atoms: C_24  and  C_25 
ROOT
HETATM    1  C   UNL     1      40.951 -12.560   4.946  1.00  0.00     0.119 C 
HETATM    2  N   UNL     1      42.338 -12.496   4.514  1.00  0.00    -0.324 N 
HETATM    3  C   UNL     1      42.459 -11.888   3.280  1.00  0.00     0.326 C 
HETATM    4  O   UNL     1      43.541 -11.588   2.809  1.00  0.00    -0.247 OA
HETATM    5  N   UNL     1      41.225 -11.718   2.750  1.00  0.00    -0.264 N 
HETATM    6  C   UNL     1      40.264 -12.122   3.630  1.00  0.00     0.257 C 
HETATM    7  O   UNL     1      39.058 -12.136   3.434  1.00  0.00    -0.270 OA
HETATM    8  H   UNL     1      43.119 -12.316   5.136  1.00  0.00     0.165 HD
ENDROOT
BRANCH   1   9
HETATM    9  C   UNL     1      40.729 -11.461   6.015  1.00  0.00     0.037 C 
HETATM   10  C   UNL     1      39.340 -11.416   6.637  1.00  0.00     0.008 C 
ENDBRANCH   1   9
BRANCH   1  11
HETATM   11  C   UNL     1      40.513 -14.000   5.365  1.00  0.00     0.026 C 
HETATM   12  C   UNL     1      41.403 -14.643   6.441  1.00  0.00     0.035 C 
HETATM   13  C   UNL     1      42.724 -15.197   5.920  1.00  0.00     0.235 C 
HETATM   14  N   UNL     1      42.495 -16.155   4.777  1.00  0.00    -0.067 N 
HETATM   15  H   UNL     1      41.985 -16.961   5.159  1.00  0.00     0.280 HD
HETATM   16  C   UNL     1      41.652 -15.570   3.665  1.00  0.00     0.235 C 
HETATM   17  C   UNL     1      40.348 -15.013   4.212  1.00  0.00     0.035 C 
BRANCH  14  18
HETATM   18  C   UNL     1      43.787 -16.704   4.187  1.00  0.00     0.273 C 
BRANCH  18  19
HETATM   19  C   UNL     1      43.804 -18.193   3.972  1.00  0.00    -0.027 A 
HETATM   20  C   UNL     1      44.097 -19.078   5.019  1.00  0.00     0.051 A 
HETATM   21  C   UNL     1      44.130 -20.454   4.781  1.00  0.00     0.119 A 
HETATM   22  F   UNL     1      44.418 -21.279   5.794  1.00  0.00    -0.206 F 
HETATM   23  C   UNL     1      43.882 -20.976   3.521  1.00  0.00     0.084 A 
HETATM   24  C   UNL     1      43.590 -20.102   2.487  1.00  0.00     0.119 A 
HETATM   25  F   UNL     1      43.355 -20.580   1.260  1.00  0.00    -0.206 F 
HETATM   26  C   UNL     1      43.548 -18.725   2.697  1.00  0.00     0.051 A 
ENDBRANCH  18  19
ENDBRANCH  14  18
ENDBRANCH   1  11
BRANCH   5  27
HETATM   27  C   UNL     1      40.970 -11.167   1.439  1.00  0.00     0.175 C 
BRANCH  27  28
HETATM   28  C   UNL     1      40.405 -12.209   0.501  1.00  0.00    -0.037 A 
HETATM   29  C   UNL     1      39.405 -11.862  -0.421  1.00  0.00     0.048 A 
HETATM   30  C   UNL     1      38.936 -12.843  -1.269  1.00  0.00     0.105 A 
HETATM   31  C   UNL     1      39.408 -14.134  -1.217  1.00  0.00     0.105 A 
HETATM   32  O   UNL     1      37.989 -12.677  -2.231  1.00  0.00    -0.323 OA
HETATM   33  O   UNL     1      38.820 -14.938  -2.142  1.00  0.00    -0.323 OA
HETATM   34  C   UNL     1      40.370 -14.519  -0.311  1.00  0.00     0.040 A 
HETATM   35  C   UNL     1      37.992 -13.984  -2.842  1.00  0.00     0.352 A 
HETATM   36  C   UNL     1      40.871 -13.544   0.558  1.00  0.00     0.012 A 
ENDBRANCH  27  28
ENDBRANCH   5  27
TORSDOF 6
ENDMDL
MODEL 3
REMARK VINA RESULT:      -9.6      2.597      5.952
REMARK  6 active torsions:
REMARK  status: ('A' for Active; 'I' for Inactive)
REMARK    1  A    between atoms: C_2  and  C_3 
REMARK    2  A    between atoms: C_3  and  C_4 
REMARK    3  A    between atoms: N_7  and  C_9 
REMARK    4  A    between atoms: C_9  and  C_10 
REMARK    5  A    between atoms: N_23  and  C_24 
REMARK    6  A    between atoms: C_24  and  C_25 
ROOT
HETATM    1  C   UNL     1      40.227 -13.035   3.012  1.00  0.00     0.119 C 
HETATM    2  N   UNL     1      39.946 -13.857   4.178  1.00  0.00    -0.324 N 
HETATM    3  C   UNL     1      40.019 -13.126   5.347  1.00  0.00     0.326 C 
HETATM    4  O   UNL     1      39.663 -13.579   6.419  1.00  0.00    -0.247 OA
HETATM    5  N   UNL     1      40.533 -11.904   5.070  1.00  0.00    -0.264 N 
HETATM    6  C   UNL     1      40.735 -11.760   3.729  1.00  0.00     0.257 C 
HETATM    7  O   UNL     1      41.225 -10.792   3.166  1.00  0.00    -0.270 OA
HETATM    8  H   UNL     1      39.247 -14.592   4.200  1.00  0.00     0.165 HD
ENDROOT
BRANCH   1   9
HETATM    9  C   UNL     1      38.882 -12.714   2.316  1.00  0.00     0.037 C 
HETATM   10  C   UNL     1      38.988 -12.137   0.910  1.00  0.00     0.008 C 
ENDBRANCH   1   9
BRANCH   1  11
HETATM   11  C   UNL     1      41.330 -13.647   2.091  1.00  0.00     0.026 C 
HETATM   12  C   UNL     1      41.123 -15.135   1.761  1.00  0.00     0.035 C 
HETATM   13  C   UNL     1      41.526 -16.091   2.878  1.00  0.00     0.235 C 
HETATM   14  N   UNL     1      42.946 -15.836   3.322  1.00  0.00    -0.067 N 
HETATM   15  H   UNL     1      43.554 -16.065   2.525  1.00  0.00     0.280 HD
HETATM   16  C   UNL     1      43.208 -14.393   3.694  1.00  0.00     0.235 C 
HETATM   17  C   UNL     1      42.785 -13.461   2.571  1.00  0.00     0.035 C 
BRANCH  14  18
HETATM   18  C   UNL     1      43.386 -16.735   4.469  1.00  0.00     0.273 C 
BRANCH  18  19
HETATM   19  C   UNL     1      43.616 -18.175   4.096  1.00  0.00    -0.027 A 
HETATM   20  C   UNL     1      43.471 -18.618   2.774  1.00  0.00     0.051 A 
HETATM   21  C   UNL     1      43.668 -19.965   2.464  1.00  0.00     0.119 A 
HETATM   22  F   UNL     1      43.518 -20.366   1.197  1.00  0.00    -0.206 F 
HETATM   23  C   UNL     1      44.002 -20.891   3.441  1.00  0.00     0.084 A 
HETATM   24  C   UNL     1      44.148 -20.452   4.747  1.00  0.00     0.119 A 
HETATM   25  F   UNL     1      44.463 -21.327   5.709  1.00  0.00    -0.206 F 
HETATM   26  C   UNL     1      43.961 -19.113   5.084  1.00  0.00     0.051 A 
ENDBRANCH  18  19
ENDBRANCH  14  18
ENDBRANCH   1  11
BRANCH   5  27
HETATM   27  C   UNL     1      40.809 -10.892   6.064  1.00  0.00     0.175 C 
BRANCH  27  28
HETATM   28  C   UNL     1      42.265 -10.897   6.469  1.00  0.00    -0.037 A 
HETATM   29  C   UNL     1      42.806  -9.811   7.176  1.00  0.00     0.048 A 
HETATM   30  C   UNL     1      44.135  -9.872   7.540  1.00  0.00     0.105 A 
HETATM   31  C   UNL     1      44.928 -10.946   7.215  1.00  0.00     0.105 A 
HETATM   32  O   UNL     1      44.811  -8.923   8.241  1.00  0.00    -0.323 OA
HETATM   33  O   UNL     1      46.200 -10.809   7.674  1.00  0.00    -0.323 OA
HETATM   34  C   UNL     1      44.441 -12.019   6.502  1.00  0.00     0.040 A 
HETATM   35  C   UNL     1      46.091  -9.568   8.406  1.00  0.00     0.352 A 
HETATM   36  C   UNL     1      43.095 -11.990   6.124  1.00  0.00     0.012 A 
ENDBRANCH  27  28
ENDBRANCH   5  27
TORSDOF 6
ENDMDL
MODEL 4
REMARK VINA RESULT:      -9.6      4.071      7.650
REMARK  6 active torsions:
REMARK  status: ('A' for Active; 'I' for Inactive)
REMARK    1  A    between atoms: C_2  and  C_3 
REMARK    2  A    between atoms: C_3  and  C_4 
REMARK    3  A    between atoms: N_7  and  C_9 
REMARK    4  A    between atoms: C_9  and  C_10 
REMARK    5  A    between atoms: N_23  and  C_24 
REMARK    6  A    between atoms: C_24  and  C_25 
ROOT
HETATM    1  C   UNL     1      43.025 -12.064   6.175  1.00  0.00     0.119 C 
HETATM    2  N   UNL     1      41.966 -11.154   5.769  1.00  0.00    -0.324 N 
HETATM    3  C   UNL     1      42.093  -9.920   6.376  1.00  0.00     0.326 C 
HETATM    4  O   UNL     1      41.410  -8.966   6.054  1.00  0.00    -0.247 OA
HETATM    5  N   UNL     1      43.053  -9.996   7.328  1.00  0.00    -0.264 N 
HETATM    6  C   UNL     1      43.637 -11.228   7.327  1.00  0.00     0.257 C 
HETATM    7  O   UNL     1      44.504 -11.624   8.091  1.00  0.00    -0.270 OA
HETATM    8  H   UNL     1      41.585 -11.109   4.830  1.00  0.00     0.165 HD
ENDROOT
BRANCH   1   9
HETATM    9  C   UNL     1      44.053 -12.151   5.021  1.00  0.00     0.037 C 
HETATM   10  C   UNL     1      43.562 -11.672   3.661  1.00  0.00     0.008 C 
ENDBRANCH   1   9
BRANCH   1  11
HETATM   11  C   UNL     1      42.481 -13.433   6.693  1.00  0.00     0.026 C 
HETATM   12  C   UNL     1      43.552 -14.529   6.824  1.00  0.00     0.035 C 
HETATM   13  C   UNL     1      43.948 -15.186   5.507  1.00  0.00     0.235 C 
HETATM   14  N   UNL     1      42.735 -15.710   4.779  1.00  0.00    -0.067 N 
HETATM   15  H   UNL     1      42.340 -16.463   5.357  1.00  0.00     0.280 HD
HETATM   16  C   UNL     1      41.654 -14.669   4.586  1.00  0.00     0.235 C 
HETATM   17  C   UNL     1      41.288 -14.021   5.911  1.00  0.00     0.035 C 
BRANCH  14  18
HETATM   18  C   UNL     1      43.069 -16.337   3.432  1.00  0.00     0.273 C 
BRANCH  18  19
HETATM   19  C   UNL     1      43.334 -17.818   3.467  1.00  0.00    -0.027 A 
HETATM   20  C   UNL     1      43.766 -18.453   4.640  1.00  0.00     0.051 A 
HETATM   21  C   UNL     1      44.027 -19.825   4.635  1.00  0.00     0.119 A 
HETATM   22  F   UNL     1      44.445 -20.409   5.764  1.00  0.00    -0.206 F 
HETATM   23  C   UNL     1      43.873 -20.587   3.486  1.00  0.00     0.084 A 
HETATM   24  C   UNL     1      43.442 -19.959   2.328  1.00  0.00     0.119 A 
HETATM   25  F   UNL     1      43.293 -20.669   1.205  1.00  0.00    -0.206 F 
HETATM   26  C   UNL     1      43.172 -18.592   2.306  1.00  0.00     0.051 A 
ENDBRANCH  18  19
ENDBRANCH  14  18
ENDBRANCH   1  11
BRANCH   5  27
HETATM   27  C   UNL     1      43.415  -8.908   8.208  1.00  0.00     0.175 C 
BRANCH  27  28
HETATM   28  C   UNL     1      42.895  -9.134   9.610  1.00  0.00    -0.037 A 
HETATM   29  C   UNL     1      41.542  -9.444   9.820  1.00  0.00     0.048 A 
HETATM   30  C   UNL     1      41.121  -9.663  11.115  1.00  0.00     0.105 A 
HETATM   31  C   UNL     1      41.981  -9.568  12.184  1.00  0.00     0.105 A 
HETATM   32  O   UNL     1      39.857  -9.991  11.495  1.00  0.00    -0.323 OA
HETATM   33  O   UNL     1      41.366  -9.828  13.368  1.00  0.00    -0.323 OA
HETATM   34  C   UNL     1      43.308  -9.243  12.021  1.00  0.00     0.040 A 
HETATM   35  C   UNL     1      40.043 -10.188  12.913  1.00  0.00     0.352 A 
HETATM   36  C   UNL     1      43.768  -9.022  10.718  1.00  0.00     0.012 A 
ENDBRANCH  27  28
ENDBRANCH   5  27
TORSDOF 6
ENDMDL
MODEL 5
REMARK VINA RESULT:      -9.3      4.608      7.569
REMARK  6 active torsions:
REMARK  status: ('A' for Active; 'I' for Inactive)
REMARK    1  A    between atoms: C_2  and  C_3 
REMARK    2  A    between atoms: C_3  and  C_4 
REMARK    3  A    between atoms: N_7  and  C_9 
REMARK    4  A    between atoms: C_9  and  C_10 
REMARK    5  A    between atoms: N_23  and  C_24 
REMARK    6  A    between atoms: C_24  and  C_25 
ROOT
HETATM    1  C   UNL     1      40.629 -13.703   3.465  1.00  0.00     0.119 C 
HETATM    2  N   UNL     1      41.921 -13.149   3.094  1.00  0.00    -0.324 N 
HETATM    3  C   UNL     1      42.642 -14.022   2.304  1.00  0.00     0.326 C 
HETATM    4  O   UNL     1      43.676 -13.695   1.752  1.00  0.00    -0.247 OA
HETATM    5  N   UNL     1      42.009 -15.219   2.282  1.00  0.00    -0.264 N 
HETATM    6  C   UNL     1      40.834 -15.156   2.972  1.00  0.00     0.257 C 
HETATM    7  O   UNL     1      40.057 -16.077   3.173  1.00  0.00    -0.270 OA
HETATM    8  H   UNL     1      42.077 -12.172   2.869  1.00  0.00     0.165 HD
ENDROOT
BRANCH   1   9
HETATM    9  C   UNL     1      39.546 -13.027   2.588  1.00  0.00     0.037 C 
HETATM   10  C   UNL     1      39.893 -11.639   2.064  1.00  0.00     0.008 C 
ENDBRANCH   1   9
BRANCH   1  11
HETATM   11  C   UNL     1      40.370 -13.655   5.005  1.00  0.00     0.026 C 
HETATM   12  C   UNL     1      40.621 -12.280   5.646  1.00  0.00     0.035 C 
HETATM   13  C   UNL     1      42.091 -11.953   5.884  1.00  0.00     0.235 C 
HETATM   14  N   UNL     1      42.764 -13.043   6.681  1.00  0.00    -0.067 N 
HETATM   15  H   UNL     1      42.326 -13.049   7.611  1.00  0.00     0.280 HD
HETATM   16  C   UNL     1      42.584 -14.421   6.083  1.00  0.00     0.235 C 
HETATM   17  C   UNL     1      41.113 -14.717   5.843  1.00  0.00     0.035 C 
BRANCH  14  18
HETATM   18  C   UNL     1      44.248 -12.789   6.909  1.00  0.00     0.273 C 
BRANCH  18  19
HETATM   19  C   UNL     1      44.569 -11.520   7.652  1.00  0.00    -0.027 A 
HETATM   20  C   UNL     1      45.707 -10.762   7.343  1.00  0.00     0.051 A 
HETATM   21  C   UNL     1      45.991  -9.603   8.068  1.00  0.00     0.119 A 
HETATM   22  F   UNL     1      47.086  -8.898   7.760  1.00  0.00    -0.206 F 
HETATM   23  C   UNL     1      45.170  -9.176   9.100  1.00  0.00     0.084 A 
HETATM   24  C   UNL     1      44.043  -9.924   9.403  1.00  0.00     0.119 A 
HETATM   25  F   UNL     1      43.239  -9.538  10.400  1.00  0.00    -0.206 F 
HETATM   26  C   UNL     1      43.735 -11.083   8.695  1.00  0.00     0.051 A 
ENDBRANCH  18  19
ENDBRANCH  14  18
ENDBRANCH   1  11
BRANCH   5  27
HETATM   27  C   UNL     1      42.509 -16.393   1.603  1.00  0.00     0.175 C 
BRANCH  27  28
HETATM   28  C   UNL     1      43.051 -17.409   2.581  1.00  0.00    -0.037 A 
HETATM   29  C   UNL     1      43.025 -18.778   2.267  1.00  0.00     0.048 A 
HETATM   30  C   UNL     1      43.550 -19.664   3.183  1.00  0.00     0.105 A 
HETATM   31  C   UNL     1      44.072 -19.242   4.384  1.00  0.00     0.105 A 
HETATM   32  O   UNL     1      43.624 -21.013   3.032  1.00  0.00    -0.323 OA
HETATM   33  O   UNL     1      44.542 -20.274   5.135  1.00  0.00    -0.323 OA
HETATM   34  C   UNL     1      44.094 -17.913   4.739  1.00  0.00     0.040 A 
HETATM   35  C   UNL     1      44.341 -21.381   4.230  1.00  0.00     0.352 A 
HETATM   36  C   UNL     1      43.574 -16.988   3.827  1.00  0.00     0.012 A 
ENDBRANCH  27  28
ENDBRANCH   5  27
TORSDOF 6
ENDMDL
MODEL 6
REMARK VINA RESULT:      -9.2      3.671      7.435
REMARK  6 active torsions:
REMARK  status: ('A' for Active; 'I' for Inactive)
REMARK    1  A    between atoms: C_2  and  C_3 
REMARK    2  A    between atoms: C_3  and  C_4 
REMARK    3  A    between atoms: N_7  and  C_9 
REMARK    4  A    between atoms: C_9  and  C_10 
REMARK    5  A    between atoms: N_23  and  C_24 
REMARK    6  A    between atoms: C_24  and  C_25 
ROOT
HETATM    1  C   UNL     1      42.275 -11.923   5.606  1.00  0.00     0.119 C 
HETATM    2  N   UNL     1      41.000 -12.620   5.532  1.00  0.00    -0.324 N 
HETATM    3  C   UNL     1      41.024 -13.803   6.243  1.00  0.00     0.326 C 
HETATM    4  O   UNL     1      40.018 -14.458   6.445  1.00  0.00    -0.247 OA
HETATM    5  N   UNL     1      42.296 -14.059   6.629  1.00  0.00    -0.264 N 
HETATM    6  C   UNL     1      43.124 -13.037   6.266  1.00  0.00     0.257 C 
HETATM    7  O   UNL     1      44.333 -12.986   6.432  1.00  0.00    -0.270 OA
HETATM    8  H   UNL     1      40.098 -12.156   5.541  1.00  0.00     0.165 HD
ENDROOT
BRANCH   1   9
HETATM    9  C   UNL     1      42.124 -10.752   6.608  1.00  0.00     0.037 C 
HETATM   10  C   UNL     1      40.709 -10.220   6.794  1.00  0.00     0.008 C 
ENDBRANCH   1   9
BRANCH   1  11
HETATM   11  C   UNL     1      42.836 -11.536   4.201  1.00  0.00     0.026 C 
HETATM   12  C   UNL     1      41.911 -10.621   3.381  1.00  0.00     0.035 C 
HETATM   13  C   UNL     1      40.742 -11.338   2.716  1.00  0.00     0.235 C 
HETATM   14  N   UNL     1      41.226 -12.496   1.877  1.00  0.00    -0.067 N 
HETATM   15  H   UNL     1      41.783 -12.099   1.110  1.00  0.00     0.280 HD
HETATM   16  C   UNL     1      42.116 -13.456   2.637  1.00  0.00     0.235 C 
HETATM   17  C   UNL     1      43.264 -12.715   3.302  1.00  0.00     0.035 C 
BRANCH  14  18
HETATM   18  C   UNL     1      40.093 -13.277   1.225  1.00  0.00     0.273 C 
BRANCH  18  19
HETATM   19  C   UNL     1      40.139 -13.326  -0.278  1.00  0.00    -0.027 A 
HETATM   20  C   UNL     1      40.763 -12.315  -1.022  1.00  0.00     0.051 A 
HETATM   21  C   UNL     1      40.767 -12.376  -2.417  1.00  0.00     0.119 A 
HETATM   22  F   UNL     1      41.364 -11.397  -3.107  1.00  0.00    -0.206 F 
HETATM   23  C   UNL     1      40.159 -13.420  -3.098  1.00  0.00     0.084 A 
HETATM   24  C   UNL     1      39.543 -14.420  -2.362  1.00  0.00     0.119 A 
HETATM   25  F   UNL     1      38.942 -15.434  -2.994  1.00  0.00    -0.206 F 
HETATM   26  C   UNL     1      39.527 -14.386  -0.969  1.00  0.00     0.051 A 
ENDBRANCH  18  19
ENDBRANCH  14  18
ENDBRANCH   1  11
BRANCH   5  27
HETATM   27  C   UNL     1      42.708 -15.247   7.343  1.00  0.00     0.175 C 
BRANCH  27  28
HETATM   28  C   UNL     1      43.109 -16.351   6.392  1.00  0.00    -0.037 A 
HETATM   29  C   UNL     1      43.240 -17.671   6.856  1.00  0.00     0.048 A 
HETATM   30  C   UNL     1      43.588 -18.646   5.946  1.00  0.00     0.105 A 
HETATM   31  C   UNL     1      43.820 -18.355   4.623  1.00  0.00     0.105 A 
HETATM   32  O   UNL     1      43.737 -19.970   6.219  1.00  0.00    -0.323 OA
HETATM   33  O   UNL     1      44.142 -19.460   3.898  1.00  0.00    -0.323 OA
HETATM   34  C   UNL     1      43.726 -17.072   4.135  1.00  0.00     0.040 A 
HETATM   35  C   UNL     1      43.993 -20.492   4.898  1.00  0.00     0.352 A 
HETATM   36  C   UNL     1      43.368 -16.060   5.032  1.00  0.00     0.012 A 
ENDBRANCH  27  28
ENDBRANCH   5  27
TORSDOF 6
ENDMDL
MODEL 7
REMARK VINA RESULT:      -9.1      3.283      6.744
REMARK  6 active torsions:
REMARK  status: ('A' for Active; 'I' for Inactive)
REMARK    1  A    between atoms: C_2  and  C_3 
REMARK    2  A    between atoms: C_3  and  C_4 
REMARK    3  A    between atoms: N_7  and  C_9 
REMARK    4  A    between atoms: C_9  and  C_10 
REMARK    5  A    between atoms: N_23  and  C_24 
REMARK    6  A    between atoms: C_24  and  C_25 
ROOT
HETATM    1  C   UNL     1      41.168 -13.574   4.692  1.00  0.00     0.119 C 
HETATM    2  N   UNL     1      42.325 -14.346   5.117  1.00  0.00    -0.324 N 
HETATM    3  C   UNL     1      43.307 -13.539   5.657  1.00  0.00     0.326 C 
HETATM    4  O   UNL     1      44.285 -13.996   6.218  1.00  0.00    -0.247 OA
HETATM    5  N   UNL     1      42.979 -12.244   5.440  1.00  0.00    -0.264 N 
HETATM    6  C   UNL     1      41.759 -12.150   4.838  1.00  0.00     0.257 C 
HETATM    7  O   UNL     1      41.204 -11.124   4.474  1.00  0.00    -0.270 OA
HETATM    8  H   UNL     1      42.269 -15.264   5.547  1.00  0.00     0.165 HD
ENDROOT
BRANCH   1   9
HETATM    9  C   UNL     1      40.052 -13.761   5.748  1.00  0.00     0.037 C 
HETATM   10  C   UNL     1      40.133 -15.037   6.576  1.00  0.00     0.008 C 
ENDBRANCH   1   9
BRANCH   1  11
HETATM   11  C   UNL     1      40.752 -13.868   3.216  1.00  0.00     0.026 C 
HETATM   12  C   UNL     1      40.233 -15.297   2.979  1.00  0.00     0.035 C 
HETATM   13  C   UNL     1      41.324 -16.357   2.882  1.00  0.00     0.235 C 
HETATM   14  N   UNL     1      42.349 -15.983   1.840  1.00  0.00    -0.067 N 
HETATM   15  H   UNL     1      41.869 -15.992   0.931  1.00  0.00     0.280 HD
HETATM   16  C   UNL     1      42.926 -14.598   2.036  1.00  0.00     0.235 C 
HETATM   17  C   UNL     1      41.819 -13.563   2.144  1.00  0.00     0.035 C 
BRANCH  14  18
HETATM   18  C   UNL     1      43.488 -16.988   1.733  1.00  0.00     0.273 C 
BRANCH  18  19
HETATM   19  C   UNL     1      43.653 -17.890   2.925  1.00  0.00    -0.027 A 
HETATM   20  C   UNL     1      43.817 -17.371   4.217  1.00  0.00     0.051 A 
HETATM   21  C   UNL     1      43.993 -18.234   5.300  1.00  0.00     0.119 A 
HETATM   22  F   UNL     1      44.154 -17.715   6.523  1.00  0.00    -0.206 F 
HETATM   23  C   UNL     1      44.015 -19.610   5.132  1.00  0.00     0.084 A 
HETATM   24  C   UNL     1      43.851 -20.124   3.855  1.00  0.00     0.119 A 
HETATM   25  F   UNL     1      43.876 -21.448   3.664  1.00  0.00    -0.206 F 
HETATM   26  C   UNL     1      43.670 -19.285   2.757  1.00  0.00     0.051 A 
ENDBRANCH  18  19
ENDBRANCH  14  18
ENDBRANCH   1  11
BRANCH   5  27
HETATM   27  C   UNL     1      43.807 -11.120   5.816  1.00  0.00     0.175 C 
BRANCH  27  28
HETATM   28  C   UNL     1      43.440 -10.598   7.186  1.00  0.00    -0.037 A 
HETATM   29  C   UNL     1      44.104 -11.079   8.327  1.00  0.00     0.048 A 
HETATM   30  C   UNL     1      43.748 -10.556   9.552  1.00  0.00     0.105 A 
HETATM   31  C   UNL     1      42.763  -9.605   9.677  1.00  0.00     0.105 A 
HETATM   32  O   UNL     1      44.298 -10.892  10.750  1.00  0.00    -0.323 OA
HETATM   33  O   UNL     1      42.575  -9.221  10.968  1.00  0.00    -0.323 OA
HETATM   34  C   UNL     1      42.074  -9.126   8.587  1.00  0.00     0.040 A 
HETATM   35  C   UNL     1      43.617  -9.971  11.629  1.00  0.00     0.352 A 
HETATM   36  C   UNL     1      42.417  -9.631   7.328  1.00  0.00     0.012 A 
ENDBRANCH  27  28
ENDBRANCH   5  27
TORSDOF 6
ENDMDL
MODEL 8
REMARK VINA RESULT:      -9.1      4.091      7.650
REMARK  6 active torsions:
REMARK  status: ('A' for Active; 'I' for Inactive)
REMARK    1  A    between atoms: C_2  and  C_3 
REMARK    2  A    between atoms: C_3  and  C_4 
REMARK    3  A    between atoms: N_7  and  C_9 
REMARK    4  A    between atoms: C_9  and  C_10 
REMARK    5  A    between atoms: N_23  and  C_24 
REMARK    6  A    between atoms: C_24  and  C_25 
ROOT
HETATM    1  C   UNL     1      42.904 -11.987   5.636  1.00  0.00     0.119 C 
HETATM    2  N   UNL     1      44.344 -12.068   5.823  1.00  0.00    -0.324 N 
HETATM    3  C   UNL     1      44.789 -11.150   6.755  1.00  0.00     0.326 C 
HETATM    4  O   UNL     1      45.930 -11.158   7.179  1.00  0.00    -0.247 OA
HETATM    5  N   UNL     1      43.773 -10.310   7.064  1.00  0.00    -0.264 N 
HETATM    6  C   UNL     1      42.627 -10.685   6.426  1.00  0.00     0.257 C 
HETATM    7  O   UNL     1      41.551 -10.108   6.464  1.00  0.00    -0.270 OA
HETATM    8  H   UNL     1      44.869 -12.936   5.823  1.00  0.00     0.165 HD
ENDROOT
BRANCH   1   9
HETATM    9  C   UNL     1      42.255 -13.175   6.388  1.00  0.00     0.037 C 
HETATM   10  C   UNL     1      43.223 -14.154   7.038  1.00  0.00     0.008 C 
ENDBRANCH   1   9
BRANCH   1  11
HETATM   11  C   UNL     1      42.496 -11.840   4.135  1.00  0.00     0.026 C 
HETATM   12  C   UNL     1      41.001 -12.073   3.861  1.00  0.00     0.035 C 
HETATM   13  C   UNL     1      40.586 -13.540   3.830  1.00  0.00     0.235 C 
HETATM   14  N   UNL     1      41.434 -14.320   2.855  1.00  0.00    -0.067 N 
HETATM   15  H   UNL     1      41.229 -13.951   1.918  1.00  0.00     0.280 HD
HETATM   16  C   UNL     1      42.920 -14.160   3.092  1.00  0.00     0.235 C 
HETATM   17  C   UNL     1      43.305 -12.691   3.133  1.00  0.00     0.035 C 
BRANCH  14  18
HETATM   18  C   UNL     1      41.092 -15.803   2.817  1.00  0.00     0.273 C 
BRANCH  18  19
HETATM   19  C   UNL     1      42.082 -16.702   3.506  1.00  0.00    -0.027 A 
HETATM   20  C   UNL     1      42.194 -16.728   4.903  1.00  0.00     0.051 A 
HETATM   21  C   UNL     1      43.140 -17.555   5.512  1.00  0.00     0.119 A 
HETATM   22  F   UNL     1      43.234 -17.559   6.847  1.00  0.00    -0.206 F 
HETATM   23  C   UNL     1      43.986 -18.360   4.764  1.00  0.00     0.084 A 
HETATM   24  C   UNL     1      43.873 -18.336   3.383  1.00  0.00     0.119 A 
HETATM   25  F   UNL     1      44.683 -19.096   2.638  1.00  0.00    -0.206 F 
HETATM   26  C   UNL     1      42.936 -17.522   2.749  1.00  0.00     0.051 A 
ENDBRANCH  18  19
ENDBRANCH  14  18
ENDBRANCH   1  11
BRANCH   5  27
HETATM   27  C   UNL     1      43.892  -9.184   7.963  1.00  0.00     0.175 C 
BRANCH  27  28
HETATM   28  C   UNL     1      43.384  -9.525   9.345  1.00  0.00    -0.037 A 
HETATM   29  C   UNL     1      42.105  -9.109   9.751  1.00  0.00     0.048 A 
HETATM   30  C   UNL     1      41.680  -9.463  11.014  1.00  0.00     0.105 A 
HETATM   31  C   UNL     1      42.475 -10.185  11.873  1.00  0.00     0.105 A 
HETATM   32  O   UNL     1      40.470  -9.163  11.558  1.00  0.00    -0.323 OA
HETATM   33  O   UNL     1      41.863 -10.432  13.062  1.00  0.00    -0.323 OA
HETATM   34  C   UNL     1      43.743 -10.589  11.521  1.00  0.00     0.040 A 
HETATM   35  C   UNL     1      40.557  -9.863  12.817  1.00  0.00     0.352 A 
HETATM   36  C   UNL     1      44.201 -10.252  10.243  1.00  0.00     0.012 A 
ENDBRANCH  27  28
ENDBRANCH   5  27
TORSDOF 6
ENDMDL
MODEL 9
REMARK VINA RESULT:      -9.0      3.850      7.559
REMARK  6 active torsions:
REMARK  status: ('A' for Active; 'I' for Inactive)
REMARK    1  A    between atoms: C_2  and  C_3 
REMARK    2  A    between atoms: C_3  and  C_4 
REMARK    3  A    between atoms: N_7  and  C_9 
REMARK    4  A    between atoms: C_9  and  C_10 
REMARK    5  A    between atoms: N_23  and  C_24 
REMARK    6  A    between atoms: C_24  and  C_25 
ROOT
HETATM    1  C   UNL     1      42.128 -13.706   5.020  1.00  0.00     0.119 C 
HETATM    2  N   UNL     1      41.088 -14.697   4.793  1.00  0.00    -0.324 N 
HETATM    3  C   UNL     1      41.354 -15.876   5.461  1.00  0.00     0.326 C 
HETATM    4  O   UNL     1      40.538 -16.776   5.538  1.00  0.00    -0.247 OA
HETATM    5  N   UNL     1      42.610 -15.824   5.963  1.00  0.00    -0.264 N 
HETATM    6  C   UNL     1      43.175 -14.605   5.721  1.00  0.00     0.257 C 
HETATM    7  O   UNL     1      44.311 -14.259   6.009  1.00  0.00    -0.270 OA
HETATM    8  H   UNL     1      40.099 -14.479   4.729  1.00  0.00     0.165 HD
ENDROOT
BRANCH   1   9
HETATM    9  C   UNL     1      41.592 -12.673   6.042  1.00  0.00     0.037 C 
HETATM   10  C   UNL     1      40.081 -12.488   6.064  1.00  0.00     0.008 C 
ENDBRANCH   1   9
BRANCH   1  11
HETATM   11  C   UNL     1      42.691 -13.106   3.692  1.00  0.00     0.026 C 
HETATM   12  C   UNL     1      41.692 -12.227   2.922  1.00  0.00     0.035 C 
HETATM   13  C   UNL     1      40.650 -13.006   2.127  1.00  0.00     0.235 C 
HETATM   14  N   UNL     1      41.308 -14.000   1.202  1.00  0.00    -0.067 N 
HETATM   15  H   UNL     1      41.840 -13.458   0.509  1.00  0.00     0.280 HD
HETATM   16  C   UNL     1      42.281 -14.920   1.906  1.00  0.00     0.235 C 
HETATM   17  C   UNL     1      43.300 -14.121   2.702  1.00  0.00     0.035 C 
BRANCH  14  18
HETATM   18  C   UNL     1      40.310 -14.838   0.415  1.00  0.00     0.273 C 
BRANCH  18  19
HETATM   19  C   UNL     1      39.867 -14.239  -0.892  1.00  0.00    -0.027 A 
HETATM   20  C   UNL     1      39.095 -14.969  -1.805  1.00  0.00     0.051 A 
HETATM   21  C   UNL     1      38.720 -14.393  -3.021  1.00  0.00     0.119 A 
HETATM   22  F   UNL     1      37.988 -15.112  -3.880  1.00  0.00    -0.206 F 
HETATM   23  C   UNL     1      39.100 -13.103  -3.357  1.00  0.00     0.084 A 
HETATM   24  C   UNL     1      39.861 -12.380  -2.453  1.00  0.00     0.119 A 
HETATM   25  F   UNL     1      40.247 -11.135  -2.757  1.00  0.00    -0.206 F 
HETATM   26  C   UNL     1      40.246 -12.929  -1.232  1.00  0.00     0.051 A 
ENDBRANCH  18  19
ENDBRANCH  14  18
ENDBRANCH   1  11
BRANCH   5  27
HETATM   27  C   UNL     1      43.251 -16.908   6.672  1.00  0.00     0.175 C 
BRANCH  27  28
HETATM   28  C   UNL     1      43.445 -18.113   5.780  1.00  0.00    -0.037 A 
HETATM   29  C   UNL     1      43.520 -17.955   4.386  1.00  0.00     0.048 A 
HETATM   30  C   UNL     1      43.719 -19.082   3.617  1.00  0.00     0.105 A 
HETATM   31  C   UNL     1      43.826 -20.334   4.176  1.00  0.00     0.105 A 
HETATM   32  O   UNL     1      43.835 -19.109   2.262  1.00  0.00    -0.323 OA
HETATM   33  O   UNL     1      44.026 -21.303   3.243  1.00  0.00    -0.323 OA
HETATM   34  C   UNL     1      43.733 -20.532   5.535  1.00  0.00     0.040 A 
HETATM   35  C   UNL     1      44.126 -20.506   2.042  1.00  0.00     0.352 A 
HETATM   36  C   UNL     1      43.538 -19.407   6.343  1.00  0.00     0.012 A 
ENDBRANCH  27  28
ENDBRANCH   5  27
TORSDOF 6
ENDMDL
MODEL 10
REMARK VINA RESULT:      -8.9      3.630      7.990
REMARK  6 active torsions:
REMARK  status: ('A' for Active; 'I' for Inactive)
REMARK    1  A    between atoms: C_2  and  C_3 
REMARK    2  A    between atoms: C_3  and  C_4 
REMARK    3  A    between atoms: N_7  and  C_9 
REMARK    4  A    between atoms: C_9  and  C_10 
REMARK    5  A    between atoms: N_23  and  C_24 
REMARK    6  A    between atoms: C_24  and  C_25 
ROOT
HETATM    1  C   UNL     1      40.793 -13.726   2.779  1.00  0.00     0.119 C 
HETATM    2  N   UNL     1      41.954 -13.627   1.909  1.00  0.00    -0.324 N 
HETATM    3  C   UNL     1      43.008 -14.387   2.377  1.00  0.00     0.326 C 
HETATM    4  O   UNL     1      44.015 -14.574   1.719  1.00  0.00    -0.247 OA
HETATM    5  N   UNL     1      42.709 -14.835   3.619  1.00  0.00    -0.264 N 
HETATM    6  C   UNL     1      41.445 -14.466   3.973  1.00  0.00     0.257 C 
HETATM    7  O   UNL     1      40.897 -14.679   5.044  1.00  0.00    -0.270 OA
HETATM    8  H   UNL     1      41.903 -13.581   0.896  1.00  0.00     0.165 HD
ENDROOT
BRANCH   1   9
HETATM    9  C   UNL     1      39.768 -14.672   2.106  1.00  0.00     0.037 C 
HETATM   10  C   UNL     1      40.079 -15.069   0.669  1.00  0.00     0.008 C 
ENDBRANCH   1   9
BRANCH   1  11
HETATM   11  C   UNL     1      40.237 -12.331   3.208  1.00  0.00     0.026 C 
HETATM   12  C   UNL     1      38.742 -12.129   2.912  1.00  0.00     0.035 C 
HETATM   13  C   UNL     1      38.424 -11.807   1.456  1.00  0.00     0.235 C 
HETATM   14  N   UNL     1      39.227 -10.622   0.978  1.00  0.00    -0.067 N 
HETATM   15  H   UNL     1      38.911  -9.807   1.519  1.00  0.00     0.280 HD
HETATM   16  C   UNL     1      40.714 -10.773   1.209  1.00  0.00     0.235 C 
HETATM   17  C   UNL     1      41.003 -11.107   2.663  1.00  0.00     0.035 C 
BRANCH  14  18
HETATM   18  C   UNL     1      38.981 -10.284  -0.487  1.00  0.00     0.273 C 
BRANCH  18  19
HETATM   19  C   UNL     1      38.816 -11.473  -1.394  1.00  0.00    -0.027 A 
HETATM   20  C   UNL     1      39.917 -12.243  -1.794  1.00  0.00     0.051 A 
HETATM   21  C   UNL     1      39.735 -13.326  -2.657  1.00  0.00     0.119 A 
HETATM   22  F   UNL     1      40.801 -14.043  -3.031  1.00  0.00    -0.206 F 
HETATM   23  C   UNL     1      38.479 -13.663  -3.140  1.00  0.00     0.084 A 
HETATM   24  C   UNL     1      37.391 -12.903  -2.742  1.00  0.00     0.119 A 
HETATM   25  F   UNL     1      36.170 -13.202  -3.199  1.00  0.00    -0.206 F 
HETATM   26  C   UNL     1      37.544 -11.819  -1.879  1.00  0.00     0.051 A 
ENDBRANCH  18  19
ENDBRANCH  14  18
ENDBRANCH   1  11
BRANCH   5  27
HETATM   27  C   UNL     1      43.607 -15.613   4.442  1.00  0.00     0.175 C 
BRANCH  27  28
HETATM   28  C   UNL     1      43.629 -17.064   4.017  1.00  0.00    -0.037 A 
HETATM   29  C   UNL     1      44.129 -18.048   4.886  1.00  0.00     0.048 A 
HETATM   30  C   UNL     1      44.108 -19.359   4.461  1.00  0.00     0.105 A 
HETATM   31  C   UNL     1      43.633 -19.712   3.220  1.00  0.00     0.105 A 
HETATM   32  O   UNL     1      44.532 -20.434   5.178  1.00  0.00    -0.323 OA
HETATM   33  O   UNL     1      43.696 -21.053   3.004  1.00  0.00    -0.323 OA
HETATM   34  C   UNL     1      43.158 -18.775   2.331  1.00  0.00     0.040 A 
HETATM   35  C   UNL     1      44.177 -21.512   4.286  1.00  0.00     0.352 A 
HETATM   36  C   UNL     1      43.159 -17.436   2.736  1.00  0.00     0.012 A 
ENDBRANCH  27  28
ENDBRANCH   5  27
TORSDOF 6
ENDMDL
