MODEL 1
REMARK VINA RESULT:      -9.0      0.000      0.000
REMARK  6 active torsions:
REMARK  status: ('A' for Active; 'I' for Inactive)
REMARK    1  A    between atoms: C_4  and  C_5 
REMARK    2  A    between atoms: C_5  and  N_6 
REMARK    3  A    between atoms: C_5  and  C_20 
REMARK       I    between atoms: N_6  and  C_7 
REMARK    4  A    between atoms: C_7  and  C_8 
REMARK    5  A    between atoms: C_8  and  N_9 
REMARK    6  A    between atoms: C_21  and  O_22 
ROOT
HETATM    1  C   UNL     1      41.376 -13.885   1.462  1.00  0.00     0.154 C 
ENDROOT
BRANCH   1   2
HETATM    2  C   UNL     1      40.498 -13.391   0.308  1.00  0.00    -0.031 A 
HETATM    3  C   UNL     1      40.250 -12.026   0.081  1.00  0.00     0.009 A 
HETATM    4  C   UNL     1      39.428 -11.613  -0.971  1.00  0.00     0.001 A 
HETATM    5  C   UNL     1      38.823 -12.553  -1.801  1.00  0.00     0.000 A 
HETATM    6  C   UNL     1      39.029 -13.910  -1.575  1.00  0.00     0.001 A 
HETATM    7  C   UNL     1      39.850 -14.324  -0.524  1.00  0.00     0.009 A 
ENDBRANCH   1   2
BRANCH   1   8
HETATM    8  N   UNL     1      41.413 -15.333   1.604  1.00  0.00    -0.347 N 
HETATM    9  C   UNL     1      42.605 -16.013   1.699  1.00  0.00     0.236 C 
HETATM   10  O   UNL     1      43.692 -15.441   1.582  1.00  0.00    -0.272 OA
HETATM   11  H   UNL     1      40.594 -15.770   2.024  1.00  0.00     0.163 HD
BRANCH   9  12
HETATM   12  C   UNL     1      42.514 -17.471   2.171  1.00  0.00     0.236 C 
BRANCH  12  13
HETATM   13  N   UNL     1      43.180 -17.769   3.419  1.00  0.00    -0.289 N 
HETATM   14  C   UNL     1      43.877 -18.964   3.682  1.00  0.00     0.328 A 
HETATM   15  O   UNL     1      44.208 -19.809   2.867  1.00  0.00    -0.247 OA
HETATM   16  N   UNL     1      44.131 -18.999   5.056  1.00  0.00    -0.306 N 
HETATM   17  C   UNL     1      43.545 -17.887   5.647  1.00  0.00     0.063 A 
HETATM   18  H   UNL     1      44.603 -19.756   5.523  1.00  0.00     0.171 HD
HETATM   19  C   UNL     1      42.947 -17.120   4.645  1.00  0.00     0.066 A 
HETATM   20  C   UNL     1      43.484 -17.553   6.981  1.00  0.00     0.032 A 
HETATM   21  C   UNL     1      42.253 -15.969   4.949  1.00  0.00     0.032 A 
HETATM   22  C   UNL     1      42.174 -15.606   6.301  1.00  0.00     0.002 A 
HETATM   23  C   UNL     1      42.781 -16.389   7.305  1.00  0.00     0.002 A 
ENDBRANCH  12  13
ENDBRANCH   9  12
ENDBRANCH   1   8
BRANCH   1  24
HETATM   24  C   UNL     1      41.073 -13.248   2.826  1.00  0.00     0.013 A 
HETATM   25  C   UNL     1      39.771 -13.371   3.352  1.00  0.00     0.075 A 
HETATM   26  C   UNL     1      39.459 -12.949   4.637  1.00  0.00     0.038 A 
HETATM   27  C   UNL     1      40.432 -12.339   5.417  1.00  0.00     0.015 A 
HETATM   28  C   UNL     1      41.720 -12.118   4.913  1.00  0.00    -0.025 A 
HETATM   29  C   UNL     1      42.061 -12.555   3.603  1.00  0.00    -0.015 A 
HETATM   30  C   UNL     1      42.667 -11.460   5.716  1.00  0.00     0.012 A 
HETATM   31  C   UNL     1      43.377 -12.263   3.164  1.00  0.00     0.013 A 
HETATM   32  C   UNL     1      44.306 -11.599   3.971  1.00  0.00     0.001 A 
HETATM   33  C   UNL     1      43.953 -11.202   5.250  1.00  0.00     0.001 A 
BRANCH  25  34
HETATM   34  O   UNL     1      38.731 -13.892   2.632  1.00  0.00    -0.360 OA
HETATM   35  H   UNL     1      38.183 -14.434   3.243  1.00  0.00     0.217 HD
ENDBRANCH  25  34
ENDBRANCH   1  24
TORSDOF 6
ENDMDL
MODEL 2
REMARK VINA RESULT:      -8.6      2.146      4.668
REMARK  6 active torsions:
REMARK  status: ('A' for Active; 'I' for Inactive)
REMARK    1  A    between atoms: C_4  and  C_5 
REMARK    2  A    between atoms: C_5  and  N_6 
REMARK    3  A    between atoms: C_5  and  C_20 
REMARK       I    between atoms: N_6  and  C_7 
REMARK    4  A    between atoms: C_7  and  C_8 
REMARK    5  A    between atoms: C_8  and  N_9 
REMARK    6  A    between atoms: C_21  and  O_22 
ROOT
HETATM    1  C   UNL     1      40.329 -13.388   1.819  1.00  0.00     0.154 C 
ENDROOT
BRANCH   1   2
HETATM    2  C   UNL     1      39.937 -12.070   2.492  1.00  0.00    -0.031 A 
HETATM    3  C   UNL     1      40.781 -11.407   3.400  1.00  0.00     0.009 A 
HETATM    4  C   UNL     1      40.381 -10.215   4.010  1.00  0.00     0.001 A 
HETATM    5  C   UNL     1      39.127  -9.674   3.741  1.00  0.00     0.000 A 
HETATM    6  C   UNL     1      38.263 -10.330   2.870  1.00  0.00     0.001 A 
HETATM    7  C   UNL     1      38.660 -11.522   2.260  1.00  0.00     0.009 A 
ENDBRANCH   1   2
BRANCH   1   8
HETATM    8  N   UNL     1      41.621 -13.910   2.239  1.00  0.00    -0.347 N 
HETATM    9  C   UNL     1      41.741 -15.163   2.795  1.00  0.00     0.236 C 
HETATM   10  O   UNL     1      40.755 -15.863   3.040  1.00  0.00    -0.272 OA
HETATM   11  H   UNL     1      42.441 -13.531   1.767  1.00  0.00     0.163 HD
BRANCH   9  12
HETATM   12  C   UNL     1      43.166 -15.724   2.890  1.00  0.00     0.236 C 
BRANCH  12  13
HETATM   13  N   UNL     1      43.347 -16.823   3.813  1.00  0.00    -0.289 N 
HETATM   14  C   UNL     1      43.812 -16.684   5.134  1.00  0.00     0.328 A 
HETATM   15  O   UNL     1      43.922 -15.643   5.762  1.00  0.00    -0.247 OA
HETATM   16  N   UNL     1      44.117 -17.965   5.601  1.00  0.00    -0.306 N 
HETATM   17  C   UNL     1      43.914 -18.876   4.573  1.00  0.00     0.063 A 
HETATM   18  H   UNL     1      44.489 -18.158   6.517  1.00  0.00     0.171 HD
HETATM   19  C   UNL     1      43.444 -18.181   3.457  1.00  0.00     0.066 A 
HETATM   20  C   UNL     1      44.153 -20.232   4.562  1.00  0.00     0.032 A 
HETATM   21  C   UNL     1      43.190 -18.831   2.268  1.00  0.00     0.032 A 
HETATM   22  C   UNL     1      43.426 -20.212   2.230  1.00  0.00     0.002 A 
HETATM   23  C   UNL     1      43.903 -20.904   3.363  1.00  0.00     0.002 A 
ENDBRANCH  12  13
ENDBRANCH   9  12
ENDBRANCH   1   8
BRANCH   1  24
HETATM   24  C   UNL     1      40.261 -13.378   0.284  1.00  0.00     0.013 A 
HETATM   25  C   UNL     1      39.771 -14.522  -0.376  1.00  0.00     0.075 A 
HETATM   26  C   UNL     1      39.545 -14.535  -1.745  1.00  0.00     0.038 A 
HETATM   27  C   UNL     1      39.856 -13.416  -2.506  1.00  0.00     0.015 A 
HETATM   28  C   UNL     1      40.422 -12.281  -1.912  1.00  0.00    -0.025 A 
HETATM   29  C   UNL     1      40.649 -12.245  -0.509  1.00  0.00    -0.015 A 
HETATM   30  C   UNL     1      40.762 -11.183  -2.720  1.00  0.00     0.012 A 
HETATM   31  C   UNL     1      41.252 -11.069   0.002  1.00  0.00     0.013 A 
HETATM   32  C   UNL     1      41.595  -9.987  -0.815  1.00  0.00     0.001 A 
HETATM   33  C   UNL     1      41.345 -10.042  -2.176  1.00  0.00     0.001 A 
BRANCH  25  34
HETATM   34  O   UNL     1      39.505 -15.694   0.279  1.00  0.00    -0.360 OA
HETATM   35  H   UNL     1      38.886 -15.492   1.018  1.00  0.00     0.217 HD
ENDBRANCH  25  34
ENDBRANCH   1  24
TORSDOF 6
ENDMDL
MODEL 3
REMARK VINA RESULT:      -8.5      3.160      7.293
REMARK  6 active torsions:
REMARK  status: ('A' for Active; 'I' for Inactive)
REMARK    1  A    between atoms: C_4  and  C_5 
REMARK    2  A    between atoms: C_5  and  N_6 
REMARK    3  A    between atoms: C_5  and  C_20 
REMARK       I    between atoms: N_6  and  C_7 
REMARK    4  A    between atoms: C_7  and  C_8 
REMARK    5  A    between atoms: C_8  and  N_9 
REMARK    6  A    between atoms: C_21  and  O_22 
ROOT
HETATM    1  C   UNL     1      42.380 -12.313   4.364  1.00  0.00     0.154 C 
ENDROOT
BRANCH   1   2
HETATM    2  C   UNL     1      43.035 -11.687   5.598  1.00  0.00    -0.031 A 
HETATM    3  C   UNL     1      42.549 -10.509   6.194  1.00  0.00     0.009 A 
HETATM    4  C   UNL     1      43.185  -9.956   7.310  1.00  0.00     0.001 A 
HETATM    5  C   UNL     1      44.326 -10.555   7.837  1.00  0.00     0.000 A 
HETATM    6  C   UNL     1      44.842 -11.703   7.243  1.00  0.00     0.001 A 
HETATM    7  C   UNL     1      44.210 -12.256   6.129  1.00  0.00     0.009 A 
ENDBRANCH   1   2
BRANCH   1   8
HETATM    8  N   UNL     1      41.257 -11.553   3.837  1.00  0.00    -0.347 N 
HETATM    9  C   UNL     1      41.356 -10.855   2.654  1.00  0.00     0.236 C 
HETATM   10  O   UNL     1      42.420 -10.772   2.035  1.00  0.00    -0.272 OA
HETATM   11  H   UNL     1      40.327 -11.860   4.117  1.00  0.00     0.163 HD
BRANCH   9  12
HETATM   12  C   UNL     1      40.033 -10.374   2.042  1.00  0.00     0.236 C 
BRANCH  12  13
HETATM   13  N   UNL     1      39.751 -10.849   0.706  1.00  0.00    -0.289 N 
HETATM   14  C   UNL     1      39.070 -10.103  -0.275  1.00  0.00     0.328 A 
HETATM   15  O   UNL     1      38.814  -8.911  -0.237  1.00  0.00    -0.247 OA
HETATM   16  N   UNL     1      38.749 -10.983  -1.312  1.00  0.00    -0.306 N 
HETATM   17  C   UNL     1      39.157 -12.262  -0.957  1.00  0.00     0.063 A 
HETATM   18  H   UNL     1      38.240 -10.718  -2.140  1.00  0.00     0.171 HD
HETATM   19  C   UNL     1      39.774 -12.194   0.295  1.00  0.00     0.066 A 
HETATM   20  C   UNL     1      38.982 -13.444  -1.640  1.00  0.00     0.032 A 
HETATM   21  C   UNL     1      40.247 -13.329   0.918  1.00  0.00     0.032 A 
HETATM   22  C   UNL     1      40.080 -14.547   0.243  1.00  0.00     0.002 A 
HETATM   23  C   UNL     1      39.454 -14.604  -1.020  1.00  0.00     0.002 A 
ENDBRANCH  12  13
ENDBRANCH   9  12
ENDBRANCH   1   8
BRANCH   1  24
HETATM   24  C   UNL     1      41.968 -13.784   4.525  1.00  0.00     0.013 A 
HETATM   25  C   UNL     1      41.145 -14.138   5.612  1.00  0.00     0.075 A 
HETATM   26  C   UNL     1      40.614 -15.413   5.743  1.00  0.00     0.038 A 
HETATM   27  C   UNL     1      40.939 -16.392   4.815  1.00  0.00     0.015 A 
HETATM   28  C   UNL     1      41.818 -16.117   3.759  1.00  0.00    -0.025 A 
HETATM   29  C   UNL     1      42.360 -14.812   3.602  1.00  0.00    -0.015 A 
HETATM   30  C   UNL     1      42.155 -17.144   2.862  1.00  0.00     0.012 A 
HETATM   31  C   UNL     1      43.263 -14.631   2.525  1.00  0.00     0.013 A 
HETATM   32  C   UNL     1      43.598 -15.665   1.646  1.00  0.00     0.001 A 
HETATM   33  C   UNL     1      43.039 -16.921   1.811  1.00  0.00     0.001 A 
BRANCH  25  34
HETATM   34  O   UNL     1      40.831 -13.260   6.615  1.00  0.00    -0.360 OA
HETATM   35  H   UNL     1      40.175 -12.618   6.258  1.00  0.00     0.217 HD
ENDBRANCH  25  34
ENDBRANCH   1  24
TORSDOF 6
ENDMDL
MODEL 4
REMARK VINA RESULT:      -8.5      3.318      6.318
REMARK  6 active torsions:
REMARK  status: ('A' for Active; 'I' for Inactive)
REMARK    1  A    between atoms: C_4  and  C_5 
REMARK    2  A    between atoms: C_5  and  N_6 
REMARK    3  A    between atoms: C_5  and  C_20 
REMARK       I    between atoms: N_6  and  C_7 
REMARK    4  A    between atoms: C_7  and  C_8 
REMARK    5  A    between atoms: C_8  and  N_9 
REMARK    6  A    between atoms: C_21  and  O_22 
ROOT
HETATM    1  C   UNL     1      41.790 -14.340   4.423  1.00  0.00     0.154 C 
ENDROOT
BRANCH   1   2
HETATM    2  C   UNL     1      41.226 -14.639   3.031  1.00  0.00    -0.031 A 
HETATM    3  C   UNL     1      41.641 -13.940   1.883  1.00  0.00     0.009 A 
HETATM    4  C   UNL     1      41.090 -14.228   0.631  1.00  0.00     0.001 A 
HETATM    5  C   UNL     1      40.103 -15.202   0.505  1.00  0.00     0.000 A 
HETATM    6  C   UNL     1      39.655 -15.883   1.633  1.00  0.00     0.001 A 
HETATM    7  C   UNL     1      40.204 -15.597   2.884  1.00  0.00     0.009 A 
ENDBRANCH   1   2
BRANCH   1   8
HETATM    8  N   UNL     1      42.654 -13.170   4.476  1.00  0.00    -0.347 N 
HETATM    9  C   UNL     1      42.153 -11.922   4.771  1.00  0.00     0.236 C 
HETATM   10  O   UNL     1      40.943 -11.725   4.919  1.00  0.00    -0.272 OA
HETATM   11  H   UNL     1      43.636 -13.337   4.689  1.00  0.00     0.163 HD
BRANCH   9  12
HETATM   12  C   UNL     1      43.188 -10.844   5.119  1.00  0.00     0.236 C 
BRANCH  12  13
HETATM   13  N   UNL     1      43.410 -10.619   6.530  1.00  0.00    -0.289 N 
HETATM   14  C   UNL     1      43.973 -11.564   7.407  1.00  0.00     0.328 A 
HETATM   15  O   UNL     1      44.544 -12.597   7.098  1.00  0.00    -0.247 OA
HETATM   16  N   UNL     1      43.765 -11.095   8.707  1.00  0.00    -0.306 N 
HETATM   17  C   UNL     1      43.028  -9.919   8.646  1.00  0.00     0.063 A 
HETATM   18  H   UNL     1      44.053 -11.587   9.538  1.00  0.00     0.171 HD
HETATM   19  C   UNL     1      42.796  -9.616   7.302  1.00  0.00     0.066 A 
HETATM   20  C   UNL     1      42.538  -9.154   9.680  1.00  0.00     0.032 A 
HETATM   21  C   UNL     1      42.050  -8.515   6.940  1.00  0.00     0.032 A 
HETATM   22  C   UNL     1      41.538  -7.719   7.975  1.00  0.00     0.002 A 
HETATM   23  C   UNL     1      41.778  -8.035   9.328  1.00  0.00     0.002 A 
ENDBRANCH  12  13
ENDBRANCH   9  12
ENDBRANCH   1   8
BRANCH   1  24
HETATM   24  C   UNL     1      42.495 -15.522   5.105  1.00  0.00     0.013 A 
HETATM   25  C   UNL     1      42.576 -15.538   6.511  1.00  0.00     0.075 A 
HETATM   26  C   UNL     1      43.067 -16.637   7.203  1.00  0.00     0.038 A 
HETATM   27  C   UNL     1      43.545 -17.735   6.501  1.00  0.00     0.015 A 
HETATM   28  C   UNL     1      43.564 -17.738   5.101  1.00  0.00    -0.025 A 
HETATM   29  C   UNL     1      43.053 -16.626   4.376  1.00  0.00    -0.015 A 
HETATM   30  C   UNL     1      44.094 -18.850   4.425  1.00  0.00     0.012 A 
HETATM   31  C   UNL     1      43.139 -16.702   2.963  1.00  0.00     0.013 A 
HETATM   32  C   UNL     1      43.678 -17.811   2.304  1.00  0.00     0.001 A 
HETATM   33  C   UNL     1      44.150 -18.888   3.035  1.00  0.00     0.001 A 
BRANCH  25  34
HETATM   34  O   UNL     1      42.197 -14.474   7.283  1.00  0.00    -0.360 OA
HETATM   35  H   UNL     1      41.302 -14.668   7.646  1.00  0.00     0.217 HD
ENDBRANCH  25  34
ENDBRANCH   1  24
TORSDOF 6
ENDMDL
MODEL 5
REMARK VINA RESULT:      -8.5      2.266      6.311
REMARK  6 active torsions:
REMARK  status: ('A' for Active; 'I' for Inactive)
REMARK    1  A    between atoms: C_4  and  C_5 
REMARK    2  A    between atoms: C_5  and  N_6 
REMARK    3  A    between atoms: C_5  and  C_20 
REMARK       I    between atoms: N_6  and  C_7 
REMARK    4  A    between atoms: C_7  and  C_8 
REMARK    5  A    between atoms: C_8  and  N_9 
REMARK    6  A    between atoms: C_21  and  O_22 
ROOT
HETATM    1  C   UNL     1      41.513 -16.085   3.072  1.00  0.00     0.154 C 
ENDROOT
BRANCH   1   2
HETATM    2  C   UNL     1      42.615 -17.132   3.257  1.00  0.00    -0.031 A 
HETATM    3  C   UNL     1      42.840 -18.161   2.326  1.00  0.00     0.009 A 
HETATM    4  C   UNL     1      43.844 -19.111   2.538  1.00  0.00     0.001 A 
HETATM    5  C   UNL     1      44.625 -19.064   3.689  1.00  0.00     0.000 A 
HETATM    6  C   UNL     1      44.398 -18.072   4.639  1.00  0.00     0.001 A 
HETATM    7  C   UNL     1      43.396 -17.123   4.429  1.00  0.00     0.009 A 
ENDBRANCH   1   2
BRANCH   1   8
HETATM    8  N   UNL     1      41.571 -15.378   1.802  1.00  0.00    -0.347 N 
HETATM    9  C   UNL     1      40.513 -15.396   0.923  1.00  0.00     0.236 C 
HETATM   10  O   UNL     1      39.506 -16.079   1.131  1.00  0.00    -0.272 OA
HETATM   11  H   UNL     1      42.200 -14.578   1.754  1.00  0.00     0.163 HD
BRANCH   9  12
HETATM   12  C   UNL     1      40.560 -14.363  -0.211  1.00  0.00     0.236 C 
BRANCH  12  13
HETATM   13  N   UNL     1      39.455 -13.432  -0.258  1.00  0.00    -0.289 N 
HETATM   14  C   UNL     1      38.739 -13.105  -1.425  1.00  0.00     0.328 A 
HETATM   15  O   UNL     1      38.782 -13.691  -2.494  1.00  0.00    -0.247 OA
HETATM   16  N   UNL     1      37.955 -11.986  -1.128  1.00  0.00    -0.306 N 
HETATM   17  C   UNL     1      38.228 -11.581   0.172  1.00  0.00     0.063 A 
HETATM   18  H   UNL     1      37.352 -11.528  -1.792  1.00  0.00     0.171 HD
HETATM   19  C   UNL     1      39.161 -12.464   0.720  1.00  0.00     0.066 A 
HETATM   20  C   UNL     1      37.742 -10.489   0.854  1.00  0.00     0.032 A 
HETATM   21  C   UNL     1      39.649 -12.281   1.997  1.00  0.00     0.032 A 
HETATM   22  C   UNL     1      39.170 -11.176   2.713  1.00  0.00     0.002 A 
HETATM   23  C   UNL     1      38.229 -10.289   2.148  1.00  0.00     0.002 A 
ENDBRANCH  12  13
ENDBRANCH   9  12
ENDBRANCH   1   8
BRANCH   1  24
HETATM   24  C   UNL     1      41.388 -15.066   4.215  1.00  0.00     0.013 A 
HETATM   25  C   UNL     1      40.533 -15.366   5.295  1.00  0.00     0.075 A 
HETATM   26  C   UNL     1      40.478 -14.567   6.428  1.00  0.00     0.038 A 
HETATM   27  C   UNL     1      41.240 -13.408   6.490  1.00  0.00     0.015 A 
HETATM   28  C   UNL     1      42.045 -13.020   5.412  1.00  0.00    -0.025 A 
HETATM   29  C   UNL     1      42.124 -13.834   4.248  1.00  0.00    -0.015 A 
HETATM   30  C   UNL     1      42.770 -11.819   5.495  1.00  0.00     0.012 A 
HETATM   31  C   UNL     1      42.938 -13.349   3.195  1.00  0.00     0.013 A 
HETATM   32  C   UNL     1      43.647 -12.148   3.287  1.00  0.00     0.001 A 
HETATM   33  C   UNL     1      43.567 -11.385   4.440  1.00  0.00     0.001 A 
BRANCH  25  34
HETATM   34  O   UNL     1      39.693 -16.446   5.291  1.00  0.00    -0.360 OA
HETATM   35  H   UNL     1      39.980 -17.049   4.567  1.00  0.00     0.217 HD
ENDBRANCH  25  34
ENDBRANCH   1  24
TORSDOF 6
ENDMDL
MODEL 6
REMARK VINA RESULT:      -8.5      2.993      6.790
REMARK  6 active torsions:
REMARK  status: ('A' for Active; 'I' for Inactive)
REMARK    1  A    between atoms: C_4  and  C_5 
REMARK    2  A    between atoms: C_5  and  N_6 
REMARK    3  A    between atoms: C_5  and  C_20 
REMARK       I    between atoms: N_6  and  C_7 
REMARK    4  A    between atoms: C_7  and  C_8 
REMARK    5  A    between atoms: C_8  and  N_9 
REMARK    6  A    between atoms: C_21  and  O_22 
ROOT
HETATM    1  C   UNL     1      42.973 -12.194   5.599  1.00  0.00     0.154 C 
ENDROOT
BRANCH   1   2
HETATM    2  C   UNL     1      43.399 -11.289   6.758  1.00  0.00    -0.031 A 
HETATM    3  C   UNL     1      44.558 -11.532   7.517  1.00  0.00     0.009 A 
HETATM    4  C   UNL     1      44.905 -10.694   8.581  1.00  0.00     0.001 A 
HETATM    5  C   UNL     1      44.094  -9.614   8.919  1.00  0.00     0.000 A 
HETATM    6  C   UNL     1      42.926  -9.375   8.202  1.00  0.00     0.001 A 
HETATM    7  C   UNL     1      42.577 -10.210   7.139  1.00  0.00     0.009 A 
ENDBRANCH   1   2
BRANCH   1   8
HETATM    8  N   UNL     1      42.263 -11.502   4.533  1.00  0.00    -0.347 N 
HETATM    9  C   UNL     1      42.797 -11.395   3.269  1.00  0.00     0.236 C 
HETATM   10  O   UNL     1      43.931 -11.803   3.005  1.00  0.00    -0.272 OA
HETATM   11  H   UNL     1      41.249 -11.461   4.613  1.00  0.00     0.163 HD
BRANCH   9  12
HETATM   12  C   UNL     1      41.831 -10.943   2.166  1.00  0.00     0.236 C 
BRANCH  12  13
HETATM   13  N   UNL     1      41.508 -11.938   1.168  1.00  0.00    -0.289 N 
HETATM   14  C   UNL     1      41.270 -11.655  -0.190  1.00  0.00     0.328 A 
HETATM   15  O   UNL     1      41.503 -10.605  -0.767  1.00  0.00    -0.247 OA
HETATM   16  N   UNL     1      40.723 -12.807  -0.762  1.00  0.00    -0.306 N 
HETATM   17  C   UNL     1      40.559 -13.764   0.231  1.00  0.00     0.063 A 
HETATM   18  H   UNL     1      40.439 -12.878  -1.726  1.00  0.00     0.171 HD
HETATM   19  C   UNL     1      41.035 -13.236   1.433  1.00  0.00     0.066 A 
HETATM   20  C   UNL     1      39.994 -15.016   0.136  1.00  0.00     0.032 A 
HETATM   21  C   UNL     1      40.962 -13.958   2.605  1.00  0.00     0.032 A 
HETATM   22  C   UNL     1      40.390 -15.236   2.536  1.00  0.00     0.002 A 
HETATM   23  C   UNL     1      39.911 -15.758   1.316  1.00  0.00     0.002 A 
ENDBRANCH  12  13
ENDBRANCH   9  12
ENDBRANCH   1   8
BRANCH   1  24
HETATM   24  C   UNL     1      42.179 -13.443   6.009  1.00  0.00     0.013 A 
HETATM   25  C   UNL     1      40.780 -13.340   6.141  1.00  0.00     0.075 A 
HETATM   26  C   UNL     1      39.982 -14.452   6.366  1.00  0.00     0.038 A 
HETATM   27  C   UNL     1      40.569 -15.700   6.523  1.00  0.00     0.015 A 
HETATM   28  C   UNL     1      41.961 -15.847   6.484  1.00  0.00    -0.025 A 
HETATM   29  C   UNL     1      42.794 -14.720   6.240  1.00  0.00    -0.015 A 
HETATM   30  C   UNL     1      42.522 -17.119   6.688  1.00  0.00     0.012 A 
HETATM   31  C   UNL     1      44.191 -14.956   6.247  1.00  0.00     0.013 A 
HETATM   32  C   UNL     1      44.736 -16.225   6.462  1.00  0.00     0.001 A 
HETATM   33  C   UNL     1      43.901 -17.309   6.677  1.00  0.00     0.001 A 
BRANCH  25  34
HETATM   34  O   UNL     1      40.120 -12.142   6.074  1.00  0.00    -0.360 OA
HETATM   35  H   UNL     1      40.002 -11.916   5.123  1.00  0.00     0.217 HD
ENDBRANCH  25  34
ENDBRANCH   1  24
TORSDOF 6
ENDMDL
MODEL 7
REMARK VINA RESULT:      -8.4     15.089     17.352
REMARK  6 active torsions:
REMARK  status: ('A' for Active; 'I' for Inactive)
REMARK    1  A    between atoms: C_4  and  C_5 
REMARK    2  A    between atoms: C_5  and  N_6 
REMARK    3  A    between atoms: C_5  and  C_20 
REMARK       I    between atoms: N_6  and  C_7 
REMARK    4  A    between atoms: C_7  and  C_8 
REMARK    5  A    between atoms: C_8  and  N_9 
REMARK    6  A    between atoms: C_21  and  O_22 
ROOT
HETATM    1  C   UNL     1      45.000 -30.639  -0.562  1.00  0.00     0.154 C 
ENDROOT
BRANCH   1   2
HETATM    2  C   UNL     1      43.732 -30.642   0.297  1.00  0.00    -0.031 A 
HETATM    3  C   UNL     1      43.254 -29.487   0.940  1.00  0.00     0.009 A 
HETATM    4  C   UNL     1      42.103 -29.533   1.732  1.00  0.00     0.001 A 
HETATM    5  C   UNL     1      41.420 -30.733   1.912  1.00  0.00     0.000 A 
HETATM    6  C   UNL     1      41.894 -31.894   1.309  1.00  0.00     0.001 A 
HETATM    7  C   UNL     1      43.043 -31.851   0.519  1.00  0.00     0.009 A 
ENDBRANCH   1   2
BRANCH   1   8
HETATM    8  N   UNL     1      46.185 -30.154   0.129  1.00  0.00    -0.347 N 
HETATM    9  C   UNL     1      47.438 -30.632  -0.176  1.00  0.00     0.236 C 
HETATM   10  O   UNL     1      47.605 -31.551  -0.984  1.00  0.00    -0.272 OA
HETATM   11  H   UNL     1      46.130 -29.216   0.524  1.00  0.00     0.163 HD
BRANCH   9  12
HETATM   12  C   UNL     1      48.621 -29.824   0.373  1.00  0.00     0.236 C 
BRANCH  12  13
HETATM   13  N   UNL     1      48.717 -29.751   1.814  1.00  0.00    -0.289 N 
HETATM   14  C   UNL     1      48.253 -28.671   2.588  1.00  0.00     0.328 A 
HETATM   15  O   UNL     1      47.528 -27.764   2.213  1.00  0.00    -0.247 OA
HETATM   16  N   UNL     1      48.769 -28.836   3.877  1.00  0.00    -0.306 N 
HETATM   17  C   UNL     1      49.593 -29.954   3.889  1.00  0.00     0.063 A 
HETATM   18  H   UNL     1      48.608 -28.193   4.635  1.00  0.00     0.171 HD
HETATM   19  C   UNL     1      49.575 -30.527   2.615  1.00  0.00     0.066 A 
HETATM   20  C   UNL     1      50.359 -30.449   4.920  1.00  0.00     0.032 A 
HETATM   21  C   UNL     1      50.339 -31.637   2.323  1.00  0.00     0.032 A 
HETATM   22  C   UNL     1      51.129 -32.160   3.356  1.00  0.00     0.002 A 
HETATM   23  C   UNL     1      51.140 -31.572   4.638  1.00  0.00     0.002 A 
ENDBRANCH  12  13
ENDBRANCH   9  12
ENDBRANCH   1   8
BRANCH   1  24
HETATM   24  C   UNL     1      44.867 -29.916  -1.911  1.00  0.00     0.013 A 
HETATM   25  C   UNL     1      45.053 -28.520  -1.949  1.00  0.00     0.075 A 
HETATM   26  C   UNL     1      45.091 -27.819  -3.146  1.00  0.00     0.038 A 
HETATM   27  C   UNL     1      44.888 -28.491  -4.344  1.00  0.00     0.015 A 
HETATM   28  C   UNL     1      44.618 -29.865  -4.358  1.00  0.00    -0.025 A 
HETATM   29  C   UNL     1      44.588 -30.601  -3.142  1.00  0.00    -0.015 A 
HETATM   30  C   UNL     1      44.377 -30.503  -5.586  1.00  0.00     0.012 A 
HETATM   31  C   UNL     1      44.277 -31.980  -3.248  1.00  0.00     0.013 A 
HETATM   32  C   UNL     1      44.030 -32.600  -4.476  1.00  0.00     0.001 A 
HETATM   33  C   UNL     1      44.085 -31.863  -5.647  1.00  0.00     0.001 A 
BRANCH  25  34
HETATM   34  O   UNL     1      45.188 -27.764  -0.815  1.00  0.00    -0.360 OA
HETATM   35  H   UNL     1      45.986 -27.197  -0.925  1.00  0.00     0.217 HD
ENDBRANCH  25  34
ENDBRANCH   1  24
TORSDOF 6
ENDMDL
MODEL 8
REMARK VINA RESULT:      -8.4      2.761      7.016
REMARK  6 active torsions:
REMARK  status: ('A' for Active; 'I' for Inactive)
REMARK    1  A    between atoms: C_4  and  C_5 
REMARK    2  A    between atoms: C_5  and  N_6 
REMARK    3  A    between atoms: C_5  and  C_20 
REMARK       I    between atoms: N_6  and  C_7 
REMARK    4  A    between atoms: C_7  and  C_8 
REMARK    5  A    between atoms: C_8  and  N_9 
REMARK    6  A    between atoms: C_21  and  O_22 
ROOT
HETATM    1  C   UNL     1      43.150 -12.430   5.240  1.00  0.00     0.154 C 
ENDROOT
BRANCH   1   2
HETATM    2  C   UNL     1      43.817 -11.552   6.303  1.00  0.00    -0.031 A 
HETATM    3  C   UNL     1      43.125 -10.533   6.981  1.00  0.00     0.009 A 
HETATM    4  C   UNL     1      43.772  -9.738   7.932  1.00  0.00     0.001 A 
HETATM    5  C   UNL     1      45.123  -9.932   8.208  1.00  0.00     0.000 A 
HETATM    6  C   UNL     1      45.834 -10.914   7.525  1.00  0.00     0.001 A 
HETATM    7  C   UNL     1      45.190 -11.708   6.575  1.00  0.00     0.009 A 
ENDBRANCH   1   2
BRANCH   1   8
HETATM    8  N   UNL     1      42.377 -11.688   4.255  1.00  0.00    -0.347 N 
HETATM    9  C   UNL     1      42.497 -11.946   2.908  1.00  0.00     0.236 C 
HETATM   10  O   UNL     1      43.323 -12.753   2.472  1.00  0.00    -0.272 OA
HETATM   11  H   UNL     1      41.496 -11.289   4.573  1.00  0.00     0.163 HD
BRANCH   9  12
HETATM   12  C   UNL     1      41.411 -11.345   2.007  1.00  0.00     0.236 C 
BRANCH  12  13
HETATM   13  N   UNL     1      40.589 -12.296   1.293  1.00  0.00    -0.289 N 
HETATM   14  C   UNL     1      39.928 -13.384   1.894  1.00  0.00     0.328 A 
HETATM   15  O   UNL     1      39.764 -13.568   3.089  1.00  0.00    -0.247 OA
HETATM   16  N   UNL     1      39.483 -14.216   0.863  1.00  0.00    -0.306 N 
HETATM   17  C   UNL     1      39.915 -13.697  -0.350  1.00  0.00     0.063 A 
HETATM   18  H   UNL     1      38.990 -15.082   1.010  1.00  0.00     0.171 HD
HETATM   19  C   UNL     1      40.609 -12.511  -0.097  1.00  0.00     0.066 A 
HETATM   20  C   UNL     1      39.767 -14.221  -1.614  1.00  0.00     0.032 A 
HETATM   21  C   UNL     1      41.188 -11.793  -1.122  1.00  0.00     0.032 A 
HETATM   22  C   UNL     1      41.053 -12.306  -2.420  1.00  0.00     0.002 A 
HETATM   23  C   UNL     1      40.352 -13.506  -2.663  1.00  0.00     0.002 A 
ENDBRANCH  12  13
ENDBRANCH   9  12
ENDBRANCH   1   8
BRANCH   1  24
HETATM   24  C   UNL     1      42.297 -13.581   5.793  1.00  0.00     0.013 A 
HETATM   25  C   UNL     1      40.920 -13.362   5.995  1.00  0.00     0.075 A 
HETATM   26  C   UNL     1      40.060 -14.391   6.353  1.00  0.00     0.038 A 
HETATM   27  C   UNL     1      40.566 -15.664   6.575  1.00  0.00     0.015 A 
HETATM   28  C   UNL     1      41.939 -15.919   6.468  1.00  0.00    -0.025 A 
HETATM   29  C   UNL     1      42.832 -14.880   6.089  1.00  0.00    -0.015 A 
HETATM   30  C   UNL     1      42.419 -17.211   6.740  1.00  0.00     0.012 A 
HETATM   31  C   UNL     1      44.207 -15.220   6.035  1.00  0.00     0.013 A 
HETATM   32  C   UNL     1      44.672 -16.507   6.317  1.00  0.00     0.001 A 
HETATM   33  C   UNL     1      43.778 -17.505   6.665  1.00  0.00     0.001 A 
BRANCH  25  34
HETATM   34  O   UNL     1      40.344 -12.126   5.871  1.00  0.00    -0.360 OA
HETATM   35  H   UNL     1      40.635 -11.743   5.012  1.00  0.00     0.217 HD
ENDBRANCH  25  34
ENDBRANCH   1  24
TORSDOF 6
ENDMDL
MODEL 9
REMARK VINA RESULT:      -8.3      3.071      5.955
REMARK  6 active torsions:
REMARK  status: ('A' for Active; 'I' for Inactive)
REMARK    1  A    between atoms: C_4  and  C_5 
REMARK    2  A    between atoms: C_5  and  N_6 
REMARK    3  A    between atoms: C_5  and  C_20 
REMARK       I    between atoms: N_6  and  C_7 
REMARK    4  A    between atoms: C_7  and  C_8 
REMARK    5  A    between atoms: C_8  and  N_9 
REMARK    6  A    between atoms: C_21  and  O_22 
ROOT
HETATM    1  C   UNL     1      40.605 -13.763   3.865  1.00  0.00     0.154 C 
ENDROOT
BRANCH   1   2
HETATM    2  C   UNL     1      40.393 -14.172   2.405  1.00  0.00    -0.031 A 
HETATM    3  C   UNL     1      40.689 -13.314   1.331  1.00  0.00     0.009 A 
HETATM    4  C   UNL     1      40.465 -13.715   0.011  1.00  0.00     0.001 A 
HETATM    5  C   UNL     1      39.923 -14.969  -0.260  1.00  0.00     0.000 A 
HETATM    6  C   UNL     1      39.593 -15.821   0.788  1.00  0.00     0.001 A 
HETATM    7  C   UNL     1      39.816 -15.423   2.107  1.00  0.00     0.009 A 
ENDBRANCH   1   2
BRANCH   1   8
HETATM    8  N   UNL     1      41.300 -12.496   4.033  1.00  0.00    -0.347 N 
HETATM    9  C   UNL     1      40.688 -11.416   4.627  1.00  0.00     0.236 C 
HETATM   10  O   UNL     1      39.501 -11.445   4.964  1.00  0.00    -0.272 OA
HETATM   11  H   UNL     1      42.317 -12.537   4.082  1.00  0.00     0.163 HD
BRANCH   9  12
HETATM   12  C   UNL     1      41.610 -10.262   5.042  1.00  0.00     0.236 C 
BRANCH  12  13
HETATM   13  N   UNL     1      42.121 -10.321   6.393  1.00  0.00    -0.289 N 
HETATM   14  C   UNL     1      41.482  -9.753   7.510  1.00  0.00     0.328 A 
HETATM   15  O   UNL     1      40.338  -9.330   7.559  1.00  0.00    -0.247 OA
HETATM   16  N   UNL     1      42.400  -9.770   8.564  1.00  0.00    -0.306 N 
HETATM   17  C   UNL     1      43.607 -10.274   8.097  1.00  0.00     0.063 A 
HETATM   18  H   UNL     1      42.211  -9.406   9.484  1.00  0.00     0.171 HD
HETATM   19  C   UNL     1      43.450 -10.612   6.751  1.00  0.00     0.066 A 
HETATM   20  C   UNL     1      44.803 -10.405   8.766  1.00  0.00     0.032 A 
HETATM   21  C   UNL     1      44.506 -11.105   6.013  1.00  0.00     0.032 A 
HETATM   22  C   UNL     1      45.735 -11.248   6.671  1.00  0.00     0.002 A 
HETATM   23  C   UNL     1      45.883 -10.901   8.030  1.00  0.00     0.002 A 
ENDBRANCH  12  13
ENDBRANCH   9  12
ENDBRANCH   1   8
BRANCH   1  24
HETATM   24  C   UNL     1      41.272 -14.830   4.747  1.00  0.00     0.013 A 
HETATM   25  C   UNL     1      40.945 -14.872   6.117  1.00  0.00     0.075 A 
HETATM   26  C   UNL     1      41.394 -15.892   6.944  1.00  0.00     0.038 A 
HETATM   27  C   UNL     1      42.233 -16.874   6.435  1.00  0.00     0.015 A 
HETATM   28  C   UNL     1      42.654 -16.834   5.100  1.00  0.00    -0.025 A 
HETATM   29  C   UNL     1      42.194 -15.803   4.234  1.00  0.00    -0.015 A 
HETATM   30  C   UNL     1      43.537 -17.821   4.630  1.00  0.00     0.012 A 
HETATM   31  C   UNL     1      42.696 -15.824   2.909  1.00  0.00     0.013 A 
HETATM   32  C   UNL     1      43.581 -16.807   2.457  1.00  0.00     0.001 A 
HETATM   33  C   UNL     1      43.997 -17.810   3.317  1.00  0.00     0.001 A 
BRANCH  25  34
HETATM   34  O   UNL     1      40.185 -13.909   6.723  1.00  0.00    -0.360 OA
HETATM   35  H   UNL     1      39.903 -13.268   6.031  1.00  0.00     0.217 HD
ENDBRANCH  25  34
ENDBRANCH   1  24
TORSDOF 6
ENDMDL
MODEL 10
REMARK VINA RESULT:      -8.2     15.240     18.069
REMARK  6 active torsions:
REMARK  status: ('A' for Active; 'I' for Inactive)
REMARK    1  A    between atoms: C_4  and  C_5 
REMARK    2  A    between atoms: C_5  and  N_6 
REMARK    3  A    between atoms: C_5  and  C_20 
REMARK       I    between atoms: N_6  and  C_7 
REMARK    4  A    between atoms: C_7  and  C_8 
REMARK    5  A    between atoms: C_8  and  N_9 
REMARK    6  A    between atoms: C_21  and  O_22 
ROOT
HETATM    1  C   UNL     1      44.966 -30.735  -0.424  1.00  0.00     0.154 C 
ENDROOT
BRANCH   1   2
HETATM    2  C   UNL     1      43.695 -30.719   0.431  1.00  0.00    -0.031 A 
HETATM    3  C   UNL     1      43.308 -29.597   1.184  1.00  0.00     0.009 A 
HETATM    4  C   UNL     1      42.151 -29.625   1.969  1.00  0.00     0.001 A 
HETATM    5  C   UNL     1      41.373 -30.778   2.032  1.00  0.00     0.000 A 
HETATM    6  C   UNL     1      41.756 -31.911   1.320  1.00  0.00     0.001 A 
HETATM    7  C   UNL     1      42.911 -31.885   0.537  1.00  0.00     0.009 A 
ENDBRANCH   1   2
BRANCH   1   8
HETATM    8  N   UNL     1      46.155 -30.262   0.268  1.00  0.00    -0.347 N 
HETATM    9  C   UNL     1      47.158 -31.127   0.642  1.00  0.00     0.236 C 
HETATM   10  O   UNL     1      47.057 -32.347   0.486  1.00  0.00    -0.272 OA
HETATM   11  H   UNL     1      46.415 -29.289   0.114  1.00  0.00     0.163 HD
BRANCH   9  12
HETATM   12  C   UNL     1      48.485 -30.480   1.059  1.00  0.00     0.236 C 
BRANCH  12  13
HETATM   13  N   UNL     1      49.473 -30.341   0.012  1.00  0.00    -0.289 N 
HETATM   14  C   UNL     1      49.292 -29.574  -1.154  1.00  0.00     0.328 A 
HETATM   15  O   UNL     1      48.407 -28.760  -1.362  1.00  0.00    -0.247 OA
HETATM   16  N   UNL     1      50.326 -29.911  -2.033  1.00  0.00    -0.306 N 
HETATM   17  C   UNL     1      51.094 -30.915  -1.457  1.00  0.00     0.063 A 
HETATM   18  H   UNL     1      50.431 -29.521  -2.956  1.00  0.00     0.171 HD
HETATM   19  C   UNL     1      50.571 -31.196  -0.193  1.00  0.00     0.066 A 
HETATM   20  C   UNL     1      52.165 -31.594  -1.991  1.00  0.00     0.032 A 
HETATM   21  C   UNL     1      51.115 -32.186   0.598  1.00  0.00     0.032 A 
HETATM   22  C   UNL     1      52.207 -32.894   0.077  1.00  0.00     0.002 A 
HETATM   23  C   UNL     1      52.725 -32.602  -1.203  1.00  0.00     0.002 A 
ENDBRANCH  12  13
ENDBRANCH   9  12
ENDBRANCH   1   8
BRANCH   1  24
HETATM   24  C   UNL     1      44.845 -30.017  -1.776  1.00  0.00     0.013 A 
HETATM   25  C   UNL     1      45.017 -28.619  -1.814  1.00  0.00     0.075 A 
HETATM   26  C   UNL     1      45.066 -27.920  -3.012  1.00  0.00     0.038 A 
HETATM   27  C   UNL     1      44.888 -28.596  -4.211  1.00  0.00     0.015 A 
HETATM   28  C   UNL     1      44.633 -29.973  -4.227  1.00  0.00    -0.025 A 
HETATM   29  C   UNL     1      44.592 -30.707  -3.009  1.00  0.00    -0.015 A 
HETATM   30  C   UNL     1      44.417 -30.617  -5.457  1.00  0.00     0.012 A 
HETATM   31  C   UNL     1      44.297 -32.089  -3.117  1.00  0.00     0.013 A 
HETATM   32  C   UNL     1      44.075 -32.715  -4.347  1.00  0.00     0.001 A 
HETATM   33  C   UNL     1      44.140 -31.979  -5.519  1.00  0.00     0.001 A 
BRANCH  25  34
HETATM   34  O   UNL     1      45.127 -27.859  -0.681  1.00  0.00    -0.360 OA
HETATM   35  H   UNL     1      46.084 -27.685  -0.527  1.00  0.00     0.217 HD
ENDBRANCH  25  34
ENDBRANCH   1  24
TORSDOF 6
ENDMDL
