MODEL 1
REMARK VINA RESULT:      -8.5      0.000      0.000
REMARK  8 active torsions:
REMARK  status: ('A' for Active; 'I' for Inactive)
REMARK    1  A    between atoms: O_2  and  C_3 
REMARK    2  A    between atoms: C_5  and  N_6 
REMARK    3  A    between atoms: N_6  and  C_7 
REMARK    4  A    between atoms: C_9  and  N_10 
REMARK    5  A    between atoms: C_12  and  C_13 
REMARK    6  A    between atoms: C_13  and  N_14 
REMARK    7  A    between atoms: N_18  and  C_19 
REMARK    8  A    between atoms: C_29  and  O_30 
ROOT
HETATM    1  C   UNL     1      42.582 -13.648   4.551  1.00  0.00     0.731 A 
HETATM    2  N   UNL     1      42.369 -12.895   3.478  1.00  0.00    -0.031 NA
HETATM    3  C   UNL     1      42.916 -11.695   3.465  1.00  0.00     0.219 A 
HETATM    4  N   UNL     1      43.715 -11.228   4.408  1.00  0.00    -0.200 NA
HETATM    5  C   UNL     1      43.909 -12.052   5.436  1.00  0.00     0.174 A 
HETATM    6  N   UNL     1      43.377 -13.268   5.551  1.00  0.00    -0.045 NA
ENDROOT
BRANCH   5   7
HETATM    7  C   UNL     1      45.046 -11.706   6.378  1.00  0.00     0.316 C 
BRANCH   7   8
HETATM    8  N   UNL     1      44.846 -10.414   7.206  1.00  0.00    -0.061 N 
HETATM    9  H   UNL     1      45.187  -9.657   6.601  1.00  0.00     0.280 HD
HETATM   10  C   UNL     1      43.374 -10.144   7.508  1.00  0.00     0.255 C 
HETATM   11  C   UNL     1      43.222  -8.806   8.272  1.00  0.00     0.152 C 
HETATM   12  N   UNL     1      44.101  -8.715   9.466  1.00  0.00    -0.364 N 
HETATM   13  C   UNL     1      45.525  -9.054   9.219  1.00  0.00     0.152 C 
HETATM   14  C   UNL     1      45.680 -10.409   8.484  1.00  0.00     0.255 C 
BRANCH  12  15
HETATM   15  C   UNL     1      43.590  -8.983  10.723  1.00  0.00     0.102 A 
HETATM   16  N   UNL     1      43.431 -10.275  11.068  1.00  0.00    -0.352 N 
HETATM   17  H   UNL     1      43.737 -10.976  10.398  1.00  0.00     0.166 HD
HETATM   18  C   UNL     1      42.970 -10.685  12.260  1.00  0.00     0.089 A 
HETATM   19  C   UNL     1      42.629  -9.754  13.227  1.00  0.00     0.017 A 
HETATM   20  C   UNL     1      42.789  -8.406  12.938  1.00  0.00     0.005 A 
HETATM   21  C   UNL     1      43.279  -8.018  11.691  1.00  0.00     0.048 A 
ENDBRANCH  12  15
ENDBRANCH   7   8
ENDBRANCH   5   7
BRANCH   3  22
HETATM   22  N   UNL     1      42.692 -10.900   2.363  1.00  0.00    -0.270 NA
HETATM   23  H   UNL     1      41.788 -11.130   1.960  1.00  0.00     0.127 HD
HETATM   24  H   UNL     1      42.813  -9.920   2.580  1.00  0.00     0.127 HD
ENDBRANCH   3  22
BRANCH   1  25
HETATM   25  N   UNL     1      42.005 -14.906   4.671  1.00  0.00    -0.185 N 
HETATM   26  H   UNL     1      41.104 -14.957   4.208  1.00  0.00     0.184 HD
BRANCH  25  27
HETATM   27  C   UNL     1      42.610 -16.173   4.812  1.00  0.00     0.085 A 
HETATM   28  C   UNL     1      43.128 -16.877   3.717  1.00  0.00     0.069 A 
HETATM   29  C   UNL     1      43.748 -18.119   3.879  1.00  0.00     0.070 A 
HETATM   30  C   UNL     1      43.836 -18.675   5.152  1.00  0.00     0.039 A 
HETATM   31  C   UNL     1      43.317 -17.993   6.258  1.00  0.00     0.042 A 
HETATM   32  C   UNL     1      42.704 -16.748   6.096  1.00  0.00     0.095 A 
BRANCH  29  33
HETATM   33  O   UNL     1      44.229 -18.668   2.722  1.00  0.00    -0.356 OA
HETATM   34  C   UNL     1      43.670 -19.914   2.320  1.00  0.00     0.210 C 
ENDBRANCH  29  33
BRANCH  32  35
HETATM   35  O   UNL     1      42.163 -15.994   7.113  1.00  0.00    -0.354 OA
HETATM   36  C   UNL     1      43.063 -15.573   8.137  1.00  0.00     0.210 C 
ENDBRANCH  32  35
ENDBRANCH  25  27
ENDBRANCH   1  25
TORSDOF 8
ENDMDL
MODEL 2
REMARK VINA RESULT:      -8.4      2.950      9.138
REMARK  8 active torsions:
REMARK  status: ('A' for Active; 'I' for Inactive)
REMARK    1  A    between atoms: O_2  and  C_3 
REMARK    2  A    between atoms: C_5  and  N_6 
REMARK    3  A    between atoms: N_6  and  C_7 
REMARK    4  A    between atoms: C_9  and  N_10 
REMARK    5  A    between atoms: C_12  and  C_13 
REMARK    6  A    between atoms: C_13  and  N_14 
REMARK    7  A    between atoms: N_18  and  C_19 
REMARK    8  A    between atoms: C_29  and  O_30 
ROOT
HETATM    1  C   UNL     1      41.452 -11.057   6.406  1.00  0.00     0.731 A 
HETATM    2  N   UNL     1      40.261 -10.493   6.570  1.00  0.00    -0.031 NA
HETATM    3  C   UNL     1      39.202 -11.240   6.325  1.00  0.00     0.219 A 
HETATM    4  N   UNL     1      39.249 -12.521   6.003  1.00  0.00    -0.200 NA
HETATM    5  C   UNL     1      40.477 -13.025   5.891  1.00  0.00     0.174 A 
HETATM    6  N   UNL     1      41.603 -12.343   6.090  1.00  0.00    -0.045 NA
ENDROOT
BRANCH   5   7
HETATM    7  C   UNL     1      40.587 -14.537   5.838  1.00  0.00     0.316 C 
BRANCH   7   8
HETATM    8  N   UNL     1      41.972 -15.081   5.414  1.00  0.00    -0.061 N 
HETATM    9  H   UNL     1      42.621 -14.298   5.562  1.00  0.00     0.280 HD
HETATM   10  C   UNL     1      42.431 -16.240   6.295  1.00  0.00     0.255 C 
HETATM   11  C   UNL     1      43.850 -16.700   5.878  1.00  0.00     0.152 C 
HETATM   12  N   UNL     1      43.969 -16.974   4.424  1.00  0.00    -0.364 N 
HETATM   13  C   UNL     1      43.453 -15.897   3.542  1.00  0.00     0.152 C 
HETATM   14  C   UNL     1      42.020 -15.460   3.937  1.00  0.00     0.255 C 
BRANCH  12  15
HETATM   15  C   UNL     1      43.891 -18.273   3.956  1.00  0.00     0.102 A 
HETATM   16  N   UNL     1      44.171 -19.264   4.824  1.00  0.00    -0.352 N 
HETATM   17  H   UNL     1      44.380 -18.997   5.783  1.00  0.00     0.166 HD
HETATM   18  C   UNL     1      44.113 -20.570   4.519  1.00  0.00     0.089 A 
HETATM   19  C   UNL     1      43.744 -20.968   3.245  1.00  0.00     0.017 A 
HETATM   20  C   UNL     1      43.425 -19.993   2.311  1.00  0.00     0.005 A 
HETATM   21  C   UNL     1      43.489 -18.645   2.666  1.00  0.00     0.048 A 
ENDBRANCH  12  15
ENDBRANCH   7   8
ENDBRANCH   5   7
BRANCH   3  22
HETATM   22  N   UNL     1      37.961 -10.663   6.478  1.00  0.00    -0.270 NA
HETATM   23  H   UNL     1      38.073  -9.692   6.756  1.00  0.00     0.127 HD
HETATM   24  H   UNL     1      37.385 -10.797   5.658  1.00  0.00     0.127 HD
ENDBRANCH   3  22
BRANCH   1  25
HETATM   25  N   UNL     1      42.622 -10.331   6.595  1.00  0.00    -0.185 N 
HETATM   26  H   UNL     1      42.729  -9.595   5.905  1.00  0.00     0.184 HD
BRANCH  25  27
HETATM   27  C   UNL     1      43.349 -10.070   7.777  1.00  0.00     0.085 A 
HETATM   28  C   UNL     1      42.893  -9.167   8.747  1.00  0.00     0.069 A 
HETATM   29  C   UNL     1      43.613  -8.941   9.922  1.00  0.00     0.070 A 
HETATM   30  C   UNL     1      44.816  -9.613  10.126  1.00  0.00     0.039 A 
HETATM   31  C   UNL     1      45.292 -10.512   9.165  1.00  0.00     0.042 A 
HETATM   32  C   UNL     1      44.568 -10.743   7.993  1.00  0.00     0.095 A 
BRANCH  29  33
HETATM   33  O   UNL     1      43.027  -8.055  10.785  1.00  0.00    -0.356 OA
HETATM   34  C   UNL     1      43.354  -8.188  12.164  1.00  0.00     0.210 C 
ENDBRANCH  29  33
BRANCH  32  35
HETATM   35  O   UNL     1      44.945 -11.605   6.987  1.00  0.00    -0.354 OA
HETATM   36  C   UNL     1      46.136 -11.267   6.278  1.00  0.00     0.210 C 
ENDBRANCH  32  35
ENDBRANCH  25  27
ENDBRANCH   1  25
TORSDOF 8
ENDMDL
MODEL 3
REMARK VINA RESULT:      -8.3      3.359      9.689
REMARK  8 active torsions:
REMARK  status: ('A' for Active; 'I' for Inactive)
REMARK    1  A    between atoms: O_2  and  C_3 
REMARK    2  A    between atoms: C_5  and  N_6 
REMARK    3  A    between atoms: N_6  and  C_7 
REMARK    4  A    between atoms: C_9  and  N_10 
REMARK    5  A    between atoms: C_12  and  C_13 
REMARK    6  A    between atoms: C_13  and  N_14 
REMARK    7  A    between atoms: N_18  and  C_19 
REMARK    8  A    between atoms: C_29  and  O_30 
ROOT
HETATM    1  C   UNL     1      43.424 -10.168  10.164  1.00  0.00     0.731 A 
HETATM    2  N   UNL     1      43.846  -8.941   9.881  1.00  0.00    -0.031 NA
HETATM    3  C   UNL     1      44.588  -8.793   8.802  1.00  0.00     0.219 A 
HETATM    4  N   UNL     1      44.874  -9.764   7.952  1.00  0.00    -0.200 NA
HETATM    5  C   UNL     1      44.388 -10.958   8.284  1.00  0.00     0.174 A 
HETATM    6  N   UNL     1      43.654 -11.210   9.367  1.00  0.00    -0.045 NA
ENDROOT
BRANCH   5   7
HETATM    7  C   UNL     1      44.414 -12.024   7.205  1.00  0.00     0.316 C 
BRANCH   7   8
HETATM    8  N   UNL     1      43.103 -12.832   7.047  1.00  0.00    -0.061 N 
HETATM    9  H   UNL     1      42.638 -12.763   7.960  1.00  0.00     0.280 HD
HETATM   10  C   UNL     1      42.172 -12.222   6.002  1.00  0.00     0.255 C 
HETATM   11  C   UNL     1      40.848 -13.022   5.934  1.00  0.00     0.152 C 
HETATM   12  N   UNL     1      41.059 -14.483   5.765  1.00  0.00    -0.364 N 
HETATM   13  C   UNL     1      42.024 -15.088   6.716  1.00  0.00     0.152 C 
HETATM   14  C   UNL     1      43.362 -14.308   6.759  1.00  0.00     0.255 C 
BRANCH  12  15
HETATM   15  C   UNL     1      40.955 -15.055   4.510  1.00  0.00     0.102 A 
HETATM   16  N   UNL     1      40.084 -14.502   3.644  1.00  0.00    -0.352 N 
HETATM   17  H   UNL     1      39.588 -13.669   3.951  1.00  0.00     0.166 HD
HETATM   18  C   UNL     1      39.895 -14.934   2.387  1.00  0.00     0.089 A 
HETATM   19  C   UNL     1      40.622 -16.012   1.909  1.00  0.00     0.017 A 
HETATM   20  C   UNL     1      41.549 -16.613   2.749  1.00  0.00     0.005 A 
HETATM   21  C   UNL     1      41.724 -16.131   4.047  1.00  0.00     0.048 A 
ENDBRANCH  12  15
ENDBRANCH   7   8
ENDBRANCH   5   7
BRANCH   3  22
HETATM   22  N   UNL     1      45.043  -7.527   8.505  1.00  0.00    -0.270 NA
HETATM   23  H   UNL     1      44.540  -6.847   9.069  1.00  0.00     0.127 HD
HETATM   24  H   UNL     1      46.050  -7.466   8.579  1.00  0.00     0.127 HD
ENDBRANCH   3  22
BRANCH   1  25
HETATM   25  N   UNL     1      42.677 -10.424  11.307  1.00  0.00    -0.185 N 
HETATM   26  H   UNL     1      42.976 -11.274  11.774  1.00  0.00     0.184 HD
BRANCH  25  27
HETATM   27  C   UNL     1      42.019  -9.534  12.182  1.00  0.00     0.085 A 
HETATM   28  C   UNL     1      42.714  -8.772  13.131  1.00  0.00     0.069 A 
HETATM   29  C   UNL     1      42.048  -7.876  13.971  1.00  0.00     0.070 A 
HETATM   30  C   UNL     1      40.665  -7.750  13.874  1.00  0.00     0.039 A 
HETATM   31  C   UNL     1      39.951  -8.509  12.940  1.00  0.00     0.042 A 
HETATM   32  C   UNL     1      40.618  -9.399  12.095  1.00  0.00     0.095 A 
BRANCH  29  33
HETATM   33  O   UNL     1      42.865  -7.183  14.822  1.00  0.00    -0.356 OA
HETATM   34  C   UNL     1      42.338  -6.871  16.108  1.00  0.00     0.210 C 
ENDBRANCH  29  33
BRANCH  32  35
HETATM   35  O   UNL     1      40.014 -10.190  11.143  1.00  0.00    -0.354 OA
HETATM   36  C   UNL     1      39.354  -9.506  10.080  1.00  0.00     0.210 C 
ENDBRANCH  32  35
ENDBRANCH  25  27
ENDBRANCH   1  25
TORSDOF 8
ENDMDL
MODEL 4
REMARK VINA RESULT:      -8.3      1.389      2.081
REMARK  8 active torsions:
REMARK  status: ('A' for Active; 'I' for Inactive)
REMARK    1  A    between atoms: O_2  and  C_3 
REMARK    2  A    between atoms: C_5  and  N_6 
REMARK    3  A    between atoms: N_6  and  C_7 
REMARK    4  A    between atoms: C_9  and  N_10 
REMARK    5  A    between atoms: C_12  and  C_13 
REMARK    6  A    between atoms: C_13  and  N_14 
REMARK    7  A    between atoms: N_18  and  C_19 
REMARK    8  A    between atoms: C_29  and  O_30 
ROOT
HETATM    1  C   UNL     1      42.661 -13.602   4.567  1.00  0.00     0.731 A 
HETATM    2  N   UNL     1      42.467 -12.820   3.512  1.00  0.00    -0.031 NA
HETATM    3  C   UNL     1      42.972 -11.603   3.563  1.00  0.00     0.219 A 
HETATM    4  N   UNL     1      43.713 -11.142   4.555  1.00  0.00    -0.200 NA
HETATM    5  C   UNL     1      43.894 -11.995   5.561  1.00  0.00     0.174 A 
HETATM    6  N   UNL     1      43.401 -13.231   5.612  1.00  0.00    -0.045 NA
ENDROOT
BRANCH   5   7
HETATM    7  C   UNL     1      44.978 -11.644   6.562  1.00  0.00     0.316 C 
BRANCH   7   8
HETATM    8  N   UNL     1      44.729 -10.353   7.377  1.00  0.00    -0.061 N 
HETATM    9  H   UNL     1      45.172  -9.605   6.830  1.00  0.00     0.280 HD
HETATM   10  C   UNL     1      43.244 -10.024   7.500  1.00  0.00     0.255 C 
HETATM   11  C   UNL     1      43.052  -8.688   8.259  1.00  0.00     0.152 C 
HETATM   12  N   UNL     1      43.781  -8.645   9.553  1.00  0.00    -0.364 N 
HETATM   13  C   UNL     1      45.210  -9.040   9.478  1.00  0.00     0.152 C 
HETATM   14  C   UNL     1      45.399 -10.393   8.748  1.00  0.00     0.255 C 
BRANCH  12  15
HETATM   15  C   UNL     1      43.109  -8.903  10.734  1.00  0.00     0.102 A 
HETATM   16  N   UNL     1      41.963  -9.606  10.657  1.00  0.00    -0.352 N 
HETATM   17  H   UNL     1      41.684  -9.942   9.739  1.00  0.00     0.166 HD
HETATM   18  C   UNL     1      41.219  -9.951  11.720  1.00  0.00     0.089 A 
HETATM   19  C   UNL     1      41.620  -9.584  12.994  1.00  0.00     0.017 A 
HETATM   20  C   UNL     1      42.803  -8.874  13.140  1.00  0.00     0.005 A 
HETATM   21  C   UNL     1      43.555  -8.540  12.012  1.00  0.00     0.048 A 
ENDBRANCH  12  15
ENDBRANCH   7   8
ENDBRANCH   5   7
BRANCH   3  22
HETATM   22  N   UNL     1      42.765 -10.777   2.480  1.00  0.00    -0.270 NA
HETATM   23  H   UNL     1      43.139  -9.855   2.683  1.00  0.00     0.127 HD
HETATM   24  H   UNL     1      43.115 -11.190   1.625  1.00  0.00     0.127 HD
ENDBRANCH   3  22
BRANCH   1  25
HETATM   25  N   UNL     1      42.125 -14.883   4.620  1.00  0.00    -0.185 N 
HETATM   26  H   UNL     1      41.121 -14.869   4.764  1.00  0.00     0.184 HD
BRANCH  25  27
HETATM   27  C   UNL     1      42.565 -16.078   4.013  1.00  0.00     0.085 A 
HETATM   28  C   UNL     1      43.409 -16.982   4.672  1.00  0.00     0.069 A 
HETATM   29  C   UNL     1      43.813 -18.174   4.064  1.00  0.00     0.070 A 
HETATM   30  C   UNL     1      43.380 -18.460   2.772  1.00  0.00     0.039 A 
HETATM   31  C   UNL     1      42.544 -17.567   2.093  1.00  0.00     0.042 A 
HETATM   32  C   UNL     1      42.136 -16.379   2.704  1.00  0.00     0.095 A 
BRANCH  29  33
HETATM   33  O   UNL     1      44.611 -18.965   4.843  1.00  0.00    -0.356 OA
HETATM   34  C   UNL     1      44.245 -20.337   4.956  1.00  0.00     0.210 C 
ENDBRANCH  29  33
BRANCH  32  35
HETATM   35  O   UNL     1      41.316 -15.435   2.127  1.00  0.00    -0.354 OA
HETATM   36  C   UNL     1      39.973 -15.838   1.865  1.00  0.00     0.210 C 
ENDBRANCH  32  35
ENDBRANCH  25  27
ENDBRANCH   1  25
TORSDOF 8
ENDMDL
MODEL 5
REMARK VINA RESULT:      -8.3      2.853      9.504
REMARK  8 active torsions:
REMARK  status: ('A' for Active; 'I' for Inactive)
REMARK    1  A    between atoms: O_2  and  C_3 
REMARK    2  A    between atoms: C_5  and  N_6 
REMARK    3  A    between atoms: N_6  and  C_7 
REMARK    4  A    between atoms: C_9  and  N_10 
REMARK    5  A    between atoms: C_12  and  C_13 
REMARK    6  A    between atoms: C_13  and  N_14 
REMARK    7  A    between atoms: N_18  and  C_19 
REMARK    8  A    between atoms: C_29  and  O_30 
ROOT
HETATM    1  C   UNL     1      44.184 -10.794   8.669  1.00  0.00     0.731 A 
HETATM    2  N   UNL     1      45.408 -10.279   8.684  1.00  0.00    -0.031 NA
HETATM    3  C   UNL     1      46.149 -10.455   7.608  1.00  0.00     0.219 A 
HETATM    4  N   UNL     1      45.731 -11.041   6.500  1.00  0.00    -0.200 NA
HETATM    5  C   UNL     1      44.483 -11.502   6.547  1.00  0.00     0.174 A 
HETATM    6  N   UNL     1      43.669 -11.396   7.597  1.00  0.00    -0.045 NA
ENDROOT
BRANCH   5   7
HETATM    7  C   UNL     1      43.853 -11.892   5.224  1.00  0.00     0.316 C 
BRANCH   7   8
HETATM    8  N   UNL     1      42.963 -13.156   5.266  1.00  0.00    -0.061 N 
HETATM    9  H   UNL     1      42.137 -12.880   5.811  1.00  0.00     0.280 HD
HETATM   10  C   UNL     1      42.486 -13.573   3.877  1.00  0.00     0.255 C 
HETATM   11  C   UNL     1      41.542 -14.796   3.980  1.00  0.00     0.152 C 
HETATM   12  N   UNL     1      42.120 -15.912   4.772  1.00  0.00    -0.364 N 
HETATM   13  C   UNL     1      42.667 -15.520   6.095  1.00  0.00     0.152 C 
HETATM   14  C   UNL     1      43.638 -14.318   5.988  1.00  0.00     0.255 C 
BRANCH  12  15
HETATM   15  C   UNL     1      42.714 -16.983   4.128  1.00  0.00     0.102 A 
HETATM   16  N   UNL     1      43.516 -17.781   4.858  1.00  0.00    -0.352 N 
HETATM   17  H   UNL     1      43.601 -17.572   5.849  1.00  0.00     0.166 HD
HETATM   18  C   UNL     1      44.139 -18.867   4.375  1.00  0.00     0.089 A 
HETATM   19  C   UNL     1      43.970 -19.228   3.048  1.00  0.00     0.017 A 
HETATM   20  C   UNL     1      43.140 -18.456   2.249  1.00  0.00     0.005 A 
HETATM   21  C   UNL     1      42.502 -17.337   2.789  1.00  0.00     0.048 A 
ENDBRANCH  12  15
ENDBRANCH   7   8
ENDBRANCH   5   7
BRANCH   3  22
HETATM   22  N   UNL     1      47.426  -9.937   7.617  1.00  0.00    -0.270 NA
HETATM   23  H   UNL     1      48.096 -10.690   7.492  1.00  0.00     0.127 HD
HETATM   24  H   UNL     1      47.524  -9.178   6.956  1.00  0.00     0.127 HD
ENDBRANCH   3  22
BRANCH   1  25
HETATM   25  N   UNL     1      43.350 -10.698   9.776  1.00  0.00    -0.185 N 
HETATM   26  H   UNL     1      43.425 -11.509  10.381  1.00  0.00     0.184 HD
BRANCH  25  27
HETATM   27  C   UNL     1      42.879  -9.558  10.463  1.00  0.00     0.085 A 
HETATM   28  C   UNL     1      43.451  -9.124  11.666  1.00  0.00     0.069 A 
HETATM   29  C   UNL     1      42.988  -7.978  12.318  1.00  0.00     0.070 A 
HETATM   30  C   UNL     1      41.926  -7.264  11.769  1.00  0.00     0.039 A 
HETATM   31  C   UNL     1      41.334  -7.686  10.573  1.00  0.00     0.042 A 
HETATM   32  C   UNL     1      41.803  -8.828   9.918  1.00  0.00     0.095 A 
BRANCH  29  33
HETATM   33  O   UNL     1      43.665  -7.665  13.464  1.00  0.00    -0.356 OA
HETATM   34  C   UNL     1      42.912  -7.067  14.514  1.00  0.00     0.210 C 
ENDBRANCH  29  33
BRANCH  32  35
HETATM   35  O   UNL     1      41.295  -9.328   8.740  1.00  0.00    -0.354 OA
HETATM   36  C   UNL     1      41.383  -8.474   7.601  1.00  0.00     0.210 C 
ENDBRANCH  32  35
ENDBRANCH  25  27
ENDBRANCH   1  25
TORSDOF 8
ENDMDL
MODEL 6
REMARK VINA RESULT:      -8.1      2.349      2.942
REMARK  8 active torsions:
REMARK  status: ('A' for Active; 'I' for Inactive)
REMARK    1  A    between atoms: O_2  and  C_3 
REMARK    2  A    between atoms: C_5  and  N_6 
REMARK    3  A    between atoms: N_6  and  C_7 
REMARK    4  A    between atoms: C_9  and  N_10 
REMARK    5  A    between atoms: C_12  and  C_13 
REMARK    6  A    between atoms: C_13  and  N_14 
REMARK    7  A    between atoms: N_18  and  C_19 
REMARK    8  A    between atoms: C_29  and  O_30 
ROOT
HETATM    1  C   UNL     1      40.402 -13.648   5.742  1.00  0.00     0.731 A 
HETATM    2  N   UNL     1      39.310 -12.970   6.075  1.00  0.00    -0.031 NA
HETATM    3  C   UNL     1      39.463 -11.704   6.408  1.00  0.00     0.219 A 
HETATM    4  N   UNL     1      40.613 -11.053   6.361  1.00  0.00    -0.200 NA
HETATM    5  C   UNL     1      41.657 -11.788   5.985  1.00  0.00     0.174 A 
HETATM    6  N   UNL     1      41.604 -13.079   5.658  1.00  0.00    -0.045 NA
ENDROOT
BRANCH   5   7
HETATM    7  C   UNL     1      42.919 -11.034   5.612  1.00  0.00     0.316 C 
BRANCH   7   8
HETATM    8  N   UNL     1      43.626 -10.312   6.784  1.00  0.00    -0.061 N 
HETATM    9  H   UNL     1      44.545 -10.043   6.413  1.00  0.00     0.280 HD
HETATM   10  C   UNL     1      42.899  -9.036   7.199  1.00  0.00     0.255 C 
HETATM   11  C   UNL     1      43.683  -8.314   8.322  1.00  0.00     0.152 C 
HETATM   12  N   UNL     1      44.020  -9.206   9.461  1.00  0.00    -0.364 N 
HETATM   13  C   UNL     1      44.655 -10.493   9.081  1.00  0.00     0.152 C 
HETATM   14  C   UNL     1      43.852 -11.232   7.981  1.00  0.00     0.255 C 
BRANCH  12  15
HETATM   15  C   UNL     1      43.241  -9.192  10.604  1.00  0.00     0.102 A 
HETATM   16  N   UNL     1      42.026  -9.768  10.535  1.00  0.00    -0.352 N 
HETATM   17  H   UNL     1      41.773 -10.217   9.658  1.00  0.00     0.166 HD
HETATM   18  C   UNL     1      41.173  -9.852  11.568  1.00  0.00     0.089 A 
HETATM   19  C   UNL     1      41.525  -9.329  12.801  1.00  0.00     0.017 A 
HETATM   20  C   UNL     1      42.773  -8.739  12.940  1.00  0.00     0.005 A 
HETATM   21  C   UNL     1      43.638  -8.678  11.846  1.00  0.00     0.048 A 
ENDBRANCH  12  15
ENDBRANCH   7   8
ENDBRANCH   5   7
BRANCH   3  22
HETATM   22  N   UNL     1      38.339 -10.995   6.769  1.00  0.00    -0.270 NA
HETATM   23  H   UNL     1      38.041 -10.416   5.989  1.00  0.00     0.127 HD
HETATM   24  H   UNL     1      37.618 -11.601   7.136  1.00  0.00     0.127 HD
ENDBRANCH   3  22
BRANCH   1  25
HETATM   25  N   UNL     1      40.340 -14.998   5.423  1.00  0.00    -0.185 N 
HETATM   26  H   UNL     1      39.387 -15.346   5.421  1.00  0.00     0.184 HD
BRANCH  25  27
HETATM   27  C   UNL     1      41.200 -15.784   4.626  1.00  0.00     0.085 A 
HETATM   28  C   UNL     1      42.267 -16.509   5.172  1.00  0.00     0.069 A 
HETATM   29  C   UNL     1      43.092 -17.303   4.371  1.00  0.00     0.070 A 
HETATM   30  C   UNL     1      42.858 -17.361   3.000  1.00  0.00     0.039 A 
HETATM   31  C   UNL     1      41.802 -16.638   2.433  1.00  0.00     0.042 A 
HETATM   32  C   UNL     1      40.974 -15.850   3.236  1.00  0.00     0.095 A 
BRANCH  29  33
HETATM   33  O   UNL     1      44.072 -17.971   5.053  1.00  0.00    -0.356 OA
HETATM   34  C   UNL     1      44.408 -19.273   4.584  1.00  0.00     0.210 C 
ENDBRANCH  29  33
BRANCH  32  35
HETATM   35  O   UNL     1      39.910 -15.103   2.781  1.00  0.00    -0.354 OA
HETATM   36  C   UNL     1      40.051 -14.526   1.485  1.00  0.00     0.210 C 
ENDBRANCH  32  35
ENDBRANCH  25  27
ENDBRANCH   1  25
TORSDOF 8
ENDMDL
MODEL 7
REMARK VINA RESULT:      -8.1      2.412      2.897
REMARK  8 active torsions:
REMARK  status: ('A' for Active; 'I' for Inactive)
REMARK    1  A    between atoms: O_2  and  C_3 
REMARK    2  A    between atoms: C_5  and  N_6 
REMARK    3  A    between atoms: N_6  and  C_7 
REMARK    4  A    between atoms: C_9  and  N_10 
REMARK    5  A    between atoms: C_12  and  C_13 
REMARK    6  A    between atoms: C_13  and  N_14 
REMARK    7  A    between atoms: N_18  and  C_19 
REMARK    8  A    between atoms: C_29  and  O_30 
ROOT
HETATM    1  C   UNL     1      40.676 -13.587   6.000  1.00  0.00     0.731 A 
HETATM    2  N   UNL     1      39.508 -12.999   6.230  1.00  0.00    -0.031 NA
HETATM    3  C   UNL     1      39.525 -11.707   6.494  1.00  0.00     0.219 A 
HETATM    4  N   UNL     1      40.611 -10.954   6.472  1.00  0.00    -0.200 NA
HETATM    5  C   UNL     1      41.740 -11.607   6.200  1.00  0.00     0.174 A 
HETATM    6  N   UNL     1      41.825 -12.912   5.949  1.00  0.00    -0.045 NA
ENDROOT
BRANCH   5   7
HETATM    7  C   UNL     1      42.948 -10.758   5.854  1.00  0.00     0.316 C 
BRANCH   7   8
HETATM    8  N   UNL     1      43.632 -10.064   7.055  1.00  0.00    -0.061 N 
HETATM    9  H   UNL     1      44.551  -9.769   6.701  1.00  0.00     0.280 HD
HETATM   10  C   UNL     1      42.882  -8.814   7.504  1.00  0.00     0.255 C 
HETATM   11  C   UNL     1      43.645  -8.117   8.658  1.00  0.00     0.152 C 
HETATM   12  N   UNL     1      43.985  -9.040   9.771  1.00  0.00    -0.364 N 
HETATM   13  C   UNL     1      44.643 -10.304   9.354  1.00  0.00     0.152 C 
HETATM   14  C   UNL     1      43.862 -11.019   8.223  1.00  0.00     0.255 C 
BRANCH  12  15
HETATM   15  C   UNL     1      43.195  -9.076  10.906  1.00  0.00     0.102 A 
HETATM   16  N   UNL     1      42.032  -9.750  10.833  1.00  0.00    -0.352 N 
HETATM   17  H   UNL     1      41.825 -10.228   9.959  1.00  0.00     0.166 HD
HETATM   18  C   UNL     1      41.177  -9.890  11.858  1.00  0.00     0.089 A 
HETATM   19  C   UNL     1      41.473  -9.325  13.088  1.00  0.00     0.017 A 
HETATM   20  C   UNL     1      42.667  -8.634  13.231  1.00  0.00     0.005 A 
HETATM   21  C   UNL     1      43.535  -8.516  12.144  1.00  0.00     0.048 A 
ENDBRANCH  12  15
ENDBRANCH   7   8
ENDBRANCH   5   7
BRANCH   3  22
HETATM   22  N   UNL     1      38.321 -11.088   6.747  1.00  0.00    -0.270 NA
HETATM   23  H   UNL     1      37.688 -11.751   7.187  1.00  0.00     0.127 HD
HETATM   24  H   UNL     1      38.447 -10.227   7.263  1.00  0.00     0.127 HD
ENDBRANCH   3  22
BRANCH   1  25
HETATM   25  N   UNL     1      40.758 -14.953   5.761  1.00  0.00    -0.185 N 
HETATM   26  H   UNL     1      40.084 -15.476   6.310  1.00  0.00     0.184 HD
BRANCH  25  27
HETATM   27  C   UNL     1      41.164 -15.650   4.603  1.00  0.00     0.085 A 
HETATM   28  C   UNL     1      40.466 -15.555   3.392  1.00  0.00     0.069 A 
HETATM   29  C   UNL     1      40.898 -16.232   2.249  1.00  0.00     0.070 A 
HETATM   30  C   UNL     1      42.038 -17.030   2.320  1.00  0.00     0.039 A 
HETATM   31  C   UNL     1      42.744 -17.146   3.522  1.00  0.00     0.042 A 
HETATM   32  C   UNL     1      42.315 -16.463   4.663  1.00  0.00     0.095 A 
BRANCH  29  33
HETATM   33  O   UNL     1      40.130 -16.018   1.138  1.00  0.00    -0.356 OA
HETATM   34  C   UNL     1      40.167 -14.712   0.572  1.00  0.00     0.210 C 
ENDBRANCH  29  33
BRANCH  32  35
HETATM   35  O   UNL     1      42.936 -16.506   5.891  1.00  0.00    -0.354 OA
HETATM   36  C   UNL     1      43.321 -17.796   6.360  1.00  0.00     0.210 C 
ENDBRANCH  32  35
ENDBRANCH  25  27
ENDBRANCH   1  25
TORSDOF 8
ENDMDL
MODEL 8
REMARK VINA RESULT:      -8.1      4.394      8.378
REMARK  8 active torsions:
REMARK  status: ('A' for Active; 'I' for Inactive)
REMARK    1  A    between atoms: O_2  and  C_3 
REMARK    2  A    between atoms: C_5  and  N_6 
REMARK    3  A    between atoms: N_6  and  C_7 
REMARK    4  A    between atoms: C_9  and  N_10 
REMARK    5  A    between atoms: C_12  and  C_13 
REMARK    6  A    between atoms: C_13  and  N_14 
REMARK    7  A    between atoms: N_18  and  C_19 
REMARK    8  A    between atoms: C_29  and  O_30 
ROOT
HETATM    1  C   UNL     1      40.308 -13.579   5.135  1.00  0.00     0.731 A 
HETATM    2  N   UNL     1      39.610 -13.089   6.153  1.00  0.00    -0.031 NA
HETATM    3  C   UNL     1      39.677 -11.789   6.360  1.00  0.00     0.219 A 
HETATM    4  N   UNL     1      40.330 -10.941   5.584  1.00  0.00    -0.200 NA
HETATM    5  C   UNL     1      40.978 -11.501   4.565  1.00  0.00     0.174 A 
HETATM    6  N   UNL     1      40.991 -12.805   4.292  1.00  0.00    -0.045 NA
ENDROOT
BRANCH   5   7
HETATM    7  C   UNL     1      41.471 -10.565   3.478  1.00  0.00     0.316 C 
BRANCH   7   8
HETATM    8  N   UNL     1      40.527 -10.412   2.262  1.00  0.00    -0.061 N 
HETATM    9  H   UNL     1      40.040  -9.520   2.416  1.00  0.00     0.280 HD
HETATM   10  C   UNL     1      41.293 -10.304   0.946  1.00  0.00     0.255 C 
HETATM   11  C   UNL     1      40.309 -10.079  -0.229  1.00  0.00     0.152 C 
HETATM   12  N   UNL     1      39.205 -11.072  -0.261  1.00  0.00    -0.364 N 
HETATM   13  C   UNL     1      38.495 -11.259   1.029  1.00  0.00     0.152 C 
HETATM   14  C   UNL     1      39.477 -11.518   2.199  1.00  0.00     0.255 C 
BRANCH  12  15
HETATM   15  C   UNL     1      39.279 -12.161  -1.112  1.00  0.00     0.102 A 
HETATM   16  N   UNL     1      38.137 -12.827  -1.370  1.00  0.00    -0.352 N 
HETATM   17  H   UNL     1      37.282 -12.461  -0.958  1.00  0.00     0.166 HD
HETATM   18  C   UNL     1      38.052 -13.884  -2.193  1.00  0.00     0.089 A 
HETATM   19  C   UNL     1      39.185 -14.350  -2.840  1.00  0.00     0.017 A 
HETATM   20  C   UNL     1      40.388 -13.693  -2.629  1.00  0.00     0.005 A 
HETATM   21  C   UNL     1      40.437 -12.592  -1.773  1.00  0.00     0.048 A 
ENDBRANCH  12  15
ENDBRANCH   7   8
ENDBRANCH   5   7
BRANCH   3  22
HETATM   22  N   UNL     1      38.968 -11.271   7.421  1.00  0.00    -0.270 NA
HETATM   23  H   UNL     1      39.155 -10.274   7.497  1.00  0.00     0.127 HD
HETATM   24  H   UNL     1      37.987 -11.507   7.364  1.00  0.00     0.127 HD
ENDBRANCH   3  22
BRANCH   1  25
HETATM   25  N   UNL     1      40.333 -14.943   4.872  1.00  0.00    -0.185 N 
HETATM   26  H   UNL     1      39.405 -15.314   4.698  1.00  0.00     0.184 HD
BRANCH  25  27
HETATM   27  C   UNL     1      41.346 -15.739   4.296  1.00  0.00     0.085 A 
HETATM   28  C   UNL     1      42.525 -16.056   4.983  1.00  0.00     0.069 A 
HETATM   29  C   UNL     1      43.506 -16.867   4.406  1.00  0.00     0.070 A 
HETATM   30  C   UNL     1      43.313 -17.356   3.117  1.00  0.00     0.039 A 
HETATM   31  C   UNL     1      42.147 -17.044   2.410  1.00  0.00     0.042 A 
HETATM   32  C   UNL     1      41.164 -16.239   2.990  1.00  0.00     0.095 A 
BRANCH  29  33
HETATM   33  O   UNL     1      44.585 -17.111   5.210  1.00  0.00    -0.356 OA
HETATM   34  C   UNL     1      44.464 -16.742   6.580  1.00  0.00     0.210 C 
ENDBRANCH  29  33
BRANCH  32  35
HETATM   35  O   UNL     1      39.982 -15.873   2.385  1.00  0.00    -0.354 OA
HETATM   36  C   UNL     1      40.091 -15.264   1.100  1.00  0.00     0.210 C 
ENDBRANCH  32  35
ENDBRANCH  25  27
ENDBRANCH   1  25
TORSDOF 8
ENDMDL
MODEL 9
REMARK VINA RESULT:      -8.0      1.995      3.096
REMARK  8 active torsions:
REMARK  status: ('A' for Active; 'I' for Inactive)
REMARK    1  A    between atoms: O_2  and  C_3 
REMARK    2  A    between atoms: C_5  and  N_6 
REMARK    3  A    between atoms: N_6  and  C_7 
REMARK    4  A    between atoms: C_9  and  N_10 
REMARK    5  A    between atoms: C_12  and  C_13 
REMARK    6  A    between atoms: C_13  and  N_14 
REMARK    7  A    between atoms: N_18  and  C_19 
REMARK    8  A    between atoms: C_29  and  O_30 
ROOT
HETATM    1  C   UNL     1      42.521 -14.619   4.677  1.00  0.00     0.731 A 
HETATM    2  N   UNL     1      41.496 -15.214   5.277  1.00  0.00    -0.031 NA
HETATM    3  C   UNL     1      40.657 -14.443   5.941  1.00  0.00     0.219 A 
HETATM    4  N   UNL     1      40.727 -13.124   5.984  1.00  0.00    -0.200 NA
HETATM    5  C   UNL     1      41.760 -12.597   5.330  1.00  0.00     0.174 A 
HETATM    6  N   UNL     1      42.674 -13.295   4.657  1.00  0.00    -0.045 NA
ENDROOT
BRANCH   5   7
HETATM    7  C   UNL     1      41.715 -11.102   5.082  1.00  0.00     0.316 C 
BRANCH   7   8
HETATM    8  N   UNL     1      42.504 -10.241   6.097  1.00  0.00    -0.061 N 
HETATM    9  H   UNL     1      43.111  -9.645   5.522  1.00  0.00     0.280 HD
HETATM   10  C   UNL     1      41.592  -9.330   6.913  1.00  0.00     0.255 C 
HETATM   11  C   UNL     1      42.434  -8.439   7.860  1.00  0.00     0.152 C 
HETATM   12  N   UNL     1      43.395  -9.214   8.685  1.00  0.00    -0.364 N 
HETATM   13  C   UNL     1      44.240 -10.170   7.926  1.00  0.00     0.152 C 
HETATM   14  C   UNL     1      43.395 -11.085   7.004  1.00  0.00     0.255 C 
BRANCH  12  15
HETATM   15  C   UNL     1      43.080  -9.539   9.992  1.00  0.00     0.102 A 
HETATM   16  N   UNL     1      41.947  -9.023  10.505  1.00  0.00    -0.352 N 
HETATM   17  H   UNL     1      41.370  -8.460   9.885  1.00  0.00     0.166 HD
HETATM   18  C   UNL     1      41.502  -9.270  11.747  1.00  0.00     0.089 A 
HETATM   19  C   UNL     1      42.221 -10.106  12.586  1.00  0.00     0.017 A 
HETATM   20  C   UNL     1      43.388 -10.684  12.108  1.00  0.00     0.005 A 
HETATM   21  C   UNL     1      43.815 -10.410  10.807  1.00  0.00     0.048 A 
ENDBRANCH  12  15
ENDBRANCH   7   8
ENDBRANCH   5   7
BRANCH   3  22
HETATM   22  N   UNL     1      39.598 -15.050   6.579  1.00  0.00    -0.270 NA
HETATM   23  H   UNL     1      38.827 -15.157   5.926  1.00  0.00     0.127 HD
HETATM   24  H   UNL     1      39.880 -15.908   7.035  1.00  0.00     0.127 HD
ENDBRANCH   3  22
BRANCH   1  25
HETATM   25  N   UNL     1      43.480 -15.357   3.995  1.00  0.00    -0.185 N 
HETATM   26  H   UNL     1      44.419 -15.011   4.166  1.00  0.00     0.184 HD
BRANCH  25  27
HETATM   27  C   UNL     1      43.472 -16.711   3.596  1.00  0.00     0.085 A 
HETATM   28  C   UNL     1      44.103 -17.712   4.345  1.00  0.00     0.069 A 
HETATM   29  C   UNL     1      44.062 -19.051   3.948  1.00  0.00     0.070 A 
HETATM   30  C   UNL     1      43.394 -19.394   2.774  1.00  0.00     0.039 A 
HETATM   31  C   UNL     1      42.764 -18.407   2.007  1.00  0.00     0.042 A 
HETATM   32  C   UNL     1      42.800 -17.070   2.409  1.00  0.00     0.095 A 
BRANCH  29  33
HETATM   33  O   UNL     1      44.698 -19.915   4.796  1.00  0.00    -0.356 OA
HETATM   34  C   UNL     1      43.874 -20.724   5.629  1.00  0.00     0.210 C 
ENDBRANCH  29  33
BRANCH  32  35
HETATM   35  O   UNL     1      42.215 -16.024   1.731  1.00  0.00    -0.354 OA
HETATM   36  C   UNL     1      40.789 -15.986   1.735  1.00  0.00     0.210 C 
ENDBRANCH  32  35
ENDBRANCH  25  27
ENDBRANCH   1  25
TORSDOF 8
ENDMDL
MODEL 10
REMARK VINA RESULT:      -7.8      3.323      8.463
REMARK  8 active torsions:
REMARK  status: ('A' for Active; 'I' for Inactive)
REMARK    1  A    between atoms: O_2  and  C_3 
REMARK    2  A    between atoms: C_5  and  N_6 
REMARK    3  A    between atoms: N_6  and  C_7 
REMARK    4  A    between atoms: C_9  and  N_10 
REMARK    5  A    between atoms: C_12  and  C_13 
REMARK    6  A    between atoms: C_13  and  N_14 
REMARK    7  A    between atoms: N_18  and  C_19 
REMARK    8  A    between atoms: C_29  and  O_30 
ROOT
HETATM    1  C   UNL     1      40.245  -9.552   7.646  1.00  0.00     0.731 A 
HETATM    2  N   UNL     1      39.043  -9.225   7.186  1.00  0.00    -0.031 NA
HETATM    3  C   UNL     1      38.706  -9.687   5.999  1.00  0.00     0.219 A 
HETATM    4  N   UNL     1      39.450 -10.506   5.276  1.00  0.00    -0.200 NA
HETATM    5  C   UNL     1      40.626 -10.817   5.817  1.00  0.00     0.174 A 
HETATM    6  N   UNL     1      41.065 -10.377   6.995  1.00  0.00    -0.045 NA
ENDROOT
BRANCH   5   7
HETATM    7  C   UNL     1      41.372 -11.982   5.195  1.00  0.00     0.316 C 
BRANCH   7   8
HETATM    8  N   UNL     1      41.471 -13.248   6.079  1.00  0.00    -0.061 N 
HETATM    9  H   UNL     1      41.062 -12.973   6.980  1.00  0.00     0.280 HD
HETATM   10  C   UNL     1      40.643 -14.405   5.525  1.00  0.00     0.255 C 
HETATM   11  C   UNL     1      40.716 -15.621   6.481  1.00  0.00     0.152 C 
HETATM   12  N   UNL     1      42.107 -16.000   6.835  1.00  0.00    -0.364 N 
HETATM   13  C   UNL     1      42.961 -14.878   7.299  1.00  0.00     0.152 C 
HETATM   14  C   UNL     1      42.915 -13.673   6.326  1.00  0.00     0.255 C 
BRANCH  12  15
HETATM   15  C   UNL     1      42.730 -17.043   6.173  1.00  0.00     0.102 A 
HETATM   16  N   UNL     1      43.006 -16.874   4.866  1.00  0.00    -0.352 N 
HETATM   17  H   UNL     1      42.779 -15.972   4.456  1.00  0.00     0.166 HD
HETATM   18  C   UNL     1      43.627 -17.788   4.104  1.00  0.00     0.089 A 
HETATM   19  C   UNL     1      44.029 -18.993   4.657  1.00  0.00     0.017 A 
HETATM   20  C   UNL     1      43.789 -19.218   6.005  1.00  0.00     0.005 A 
HETATM   21  C   UNL     1      43.148 -18.241   6.768  1.00  0.00     0.048 A 
ENDBRANCH  12  15
ENDBRANCH   7   8
ENDBRANCH   5   7
BRANCH   3  22
HETATM   22  N   UNL     1      37.466  -9.344   5.505  1.00  0.00    -0.270 NA
HETATM   23  H   UNL     1      36.952 -10.188   5.269  1.00  0.00     0.127 HD
HETATM   24  H   UNL     1      36.977  -8.719   6.131  1.00  0.00     0.127 HD
ENDBRANCH   3  22
BRANCH   1  25
HETATM   25  N   UNL     1      40.702  -9.071   8.867  1.00  0.00    -0.185 N 
HETATM   26  H   UNL     1      39.977  -9.081   9.576  1.00  0.00     0.184 HD
BRANCH  25  27
HETATM   27  C   UNL     1      41.999  -9.094   9.424  1.00  0.00     0.085 A 
HETATM   28  C   UNL     1      43.124  -8.663   8.710  1.00  0.00     0.069 A 
HETATM   29  C   UNL     1      44.396  -8.667   9.288  1.00  0.00     0.070 A 
HETATM   30  C   UNL     1      44.550  -9.126  10.594  1.00  0.00     0.039 A 
HETATM   31  C   UNL     1      43.440  -9.569  11.322  1.00  0.00     0.042 A 
HETATM   32  C   UNL     1      42.167  -9.557  10.745  1.00  0.00     0.095 A 
BRANCH  29  33
HETATM   33  O   UNL     1      45.390  -8.190   8.477  1.00  0.00    -0.356 OA
HETATM   34  C   UNL     1      46.309  -9.144   7.956  1.00  0.00     0.210 C 
ENDBRANCH  29  33
BRANCH  32  35
HETATM   35  O   UNL     1      41.012  -9.969  11.371  1.00  0.00    -0.354 OA
HETATM   36  C   UNL     1      41.010  -9.915  12.796  1.00  0.00     0.210 C 
ENDBRANCH  32  35
ENDBRANCH  25  27
ENDBRANCH   1  25
TORSDOF 8
ENDMDL
