MODEL 1
REMARK VINA RESULT:      -9.0      0.000      0.000
REMARK  10 active torsions:
REMARK  status: ('A' for Active; 'I' for Inactive)
REMARK    1  A    between atoms: C_3  and  C_4 
REMARK       I    between atoms: C_4  and  N_5 
REMARK    2  A    between atoms: N_5  and  N_6 
REMARK    3  A    between atoms: N_6  and  C_7 
REMARK    4  A    between atoms: C_7  and  C_8 
REMARK    5  A    between atoms: C_8  and  O_9 
REMARK    6  A    between atoms: O_9  and  C_10 
REMARK    7  A    between atoms: C_22  and  O_23 
REMARK    8  A    between atoms: O_23  and  C_24 
REMARK    9  A    between atoms: C_24  and  C_25 
REMARK   10  A    between atoms: N_27  and  C_28 
ROOT
HETATM    1  C   UNL     1      39.522 -13.362   2.225  1.00  0.00     0.001 A 
HETATM    2  C   UNL     1      39.449 -12.954   3.557  1.00  0.00     0.020 A 
HETATM    3  C   UNL     1      40.496 -12.203   4.100  1.00  0.00     0.067 A 
HETATM    4  C   UNL     1      41.623 -11.890   3.334  1.00  0.00     0.085 A 
HETATM    5  C   UNL     1      41.681 -12.283   1.997  1.00  0.00     0.038 A 
HETATM    6  C   UNL     1      40.632 -13.024   1.448  1.00  0.00     0.003 A 
ENDROOT
BRANCH   3   7
HETATM    7  C   UNL     1      40.439 -11.781   5.508  1.00  0.00     0.272 C 
HETATM    8  N   UNL     1      40.746 -12.683   6.516  1.00  0.00    -0.264 N 
HETATM    9  H   UNL     1      41.053 -12.207   7.367  1.00  0.00     0.190 HD
HETATM   10  O   UNL     1      40.180 -10.612   5.772  1.00  0.00    -0.266 OA
BRANCH   8  11
HETATM   11  N   UNL     1      41.103 -13.955   6.340  1.00  0.00    -0.285 N 
HETATM   12  H   UNL     1      40.519 -14.535   5.733  1.00  0.00     0.188 HD
BRANCH  11  13
HETATM   13  C   UNL     1      42.240 -14.512   6.772  1.00  0.00     0.114 C 
HETATM   14  N   UNL     1      43.181 -13.897   7.467  1.00  0.00    -0.386 N 
HETATM   15  H   UNL     1      44.000 -14.421   7.767  1.00  0.00     0.157 HD
HETATM   16  H   UNL     1      43.123 -12.924   7.752  1.00  0.00     0.157 HD
BRANCH  13  17
HETATM   17  C   UNL     1      42.499 -15.946   6.389  1.00  0.00     0.253 C 
BRANCH  17  18
HETATM   18  O   UNL     1      43.792 -16.034   5.766  1.00  0.00    -0.342 OA
BRANCH  18  19
HETATM   19  C   UNL     1      43.799 -17.028   4.821  1.00  0.00     0.091 A 
HETATM   20  C   UNL     1      43.448 -16.778   3.486  1.00  0.00     0.069 A 
HETATM   21 CL   UNL     1      43.036 -15.187   2.960  1.00  0.00    -0.081 Cl
HETATM   22  C   UNL     1      43.431 -17.821   2.562  1.00  0.00     0.050 A 
HETATM   23  C   UNL     1      43.745 -19.114   2.981  1.00  0.00     0.035 A 
HETATM   24 CL   UNL     1      43.727 -20.407   1.848  1.00  0.00    -0.084 Cl
HETATM   25  C   UNL     1      44.066 -19.372   4.316  1.00  0.00     0.026 A 
HETATM   26  C   UNL     1      44.086 -18.328   5.242  1.00  0.00     0.040 A 
ENDBRANCH  18  19
ENDBRANCH  17  18
ENDBRANCH  13  17
ENDBRANCH  11  13
ENDBRANCH   8  11
ENDBRANCH   3   7
BRANCH   4  27
HETATM   27  O   UNL     1      42.572 -11.059   3.870  1.00  0.00    -0.343 OA
BRANCH  27  28
HETATM   28  C   UNL     1      43.771 -11.775   4.256  1.00  0.00     0.258 C 
BRANCH  28  29
HETATM   29  C   UNL     1      44.327 -11.309   5.566  1.00  0.00     0.172 A 
HETATM   30  N   UNL     1      43.565 -10.880   6.585  1.00  0.00    -0.147 NA
HETATM   31  N   UNL     1      44.504 -10.519   7.506  1.00  0.00    -0.207 N 
HETATM   32  C   UNL     1      45.757 -10.766   7.008  1.00  0.00     0.239 A 
HETATM   33  N   UNL     1      45.676 -11.263   5.795  1.00  0.00    -0.223 NA
BRANCH  31  34
HETATM   34  C   UNL     1      44.188  -9.970   8.777  1.00  0.00     0.153 A 
HETATM   35  N   UNL     1      44.041 -10.828   9.818  1.00  0.00    -0.217 NA
HETATM   36  C   UNL     1      43.749 -10.282  11.016  1.00  0.00     0.128 A 
HETATM   37 CL   UNL     1      43.580 -11.414  12.291  1.00  0.00    -0.062 Cl
HETATM   38  C   UNL     1      43.587  -8.927  11.242  1.00  0.00     0.044 A 
HETATM   39  C   UNL     1      43.739  -8.064  10.161  1.00  0.00     0.007 A 
HETATM   40  C   UNL     1      44.045  -8.588   8.906  1.00  0.00     0.052 A 
ENDBRANCH  31  34
ENDBRANCH  28  29
ENDBRANCH  27  28
ENDBRANCH   4  27
TORSDOF 10
ENDMDL
MODEL 2
REMARK VINA RESULT:      -8.7      3.591      7.398
REMARK  10 active torsions:
REMARK  status: ('A' for Active; 'I' for Inactive)
REMARK    1  A    between atoms: C_3  and  C_4 
REMARK       I    between atoms: C_4  and  N_5 
REMARK    2  A    between atoms: N_5  and  N_6 
REMARK    3  A    between atoms: N_6  and  C_7 
REMARK    4  A    between atoms: C_7  and  C_8 
REMARK    5  A    between atoms: C_8  and  O_9 
REMARK    6  A    between atoms: O_9  and  C_10 
REMARK    7  A    between atoms: C_22  and  O_23 
REMARK    8  A    between atoms: O_23  and  C_24 
REMARK    9  A    between atoms: C_24  and  C_25 
REMARK   10  A    between atoms: N_27  and  C_28 
ROOT
HETATM    1  C   UNL     1      41.090  -8.225   6.058  1.00  0.00     0.001 A 
HETATM    2  C   UNL     1      41.853  -9.263   6.593  1.00  0.00     0.020 A 
HETATM    3  C   UNL     1      42.229 -10.329   5.771  1.00  0.00     0.067 A 
HETATM    4  C   UNL     1      41.818 -10.381   4.435  1.00  0.00     0.085 A 
HETATM    5  C   UNL     1      41.072  -9.331   3.901  1.00  0.00     0.038 A 
HETATM    6  C   UNL     1      40.705  -8.258   4.715  1.00  0.00     0.003 A 
ENDROOT
BRANCH   3   7
HETATM    7  C   UNL     1      43.019 -11.439   6.328  1.00  0.00     0.272 C 
HETATM    8  N   UNL     1      42.426 -12.673   6.546  1.00  0.00    -0.264 N 
HETATM    9  H   UNL     1      43.115 -13.428   6.546  1.00  0.00     0.190 HD
HETATM   10  O   UNL     1      44.216 -11.274   6.535  1.00  0.00    -0.266 OA
BRANCH   8  11
HETATM   11  N   UNL     1      41.153 -12.980   6.295  1.00  0.00    -0.285 N 
HETATM   12  H   UNL     1      40.429 -12.479   6.815  1.00  0.00     0.188 HD
BRANCH  11  13
HETATM   13  C   UNL     1      40.724 -13.787   5.318  1.00  0.00     0.114 C 
HETATM   14  N   UNL     1      39.796 -13.488   4.426  1.00  0.00    -0.386 N 
HETATM   15  H   UNL     1      39.559 -14.168   3.708  1.00  0.00     0.157 HD
HETATM   16  H   UNL     1      39.317 -12.593   4.393  1.00  0.00     0.157 HD
BRANCH  13  17
HETATM   17  C   UNL     1      41.306 -15.176   5.260  1.00  0.00     0.253 C 
BRANCH  17  18
HETATM   18  O   UNL     1      42.596 -15.114   4.628  1.00  0.00    -0.342 OA
BRANCH  18  19
HETATM   19  C   UNL     1      42.939 -16.341   4.122  1.00  0.00     0.091 A 
HETATM   20  C   UNL     1      43.913 -17.145   4.732  1.00  0.00     0.069 A 
HETATM   21 CL   UNL     1      44.695 -16.641   6.186  1.00  0.00    -0.081 Cl
HETATM   22  C   UNL     1      44.261 -18.371   4.167  1.00  0.00     0.050 A 
HETATM   23  C   UNL     1      43.648 -18.777   2.983  1.00  0.00     0.035 A 
HETATM   24 CL   UNL     1      44.071 -20.288   2.278  1.00  0.00    -0.084 Cl
HETATM   25  C   UNL     1      42.699 -17.967   2.356  1.00  0.00     0.026 A 
HETATM   26  C   UNL     1      42.348 -16.741   2.922  1.00  0.00     0.040 A 
ENDBRANCH  18  19
ENDBRANCH  17  18
ENDBRANCH  13  17
ENDBRANCH  11  13
ENDBRANCH   8  11
ENDBRANCH   3   7
BRANCH   4  27
HETATM   27  O   UNL     1      42.300 -11.386   3.638  1.00  0.00    -0.343 OA
BRANCH  27  28
HETATM   28  C   UNL     1      42.178 -11.073   2.229  1.00  0.00     0.258 C 
BRANCH  28  29
HETATM   29  C   UNL     1      41.464 -12.141   1.459  1.00  0.00     0.172 A 
HETATM   30  N   UNL     1      40.722 -11.898   0.366  1.00  0.00    -0.147 NA
HETATM   31  N   UNL     1      40.245 -13.141   0.067  1.00  0.00    -0.207 N 
HETATM   32  C   UNL     1      40.734 -14.051   0.968  1.00  0.00     0.239 A 
HETATM   33  N   UNL     1      41.503 -13.452   1.850  1.00  0.00    -0.223 NA
BRANCH  31  34
HETATM   34  C   UNL     1      39.372 -13.406  -1.020  1.00  0.00     0.153 A 
HETATM   35  N   UNL     1      38.483 -12.443  -1.370  1.00  0.00    -0.217 NA
HETATM   36  C   UNL     1      37.671 -12.716  -2.411  1.00  0.00     0.128 A 
HETATM   37 CL   UNL     1      36.575 -11.460  -2.806  1.00  0.00    -0.062 Cl
HETATM   38  C   UNL     1      37.685 -13.899  -3.127  1.00  0.00     0.044 A 
HETATM   39  C   UNL     1      38.601 -14.876  -2.751  1.00  0.00     0.007 A 
HETATM   40  C   UNL     1      39.461 -14.632  -1.682  1.00  0.00     0.052 A 
ENDBRANCH  31  34
ENDBRANCH  28  29
ENDBRANCH  27  28
ENDBRANCH   4  27
TORSDOF 10
ENDMDL
MODEL 3
REMARK VINA RESULT:      -8.6      2.921      7.051
REMARK  10 active torsions:
REMARK  status: ('A' for Active; 'I' for Inactive)
REMARK    1  A    between atoms: C_3  and  C_4 
REMARK       I    between atoms: C_4  and  N_5 
REMARK    2  A    between atoms: N_5  and  N_6 
REMARK    3  A    between atoms: N_6  and  C_7 
REMARK    4  A    between atoms: C_7  and  C_8 
REMARK    5  A    between atoms: C_8  and  O_9 
REMARK    6  A    between atoms: O_9  and  C_10 
REMARK    7  A    between atoms: C_22  and  O_23 
REMARK    8  A    between atoms: O_23  and  C_24 
REMARK    9  A    between atoms: C_24  and  C_25 
REMARK   10  A    between atoms: N_27  and  C_28 
ROOT
HETATM    1  C   UNL     1      42.650  -9.371   8.492  1.00  0.00     0.001 A 
HETATM    2  C   UNL     1      43.655 -10.286   8.182  1.00  0.00     0.020 A 
HETATM    3  C   UNL     1      43.512 -11.103   7.056  1.00  0.00     0.067 A 
HETATM    4  C   UNL     1      42.360 -11.036   6.266  1.00  0.00     0.085 A 
HETATM    5  C   UNL     1      41.368 -10.104   6.570  1.00  0.00     0.038 A 
HETATM    6  C   UNL     1      41.512  -9.279   7.686  1.00  0.00     0.003 A 
ENDROOT
BRANCH   3   7
HETATM    7  C   UNL     1      44.557 -12.085   6.728  1.00  0.00     0.272 C 
HETATM    8  N   UNL     1      44.304 -13.442   6.862  1.00  0.00    -0.264 N 
HETATM    9  H   UNL     1      44.911 -14.000   6.259  1.00  0.00     0.190 HD
HETATM   10  O   UNL     1      45.627 -11.690   6.276  1.00  0.00    -0.266 OA
BRANCH   8  11
HETATM   11  N   UNL     1      43.158 -13.982   7.279  1.00  0.00    -0.285 N 
HETATM   12  H   UNL     1      42.323 -13.391   7.278  1.00  0.00     0.188 HD
BRANCH  11  13
HETATM   13  C   UNL     1      42.965 -15.273   7.567  1.00  0.00     0.114 C 
HETATM   14  N   UNL     1      43.254 -15.855   8.718  1.00  0.00    -0.386 N 
HETATM   15  H   UNL     1      43.046 -16.843   8.842  1.00  0.00     0.157 HD
HETATM   16  H   UNL     1      43.650 -15.362   9.513  1.00  0.00     0.157 HD
BRANCH  13  17
HETATM   17  C   UNL     1      42.425 -16.155   6.472  1.00  0.00     0.253 C 
BRANCH  17  18
HETATM   18  O   UNL     1      42.934 -15.693   5.208  1.00  0.00    -0.342 OA
BRANCH  18  19
HETATM   19  C   UNL     1      43.152 -16.753   4.366  1.00  0.00     0.091 A 
HETATM   20  C   UNL     1      42.421 -16.913   3.180  1.00  0.00     0.069 A 
HETATM   21 CL   UNL     1      41.240 -15.749   2.701  1.00  0.00    -0.081 Cl
HETATM   22  C   UNL     1      42.645 -18.023   2.366  1.00  0.00     0.050 A 
HETATM   23  C   UNL     1      43.583 -18.978   2.754  1.00  0.00     0.035 A 
HETATM   24 CL   UNL     1      43.866 -20.351   1.757  1.00  0.00    -0.084 Cl
HETATM   25  C   UNL     1      44.293 -18.837   3.949  1.00  0.00     0.026 A 
HETATM   26  C   UNL     1      44.072 -17.725   4.763  1.00  0.00     0.040 A 
ENDBRANCH  18  19
ENDBRANCH  17  18
ENDBRANCH  13  17
ENDBRANCH  11  13
ENDBRANCH   8  11
ENDBRANCH   3   7
BRANCH   4  27
HETATM   27  O   UNL     1      42.311 -11.773   5.112  1.00  0.00    -0.343 OA
BRANCH  27  28
HETATM   28  C   UNL     1      41.817 -11.002   3.990  1.00  0.00     0.258 C 
BRANCH  28  29
HETATM   29  C   UNL     1      40.803 -11.745   3.177  1.00  0.00     0.172 A 
HETATM   30  N   UNL     1      40.902 -11.926   1.850  1.00  0.00    -0.147 NA
HETATM   31  N   UNL     1      39.744 -12.589   1.568  1.00  0.00    -0.207 N 
HETATM   32  C   UNL     1      39.034 -12.787   2.724  1.00  0.00     0.239 A 
HETATM   33  N   UNL     1      39.675 -12.270   3.748  1.00  0.00    -0.223 NA
BRANCH  31  34
HETATM   34  C   UNL     1      39.368 -12.992   0.260  1.00  0.00     0.153 A 
HETATM   35  N   UNL     1      38.485 -12.213  -0.414  1.00  0.00    -0.217 NA
HETATM   36  C   UNL     1      38.150 -12.613  -1.657  1.00  0.00     0.128 A 
HETATM   37 CL   UNL     1      37.036 -11.586  -2.458  1.00  0.00    -0.062 Cl
HETATM   38  C   UNL     1      38.638 -13.751  -2.273  1.00  0.00     0.044 A 
HETATM   39  C   UNL     1      39.540 -14.538  -1.565  1.00  0.00     0.007 A 
HETATM   40  C   UNL     1      39.915 -14.158  -0.277  1.00  0.00     0.052 A 
ENDBRANCH  31  34
ENDBRANCH  28  29
ENDBRANCH  27  28
ENDBRANCH   4  27
TORSDOF 10
ENDMDL
MODEL 4
REMARK VINA RESULT:      -8.6      2.321      3.409
REMARK  10 active torsions:
REMARK  status: ('A' for Active; 'I' for Inactive)
REMARK    1  A    between atoms: C_3  and  C_4 
REMARK       I    between atoms: C_4  and  N_5 
REMARK    2  A    between atoms: N_5  and  N_6 
REMARK    3  A    between atoms: N_6  and  C_7 
REMARK    4  A    between atoms: C_7  and  C_8 
REMARK    5  A    between atoms: C_8  and  O_9 
REMARK    6  A    between atoms: O_9  and  C_10 
REMARK    7  A    between atoms: C_22  and  O_23 
REMARK    8  A    between atoms: O_23  and  C_24 
REMARK    9  A    between atoms: C_24  and  C_25 
REMARK   10  A    between atoms: N_27  and  C_28 
ROOT
HETATM    1  C   UNL     1      38.816 -12.231  -1.632  1.00  0.00     0.001 A 
HETATM    2  C   UNL     1      38.357 -12.349  -0.320  1.00  0.00     0.020 A 
HETATM    3  C   UNL     1      39.208 -12.006   0.735  1.00  0.00     0.067 A 
HETATM    4  C   UNL     1      40.517 -11.581   0.488  1.00  0.00     0.085 A 
HETATM    5  C   UNL     1      40.963 -11.445  -0.826  1.00  0.00     0.038 A 
HETATM    6  C   UNL     1      40.113 -11.776  -1.883  1.00  0.00     0.003 A 
ENDROOT
BRANCH   3   7
HETATM    7  C   UNL     1      38.743 -12.143   2.124  1.00  0.00     0.272 C 
HETATM    8  N   UNL     1      38.864 -13.359   2.780  1.00  0.00    -0.264 N 
HETATM    9  H   UNL     1      38.888 -13.239   3.795  1.00  0.00     0.190 HD
HETATM   10  O   UNL     1      38.307 -11.157   2.708  1.00  0.00    -0.266 OA
BRANCH   8  11
HETATM   11  N   UNL     1      39.380 -14.474   2.264  1.00  0.00    -0.285 N 
HETATM   12  H   UNL     1      39.220 -14.659   1.271  1.00  0.00     0.188 HD
BRANCH  11  13
HETATM   13  C   UNL     1      40.215 -15.309   2.892  1.00  0.00     0.114 C 
HETATM   14  N   UNL     1      40.167 -15.622   4.176  1.00  0.00    -0.386 N 
HETATM   15  H   UNL     1      40.839 -16.289   4.550  1.00  0.00     0.157 HD
HETATM   16  H   UNL     1      39.470 -15.256   4.817  1.00  0.00     0.157 HD
BRANCH  13  17
HETATM   17  C   UNL     1      41.340 -15.903   2.085  1.00  0.00     0.253 C 
BRANCH  17  18
HETATM   18  O   UNL     1      42.582 -15.664   2.771  1.00  0.00    -0.342 OA
BRANCH  18  19
HETATM   19  C   UNL     1      43.053 -16.827   3.323  1.00  0.00     0.091 A 
HETATM   20  C   UNL     1      43.556 -16.871   4.631  1.00  0.00     0.069 A 
HETATM   21 CL   UNL     1      43.560 -15.462   5.628  1.00  0.00    -0.081 Cl
HETATM   22  C   UNL     1      44.061 -18.064   5.145  1.00  0.00     0.050 A 
HETATM   23  C   UNL     1      44.080 -19.203   4.341  1.00  0.00     0.035 A 
HETATM   24 CL   UNL     1      44.701 -20.679   4.967  1.00  0.00    -0.084 Cl
HETATM   25  C   UNL     1      43.607 -19.156   3.028  1.00  0.00     0.026 A 
HETATM   26  C   UNL     1      43.099 -17.963   2.513  1.00  0.00     0.040 A 
ENDBRANCH  18  19
ENDBRANCH  17  18
ENDBRANCH  13  17
ENDBRANCH  11  13
ENDBRANCH   8  11
ENDBRANCH   3   7
BRANCH   4  27
HETATM   27  O   UNL     1      41.278 -11.149   1.543  1.00  0.00    -0.343 OA
BRANCH  27  28
HETATM   28  C   UNL     1      42.111 -12.202   2.085  1.00  0.00     0.258 C 
BRANCH  28  29
HETATM   29  C   UNL     1      42.317 -12.075   3.562  1.00  0.00     0.172 A 
HETATM   30  N   UNL     1      43.341 -11.403   4.114  1.00  0.00    -0.147 NA
HETATM   31  N   UNL     1      43.135 -11.618   5.445  1.00  0.00    -0.207 N 
HETATM   32  C   UNL     1      42.006 -12.376   5.620  1.00  0.00     0.239 A 
HETATM   33  N   UNL     1      41.472 -12.675   4.457  1.00  0.00    -0.223 NA
BRANCH  31  34
HETATM   34  C   UNL     1      43.988 -11.116   6.463  1.00  0.00     0.153 A 
HETATM   35  N   UNL     1      43.421 -10.407   7.472  1.00  0.00    -0.217 NA
HETATM   36  C   UNL     1      44.250  -9.948   8.431  1.00  0.00     0.128 A 
HETATM   37 CL   UNL     1      43.475  -9.065   9.678  1.00  0.00    -0.062 Cl
HETATM   38  C   UNL     1      45.619 -10.148   8.445  1.00  0.00     0.044 A 
HETATM   39  C   UNL     1      46.181 -10.874   7.401  1.00  0.00     0.007 A 
HETATM   40  C   UNL     1      45.358 -11.370   6.391  1.00  0.00     0.052 A 
ENDBRANCH  31  34
ENDBRANCH  28  29
ENDBRANCH  27  28
ENDBRANCH   4  27
TORSDOF 10
ENDMDL
MODEL 5
REMARK VINA RESULT:      -8.6      3.387      7.243
REMARK  10 active torsions:
REMARK  status: ('A' for Active; 'I' for Inactive)
REMARK    1  A    between atoms: C_3  and  C_4 
REMARK       I    between atoms: C_4  and  N_5 
REMARK    2  A    between atoms: N_5  and  N_6 
REMARK    3  A    between atoms: N_6  and  C_7 
REMARK    4  A    between atoms: C_7  and  C_8 
REMARK    5  A    between atoms: C_8  and  O_9 
REMARK    6  A    between atoms: O_9  and  C_10 
REMARK    7  A    between atoms: C_22  and  O_23 
REMARK    8  A    between atoms: O_23  and  C_24 
REMARK    9  A    between atoms: C_24  and  C_25 
REMARK   10  A    between atoms: N_27  and  C_28 
ROOT
HETATM    1  C   UNL     1      41.549  -9.220   5.500  1.00  0.00     0.001 A 
HETATM    2  C   UNL     1      42.050 -10.053   4.499  1.00  0.00     0.020 A 
HETATM    3  C   UNL     1      42.949 -11.067   4.841  1.00  0.00     0.067 A 
HETATM    4  C   UNL     1      43.374 -11.230   6.164  1.00  0.00     0.085 A 
HETATM    5  C   UNL     1      42.853 -10.408   7.163  1.00  0.00     0.038 A 
HETATM    6  C   UNL     1      41.946  -9.401   6.827  1.00  0.00     0.003 A 
ENDROOT
BRANCH   3   7
HETATM    7  C   UNL     1      43.499 -11.941   3.793  1.00  0.00     0.272 C 
HETATM    8  N   UNL     1      42.870 -13.138   3.485  1.00  0.00    -0.264 N 
HETATM    9  H   UNL     1      43.084 -13.442   2.534  1.00  0.00     0.190 HD
HETATM   10  O   UNL     1      44.479 -11.567   3.158  1.00  0.00    -0.266 OA
BRANCH   8  11
HETATM   11  N   UNL     1      41.766 -13.608   4.065  1.00  0.00    -0.285 N 
HETATM   12  H   UNL     1      41.769 -13.716   5.082  1.00  0.00     0.188 HD
BRANCH  11  13
HETATM   13  C   UNL     1      40.595 -13.820   3.455  1.00  0.00     0.114 C 
HETATM   14  N   UNL     1      39.408 -13.482   3.930  1.00  0.00    -0.386 N 
HETATM   15  H   UNL     1      38.578 -13.669   3.373  1.00  0.00     0.157 HD
HETATM   16  H   UNL     1      39.273 -13.011   4.820  1.00  0.00     0.157 HD
BRANCH  13  17
HETATM   17  C   UNL     1      40.621 -14.555   2.140  1.00  0.00     0.253 C 
BRANCH  17  18
HETATM   18  O   UNL     1      41.123 -13.671   1.123  1.00  0.00    -0.342 OA
BRANCH  18  19
HETATM   19  C   UNL     1      40.158 -13.436   0.177  1.00  0.00     0.091 A 
HETATM   20  C   UNL     1      39.382 -12.268   0.189  1.00  0.00     0.069 A 
HETATM   21 CL   UNL     1      39.642 -11.043   1.377  1.00  0.00    -0.081 Cl
HETATM   22  C   UNL     1      38.386 -12.081  -0.768  1.00  0.00     0.050 A 
HETATM   23  C   UNL     1      38.156 -13.073  -1.719  1.00  0.00     0.035 A 
HETATM   24 CL   UNL     1      36.928 -12.851  -2.904  1.00  0.00    -0.084 Cl
HETATM   25  C   UNL     1      38.906 -14.251  -1.718  1.00  0.00     0.026 A 
HETATM   26  C   UNL     1      39.906 -14.438  -0.762  1.00  0.00     0.040 A 
ENDBRANCH  18  19
ENDBRANCH  17  18
ENDBRANCH  13  17
ENDBRANCH  11  13
ENDBRANCH   8  11
ENDBRANCH   3   7
BRANCH   4  27
HETATM   27  O   UNL     1      44.167 -12.305   6.472  1.00  0.00    -0.343 OA
BRANCH  27  28
HETATM   28  C   UNL     1      43.575 -13.148   7.490  1.00  0.00     0.258 C 
BRANCH  28  29
HETATM   29  C   UNL     1      43.218 -14.509   6.978  1.00  0.00     0.172 A 
HETATM   30  N   UNL     1      43.824 -15.091   5.929  1.00  0.00    -0.147 NA
HETATM   31  N   UNL     1      43.132 -16.260   5.816  1.00  0.00    -0.207 N 
HETATM   32  C   UNL     1      42.178 -16.328   6.798  1.00  0.00     0.239 A 
HETATM   33  N   UNL     1      42.211 -15.245   7.542  1.00  0.00    -0.223 NA
BRANCH  31  34
HETATM   34  C   UNL     1      43.391 -17.232   4.815  1.00  0.00     0.153 A 
HETATM   35  N   UNL     1      43.786 -18.467   5.217  1.00  0.00    -0.217 NA
HETATM   36  C   UNL     1      44.018 -19.375   4.248  1.00  0.00     0.128 A 
HETATM   37 CL   UNL     1      44.509 -20.913   4.818  1.00  0.00    -0.062 Cl
HETATM   38  C   UNL     1      43.885 -19.127   2.893  1.00  0.00     0.044 A 
HETATM   39  C   UNL     1      43.482 -17.855   2.501  1.00  0.00     0.007 A 
HETATM   40  C   UNL     1      43.229 -16.888   3.472  1.00  0.00     0.052 A 
ENDBRANCH  31  34
ENDBRANCH  28  29
ENDBRANCH  27  28
ENDBRANCH   4  27
TORSDOF 10
ENDMDL
MODEL 6
REMARK VINA RESULT:      -8.5      1.990      2.615
REMARK  10 active torsions:
REMARK  status: ('A' for Active; 'I' for Inactive)
REMARK    1  A    between atoms: C_3  and  C_4 
REMARK       I    between atoms: C_4  and  N_5 
REMARK    2  A    between atoms: N_5  and  N_6 
REMARK    3  A    between atoms: N_6  and  C_7 
REMARK    4  A    between atoms: C_7  and  C_8 
REMARK    5  A    between atoms: C_8  and  O_9 
REMARK    6  A    between atoms: O_9  and  C_10 
REMARK    7  A    between atoms: C_22  and  O_23 
REMARK    8  A    between atoms: O_23  and  C_24 
REMARK    9  A    between atoms: C_24  and  C_25 
REMARK   10  A    between atoms: N_27  and  C_28 
ROOT
HETATM    1  C   UNL     1      39.645 -10.219   2.622  1.00  0.00     0.001 A 
HETATM    2  C   UNL     1      39.203 -11.195   3.516  1.00  0.00     0.020 A 
HETATM    3  C   UNL     1      40.141 -11.896   4.280  1.00  0.00     0.067 A 
HETATM    4  C   UNL     1      41.510 -11.655   4.130  1.00  0.00     0.085 A 
HETATM    5  C   UNL     1      41.944 -10.664   3.250  1.00  0.00     0.038 A 
HETATM    6  C   UNL     1      41.011  -9.953   2.493  1.00  0.00     0.003 A 
ENDROOT
BRANCH   3   7
HETATM    7  C   UNL     1      39.689 -12.939   5.214  1.00  0.00     0.272 C 
HETATM    8  N   UNL     1      40.062 -14.260   5.014  1.00  0.00    -0.264 N 
HETATM    9  H   UNL     1      40.038 -14.794   5.885  1.00  0.00     0.190 HD
HETATM   10  O   UNL     1      39.034 -12.616   6.199  1.00  0.00    -0.266 OA
BRANCH   8  11
HETATM   11  N   UNL     1      40.824 -14.711   4.017  1.00  0.00    -0.285 N 
HETATM   12  H   UNL     1      41.837 -14.724   4.158  1.00  0.00     0.188 HD
BRANCH  11  13
HETATM   13  C   UNL     1      40.378 -15.286   2.895  1.00  0.00     0.114 C 
HETATM   14  N   UNL     1      39.162 -15.152   2.393  1.00  0.00    -0.386 N 
HETATM   15  H   UNL     1      38.931 -15.616   1.518  1.00  0.00     0.157 HD
HETATM   16  H   UNL     1      38.439 -14.579   2.819  1.00  0.00     0.157 HD
BRANCH  13  17
HETATM   17  C   UNL     1      41.320 -16.209   2.167  1.00  0.00     0.253 C 
BRANCH  17  18
HETATM   18  O   UNL     1      42.654 -15.996   2.660  1.00  0.00    -0.342 OA
BRANCH  18  19
HETATM   19  C   UNL     1      43.124 -17.130   3.270  1.00  0.00     0.091 A 
HETATM   20  C   UNL     1      43.598 -17.115   4.590  1.00  0.00     0.069 A 
HETATM   21 CL   UNL     1      43.566 -15.666   5.528  1.00  0.00    -0.081 Cl
HETATM   22  C   UNL     1      44.102 -18.281   5.165  1.00  0.00     0.050 A 
HETATM   23  C   UNL     1      44.150 -19.451   4.409  1.00  0.00     0.035 A 
HETATM   24 CL   UNL     1      44.770 -20.894   5.110  1.00  0.00    -0.084 Cl
HETATM   25  C   UNL     1      43.706 -19.464   3.085  1.00  0.00     0.026 A 
HETATM   26  C   UNL     1      43.198 -18.299   2.510  1.00  0.00     0.040 A 
ENDBRANCH  18  19
ENDBRANCH  17  18
ENDBRANCH  13  17
ENDBRANCH  11  13
ENDBRANCH   8  11
ENDBRANCH   3   7
BRANCH   4  27
HETATM   27  O   UNL     1      42.385 -12.284   4.977  1.00  0.00    -0.343 OA
BRANCH  27  28
HETATM   28  C   UNL     1      43.723 -11.738   4.886  1.00  0.00     0.258 C 
BRANCH  28  29
HETATM   29  C   UNL     1      44.216 -11.193   6.190  1.00  0.00     0.172 A 
HETATM   30  N   UNL     1      43.405 -10.736   7.158  1.00  0.00    -0.147 NA
HETATM   31  N   UNL     1      44.298 -10.304   8.094  1.00  0.00    -0.207 N 
HETATM   32  C   UNL     1      45.575 -10.541   7.656  1.00  0.00     0.239 A 
HETATM   33  N   UNL     1      45.554 -11.099   6.467  1.00  0.00    -0.223 NA
BRANCH  31  34
HETATM   34  C   UNL     1      43.919  -9.703   9.323  1.00  0.00     0.153 A 
HETATM   35  N   UNL     1      43.600  -8.384   9.312  1.00  0.00    -0.217 NA
HETATM   36  C   UNL     1      43.235  -7.839  10.490  1.00  0.00     0.128 A 
HETATM   37 CL   UNL     1      42.841  -6.173  10.410  1.00  0.00    -0.062 Cl
HETATM   38  C   UNL     1      43.174  -8.528  11.688  1.00  0.00     0.044 A 
HETATM   39  C   UNL     1      43.508  -9.878  11.679  1.00  0.00     0.007 A 
HETATM   40  C   UNL     1      43.886 -10.481  10.481  1.00  0.00     0.052 A 
ENDBRANCH  31  34
ENDBRANCH  28  29
ENDBRANCH  27  28
ENDBRANCH   4  27
TORSDOF 10
ENDMDL
MODEL 7
REMARK VINA RESULT:      -8.5      3.405      6.926
REMARK  10 active torsions:
REMARK  status: ('A' for Active; 'I' for Inactive)
REMARK    1  A    between atoms: C_3  and  C_4 
REMARK       I    between atoms: C_4  and  N_5 
REMARK    2  A    between atoms: N_5  and  N_6 
REMARK    3  A    between atoms: N_6  and  C_7 
REMARK    4  A    between atoms: C_7  and  C_8 
REMARK    5  A    between atoms: C_8  and  O_9 
REMARK    6  A    between atoms: O_9  and  C_10 
REMARK    7  A    between atoms: C_22  and  O_23 
REMARK    8  A    between atoms: O_23  and  C_24 
REMARK    9  A    between atoms: C_24  and  C_25 
REMARK   10  A    between atoms: N_27  and  C_28 
ROOT
HETATM    1  C   UNL     1      43.541 -12.107   6.531  1.00  0.00     0.001 A 
HETATM    2  C   UNL     1      42.832 -13.272   6.238  1.00  0.00     0.020 A 
HETATM    3  C   UNL     1      41.457 -13.193   5.997  1.00  0.00     0.067 A 
HETATM    4  C   UNL     1      40.786 -11.969   6.082  1.00  0.00     0.085 A 
HETATM    5  C   UNL     1      41.504 -10.804   6.354  1.00  0.00     0.038 A 
HETATM    6  C   UNL     1      42.879 -10.878   6.584  1.00  0.00     0.003 A 
ENDROOT
BRANCH   3   7
HETATM    7  C   UNL     1      40.695 -14.416   5.705  1.00  0.00     0.272 C 
HETATM    8  N   UNL     1      40.210 -14.644   4.426  1.00  0.00    -0.264 N 
HETATM    9  H   UNL     1      40.064 -15.640   4.250  1.00  0.00     0.190 HD
HETATM   10  O   UNL     1      40.550 -15.255   6.587  1.00  0.00    -0.266 OA
BRANCH   8  11
HETATM   11  N   UNL     1      40.366 -13.833   3.379  1.00  0.00    -0.285 N 
HETATM   12  H   UNL     1      39.587 -13.218   3.131  1.00  0.00     0.188 HD
BRANCH  11  13
HETATM   13  C   UNL     1      41.504 -13.645   2.702  1.00  0.00     0.114 C 
HETATM   14  N   UNL     1      41.969 -12.477   2.292  1.00  0.00    -0.386 N 
HETATM   15  H   UNL     1      42.861 -12.441   1.803  1.00  0.00     0.157 HD
HETATM   16  H   UNL     1      41.499 -11.593   2.464  1.00  0.00     0.157 HD
BRANCH  13  17
HETATM   17  C   UNL     1      42.298 -14.868   2.326  1.00  0.00     0.253 C 
BRANCH  17  18
HETATM   18  O   UNL     1      43.113 -15.256   3.446  1.00  0.00    -0.342 OA
BRANCH  18  19
HETATM   19  C   UNL     1      43.292 -16.616   3.457  1.00  0.00     0.091 A 
HETATM   20  C   UNL     1      43.905 -17.270   4.536  1.00  0.00     0.069 A 
HETATM   21 CL   UNL     1      44.421 -16.391   5.929  1.00  0.00    -0.081 Cl
HETATM   22  C   UNL     1      44.102 -18.649   4.495  1.00  0.00     0.050 A 
HETATM   23  C   UNL     1      43.706 -19.365   3.366  1.00  0.00     0.035 A 
HETATM   24 CL   UNL     1      43.946 -21.067   3.307  1.00  0.00    -0.084 Cl
HETATM   25  C   UNL     1      43.122 -18.713   2.278  1.00  0.00     0.026 A 
HETATM   26  C   UNL     1      42.921 -17.333   2.318  1.00  0.00     0.040 A 
ENDBRANCH  18  19
ENDBRANCH  17  18
ENDBRANCH  13  17
ENDBRANCH  11  13
ENDBRANCH   8  11
ENDBRANCH   3   7
BRANCH   4  27
HETATM   27  O   UNL     1      39.462 -11.919   5.729  1.00  0.00    -0.343 OA
BRANCH  27  28
HETATM   28  C   UNL     1      39.035 -10.576   5.395  1.00  0.00     0.258 C 
BRANCH  28  29
HETATM   29  C   UNL     1      38.687 -10.424   3.947  1.00  0.00     0.172 A 
HETATM   30  N   UNL     1      38.790 -11.418   3.050  1.00  0.00    -0.147 NA
HETATM   31  N   UNL     1      38.427 -10.793   1.893  1.00  0.00    -0.207 N 
HETATM   32  C   UNL     1      38.110  -9.485   2.156  1.00  0.00     0.239 A 
HETATM   33  N   UNL     1      38.261  -9.227   3.435  1.00  0.00    -0.223 NA
BRANCH  31  34
HETATM   34  C   UNL     1      38.398 -11.436   0.628  1.00  0.00     0.153 A 
HETATM   35  N   UNL     1      39.225 -12.496   0.437  1.00  0.00    -0.217 NA
HETATM   36  C   UNL     1      39.173 -13.094  -0.770  1.00  0.00     0.128 A 
HETATM   37 CL   UNL     1      40.235 -14.427  -0.948  1.00  0.00    -0.062 Cl
HETATM   38  C   UNL     1      38.349 -12.698  -1.808  1.00  0.00     0.044 A 
HETATM   39  C   UNL     1      37.512 -11.607  -1.594  1.00  0.00     0.007 A 
HETATM   40  C   UNL     1      37.532 -10.962  -0.358  1.00  0.00     0.052 A 
ENDBRANCH  31  34
ENDBRANCH  28  29
ENDBRANCH  27  28
ENDBRANCH   4  27
TORSDOF 10
ENDMDL
MODEL 8
REMARK VINA RESULT:      -8.5      2.420      4.003
REMARK  10 active torsions:
REMARK  status: ('A' for Active; 'I' for Inactive)
REMARK    1  A    between atoms: C_3  and  C_4 
REMARK       I    between atoms: C_4  and  N_5 
REMARK    2  A    between atoms: N_5  and  N_6 
REMARK    3  A    between atoms: N_6  and  C_7 
REMARK    4  A    between atoms: C_7  and  C_8 
REMARK    5  A    between atoms: C_8  and  O_9 
REMARK    6  A    between atoms: O_9  and  C_10 
REMARK    7  A    between atoms: C_22  and  O_23 
REMARK    8  A    between atoms: O_23  and  C_24 
REMARK    9  A    between atoms: C_24  and  C_25 
REMARK   10  A    between atoms: N_27  and  C_28 
ROOT
HETATM    1  C   UNL     1      41.618 -14.417   6.190  1.00  0.00     0.001 A 
HETATM    2  C   UNL     1      41.220 -13.090   6.025  1.00  0.00     0.020 A 
HETATM    3  C   UNL     1      42.176 -12.074   6.115  1.00  0.00     0.067 A 
HETATM    4  C   UNL     1      43.512 -12.373   6.401  1.00  0.00     0.085 A 
HETATM    5  C   UNL     1      43.907 -13.703   6.545  1.00  0.00     0.038 A 
HETATM    6  C   UNL     1      42.957 -14.721   6.445  1.00  0.00     0.003 A 
ENDROOT
BRANCH   3   7
HETATM    7  C   UNL     1      41.767 -10.670   5.960  1.00  0.00     0.272 C 
HETATM    8  N   UNL     1      41.975 -10.014   4.757  1.00  0.00    -0.264 N 
HETATM    9  H   UNL     1      41.328  -9.232   4.636  1.00  0.00     0.190 HD
HETATM   10  O   UNL     1      41.187 -10.112   6.885  1.00  0.00    -0.266 OA
BRANCH   8  11
HETATM   11  N   UNL     1      42.535 -10.543   3.669  1.00  0.00    -0.285 N 
HETATM   12  H   UNL     1      43.490 -10.901   3.748  1.00  0.00     0.188 HD
BRANCH  11  13
HETATM   13  C   UNL     1      41.912 -10.781   2.509  1.00  0.00     0.114 C 
HETATM   14  N   UNL     1      41.878  -9.961   1.473  1.00  0.00    -0.386 N 
HETATM   15  H   UNL     1      41.392 -10.250   0.626  1.00  0.00     0.157 HD
HETATM   16  H   UNL     1      42.340  -9.057   1.457  1.00  0.00     0.157 HD
BRANCH  13  17
HETATM   17  C   UNL     1      41.136 -12.067   2.390  1.00  0.00     0.253 C 
BRANCH  17  18
HETATM   18  O   UNL     1      41.666 -12.830   1.292  1.00  0.00    -0.342 OA
BRANCH  18  19
HETATM   19  C   UNL     1      42.007 -14.091   1.708  1.00  0.00     0.091 A 
HETATM   20  C   UNL     1      41.250 -15.216   1.349  1.00  0.00     0.069 A 
HETATM   21 CL   UNL     1      39.872 -15.065   0.320  1.00  0.00    -0.081 Cl
HETATM   22  C   UNL     1      41.606 -16.478   1.821  1.00  0.00     0.050 A 
HETATM   23  C   UNL     1      42.706 -16.606   2.668  1.00  0.00     0.035 A 
HETATM   24 CL   UNL     1      43.153 -18.159   3.256  1.00  0.00    -0.084 Cl
HETATM   25  C   UNL     1      43.446 -15.485   3.051  1.00  0.00     0.026 A 
HETATM   26  C   UNL     1      43.092 -14.222   2.577  1.00  0.00     0.040 A 
ENDBRANCH  18  19
ENDBRANCH  17  18
ENDBRANCH  13  17
ENDBRANCH  11  13
ENDBRANCH   8  11
ENDBRANCH   3   7
BRANCH   4  27
HETATM   27  O   UNL     1      44.434 -11.359   6.370  1.00  0.00    -0.343 OA
BRANCH  27  28
HETATM   28  C   UNL     1      45.166 -11.246   7.614  1.00  0.00     0.258 C 
BRANCH  28  29
HETATM   29  C   UNL     1      44.552 -10.261   8.560  1.00  0.00     0.172 A 
HETATM   30  N   UNL     1      44.057 -10.596   9.763  1.00  0.00    -0.147 NA
HETATM   31  N   UNL     1      43.570  -9.403  10.209  1.00  0.00    -0.207 N 
HETATM   32  C   UNL     1      43.813  -8.428   9.276  1.00  0.00     0.239 A 
HETATM   33  N   UNL     1      44.429  -8.937   8.234  1.00  0.00    -0.223 NA
BRANCH  31  34
HETATM   34  C   UNL     1      42.913  -9.240  11.457  1.00  0.00     0.153 A 
HETATM   35  N   UNL     1      41.786  -9.962  11.679  1.00  0.00    -0.217 NA
HETATM   36  C   UNL     1      41.185  -9.795  12.875  1.00  0.00     0.128 A 
HETATM   37 CL   UNL     1      39.771 -10.736  13.097  1.00  0.00    -0.062 Cl
HETATM   38  C   UNL     1      41.637  -8.944  13.868  1.00  0.00     0.044 A 
HETATM   39  C   UNL     1      42.792  -8.210  13.619  1.00  0.00     0.007 A 
HETATM   40  C   UNL     1      43.446  -8.356  12.397  1.00  0.00     0.052 A 
ENDBRANCH  31  34
ENDBRANCH  28  29
ENDBRANCH  27  28
ENDBRANCH   4  27
TORSDOF 10
ENDMDL
MODEL 9
REMARK VINA RESULT:      -8.4      3.100      5.112
REMARK  10 active torsions:
REMARK  status: ('A' for Active; 'I' for Inactive)
REMARK    1  A    between atoms: C_3  and  C_4 
REMARK       I    between atoms: C_4  and  N_5 
REMARK    2  A    between atoms: N_5  and  N_6 
REMARK    3  A    between atoms: N_6  and  C_7 
REMARK    4  A    between atoms: C_7  and  C_8 
REMARK    5  A    between atoms: C_8  and  O_9 
REMARK    6  A    between atoms: O_9  and  C_10 
REMARK    7  A    between atoms: C_22  and  O_23 
REMARK    8  A    between atoms: O_23  and  C_24 
REMARK    9  A    between atoms: C_24  and  C_25 
REMARK   10  A    between atoms: N_27  and  C_28 
ROOT
HETATM    1  C   UNL     1      46.441 -10.810   6.850  1.00  0.00     0.001 A 
HETATM    2  C   UNL     1      45.282 -11.356   6.298  1.00  0.00     0.020 A 
HETATM    3  C   UNL     1      44.060 -11.167   6.950  1.00  0.00     0.067 A 
HETATM    4  C   UNL     1      43.995 -10.470   8.160  1.00  0.00     0.085 A 
HETATM    5  C   UNL     1      45.154  -9.909   8.697  1.00  0.00     0.038 A 
HETATM    6  C   UNL     1      46.375 -10.086   8.044  1.00  0.00     0.003 A 
ENDROOT
BRANCH   3   7
HETATM    7  C   UNL     1      42.833 -11.753   6.387  1.00  0.00     0.272 C 
HETATM    8  N   UNL     1      42.478 -13.056   6.701  1.00  0.00    -0.264 N 
HETATM    9  H   UNL     1      41.473 -13.209   6.595  1.00  0.00     0.190 HD
HETATM   10  O   UNL     1      42.103 -11.055   5.691  1.00  0.00    -0.266 OA
BRANCH   8  11
HETATM   11  N   UNL     1      43.161 -13.879   7.496  1.00  0.00    -0.285 N 
HETATM   12  H   UNL     1      43.820 -13.464   8.159  1.00  0.00     0.188 HD
BRANCH  11  13
HETATM   13  C   UNL     1      42.963 -15.197   7.609  1.00  0.00     0.114 C 
HETATM   14  N   UNL     1      43.237 -15.926   8.677  1.00  0.00    -0.386 N 
HETATM   15  H   UNL     1      43.025 -16.921   8.667  1.00  0.00     0.157 HD
HETATM   16  H   UNL     1      43.624 -15.543   9.534  1.00  0.00     0.157 HD
BRANCH  13  17
HETATM   17  C   UNL     1      42.434 -15.925   6.401  1.00  0.00     0.253 C 
BRANCH  17  18
HETATM   18  O   UNL     1      43.226 -15.563   5.256  1.00  0.00    -0.342 OA
BRANCH  18  19
HETATM   19  C   UNL     1      43.399 -16.647   4.434  1.00  0.00     0.091 A 
HETATM   20  C   UNL     1      42.901 -16.663   3.123  1.00  0.00     0.069 A 
HETATM   21 CL   UNL     1      42.085 -15.291   2.466  1.00  0.00    -0.081 Cl
HETATM   22  C   UNL     1      43.063 -17.797   2.328  1.00  0.00     0.050 A 
HETATM   23  C   UNL     1      43.704 -18.917   2.856  1.00  0.00     0.035 A 
HETATM   24 CL   UNL     1      43.909 -20.321   1.884  1.00  0.00    -0.084 Cl
HETATM   25  C   UNL     1      44.175 -18.915   4.171  1.00  0.00     0.026 A 
HETATM   26  C   UNL     1      44.016 -17.780   4.966  1.00  0.00     0.040 A 
ENDBRANCH  18  19
ENDBRANCH  17  18
ENDBRANCH  13  17
ENDBRANCH  11  13
ENDBRANCH   8  11
ENDBRANCH   3   7
BRANCH   4  27
HETATM   27  O   UNL     1      42.764 -10.213   8.706  1.00  0.00    -0.343 OA
BRANCH  27  28
HETATM   28  C   UNL     1      42.724  -8.936   9.388  1.00  0.00     0.258 C 
BRANCH  28  29
HETATM   29  C   UNL     1      42.360  -9.064  10.835  1.00  0.00     0.172 A 
HETATM   30  N   UNL     1      41.760  -8.090  11.539  1.00  0.00    -0.147 NA
HETATM   31  N   UNL     1      41.693  -8.642  12.784  1.00  0.00    -0.207 N 
HETATM   32  C   UNL     1      42.227  -9.904  12.758  1.00  0.00     0.239 A 
HETATM   33  N   UNL     1      42.651 -10.196  11.549  1.00  0.00    -0.223 NA
BRANCH  31  34
HETATM   34  C   UNL     1      41.147  -7.974  13.911  1.00  0.00     0.153 A 
HETATM   35  N   UNL     1      40.213  -7.014  13.688  1.00  0.00    -0.217 NA
HETATM   36  C   UNL     1      39.704  -6.400  14.775  1.00  0.00     0.128 A 
HETATM   37 CL   UNL     1      38.528  -5.204  14.429  1.00  0.00    -0.062 Cl
HETATM   38  C   UNL     1      40.073  -6.679  16.079  1.00  0.00     0.044 A 
HETATM   39  C   UNL     1      41.035  -7.663  16.286  1.00  0.00     0.007 A 
HETATM   40  C   UNL     1      41.583  -8.325  15.189  1.00  0.00     0.052 A 
ENDBRANCH  31  34
ENDBRANCH  28  29
ENDBRANCH  27  28
ENDBRANCH   4  27
TORSDOF 10
ENDMDL
MODEL 10
REMARK VINA RESULT:      -8.4      3.684     10.301
REMARK  10 active torsions:
REMARK  status: ('A' for Active; 'I' for Inactive)
REMARK    1  A    between atoms: C_3  and  C_4 
REMARK       I    between atoms: C_4  and  N_5 
REMARK    2  A    between atoms: N_5  and  N_6 
REMARK    3  A    between atoms: N_6  and  C_7 
REMARK    4  A    between atoms: C_7  and  C_8 
REMARK    5  A    between atoms: C_8  and  O_9 
REMARK    6  A    between atoms: O_9  and  C_10 
REMARK    7  A    between atoms: C_22  and  O_23 
REMARK    8  A    between atoms: O_23  and  C_24 
REMARK    9  A    between atoms: C_24  and  C_25 
REMARK   10  A    between atoms: N_27  and  C_28 
ROOT
HETATM    1  C   UNL     1      46.422  -9.079   8.392  1.00  0.00     0.001 A 
HETATM    2  C   UNL     1      45.578  -9.338   9.472  1.00  0.00     0.020 A 
HETATM    3  C   UNL     1      44.684 -10.411   9.398  1.00  0.00     0.067 A 
HETATM    4  C   UNL     1      44.606 -11.198   8.245  1.00  0.00     0.085 A 
HETATM    5  C   UNL     1      45.467 -10.946   7.177  1.00  0.00     0.038 A 
HETATM    6  C   UNL     1      46.369  -9.883   7.251  1.00  0.00     0.003 A 
ENDROOT
BRANCH   3   7
HETATM    7  C   UNL     1      43.776 -10.684  10.523  1.00  0.00     0.272 C 
HETATM    8  N   UNL     1      42.433 -10.350  10.429  1.00  0.00    -0.264 N 
HETATM    9  H   UNL     1      41.859 -10.917  11.055  1.00  0.00     0.190 HD
HETATM   10  O   UNL     1      44.209 -11.265  11.512  1.00  0.00    -0.266 OA
BRANCH   8  11
HETATM   11  N   UNL     1      41.845  -9.778   9.379  1.00  0.00    -0.285 N 
HETATM   12  H   UNL     1      41.785 -10.317   8.512  1.00  0.00     0.188 HD
BRANCH  11  13
HETATM   13  C   UNL     1      41.195  -8.609   9.391  1.00  0.00     0.114 C 
HETATM   14  N   UNL     1      41.554  -7.523   8.728  1.00  0.00    -0.386 N 
HETATM   15  H   UNL     1      40.974  -6.689   8.789  1.00  0.00     0.157 HD
HETATM   16  H   UNL     1      42.372  -7.476   8.127  1.00  0.00     0.157 HD
BRANCH  13  17
HETATM   17  C   UNL     1      39.981  -8.500  10.276  1.00  0.00     0.253 C 
BRANCH  17  18
HETATM   18  O   UNL     1      40.334  -8.923  11.605  1.00  0.00    -0.342 OA
BRANCH  18  19
HETATM   19  C   UNL     1      39.848  -8.038  12.532  1.00  0.00     0.091 A 
HETATM   20  C   UNL     1      40.504  -7.814  13.752  1.00  0.00     0.069 A 
HETATM   21 CL   UNL     1      41.988  -8.614  14.121  1.00  0.00    -0.081 Cl
HETATM   22  C   UNL     1      39.960  -6.934  14.686  1.00  0.00     0.050 A 
HETATM   23  C   UNL     1      38.751  -6.298  14.405  1.00  0.00     0.035 A 
HETATM   24 CL   UNL     1      38.073  -5.210  15.551  1.00  0.00    -0.084 Cl
HETATM   25  C   UNL     1      38.081  -6.540  13.203  1.00  0.00     0.026 A 
HETATM   26  C   UNL     1      38.626  -7.419  12.266  1.00  0.00     0.040 A 
ENDBRANCH  18  19
ENDBRANCH  17  18
ENDBRANCH  13  17
ENDBRANCH  11  13
ENDBRANCH   8  11
ENDBRANCH   3   7
BRANCH   4  27
HETATM   27  O   UNL     1      43.797 -12.304   8.258  1.00  0.00    -0.343 OA
BRANCH  27  28
HETATM   28  C   UNL     1      43.358 -12.677   6.929  1.00  0.00     0.258 C 
BRANCH  28  29
HETATM   29  C   UNL     1      43.316 -14.160   6.728  1.00  0.00     0.172 A 
HETATM   30  N   UNL     1      43.616 -14.761   5.564  1.00  0.00    -0.147 NA
HETATM   31  N   UNL     1      43.380 -16.072   5.855  1.00  0.00    -0.207 N 
HETATM   32  C   UNL     1      42.980 -16.190   7.160  1.00  0.00     0.239 A 
HETATM   33  N   UNL     1      42.933 -15.008   7.732  1.00  0.00    -0.223 NA
BRANCH  31  34
HETATM   34  C   UNL     1      43.536 -17.125   4.915  1.00  0.00     0.153 A 
HETATM   35  N   UNL     1      43.906 -18.343   5.385  1.00  0.00    -0.217 NA
HETATM   36  C   UNL     1      44.040 -19.329   4.475  1.00  0.00     0.128 A 
HETATM   37 CL   UNL     1      44.503 -20.843   5.129  1.00  0.00    -0.062 Cl
HETATM   38  C   UNL     1      43.833 -19.175   3.116  1.00  0.00     0.044 A 
HETATM   39  C   UNL     1      43.458 -17.917   2.653  1.00  0.00     0.007 A 
HETATM   40  C   UNL     1      43.305 -16.872   3.563  1.00  0.00     0.052 A 
ENDBRANCH  31  34
ENDBRANCH  28  29
ENDBRANCH  27  28
ENDBRANCH   4  27
TORSDOF 10
ENDMDL
