MODEL 1
REMARK VINA RESULT:     -10.0      0.000      0.000
REMARK  8 active torsions:
REMARK  status: ('A' for Active; 'I' for Inactive)
REMARK    1  A    between atoms: C_4  and  S_5 
REMARK    2  A    between atoms: S_5  and  C_6 
REMARK    3  A    between atoms: C_6  and  C_7 
REMARK       I    between atoms: C_7  and  N_8 
REMARK    4  A    between atoms: N_8  and  C_9 
REMARK    5  A    between atoms: C_20  and  C_21 
REMARK    6  A    between atoms: C_27  and  C_28 
REMARK       I    between atoms: C_28  and  N_29 
REMARK    7  A    between atoms: N_29  and  C_30 
REMARK    8  A    between atoms: C_31  and  O_32 
ROOT
HETATM    1  C   UNL     1      42.917 -15.518   7.758  1.00  0.00     0.069 C 
HETATM    2  C   UNL     1      42.812 -14.599   6.567  1.00  0.00     0.019 C 
HETATM    3  N   UNL     1      42.484 -13.282   6.846  1.00  0.00    -0.353 N 
HETATM    4  C   UNL     1      42.499 -12.252   5.923  1.00  0.00     0.087 C 
HETATM    5  C   UNL     1      42.663 -12.544   4.612  1.00  0.00     0.055 C 
HETATM    6  C   UNL     1      42.431 -11.509   3.523  1.00  0.00     0.019 C 
HETATM    7  N   UNL     1      42.237 -10.649   2.622  1.00  0.00    -0.096 N 
HETATM    8  C   UNL     1      42.936 -13.978   4.143  1.00  0.00     0.104 C 
HETATM    9  C   UNL     1      43.051 -14.970   5.289  1.00  0.00     0.046 C 
HETATM   10  H   UNL     1      42.529 -12.989   7.819  1.00  0.00     0.166 HD
ENDROOT
BRANCH   4  11
HETATM   11  S   UNL     1      42.452 -10.599   6.493  1.00  0.00    -0.102 SA
BRANCH  11  12
HETATM   12  C   UNL     1      44.084 -10.398   7.272  1.00  0.00     0.184 C 
BRANCH  12  13
HETATM   13  C   UNL     1      43.999 -10.395   8.803  1.00  0.00     0.231 C 
HETATM   14  N   UNL     1      43.029  -9.560   9.327  1.00  0.00    -0.326 N 
HETATM   15  H   UNL     1      42.532  -8.998   8.641  1.00  0.00     0.169 HD
HETATM   16  O   UNL     1      44.735 -11.131   9.456  1.00  0.00    -0.272 OA
BRANCH  14  17
HETATM   17  C   UNL     1      42.702  -9.321  10.675  1.00  0.00     0.036 A 
HETATM   18  C   UNL     1      41.584  -9.852  11.317  1.00  0.00     0.053 A 
HETATM   19  C   UNL     1      41.349  -9.561  12.664  1.00  0.00     0.036 A 
HETATM   20 CL   UNL     1      39.964 -10.214  13.452  1.00  0.00    -0.084 Cl
HETATM   21  C   UNL     1      42.223  -8.746  13.383  1.00  0.00     0.024 A 
HETATM   22  C   UNL     1      43.341  -8.212  12.747  1.00  0.00     0.004 A 
HETATM   23  C   UNL     1      43.575  -8.496  11.400  1.00  0.00     0.029 A 
ENDBRANCH  14  17
ENDBRANCH  12  13
ENDBRANCH  11  12
ENDBRANCH   4  11
BRANCH   8  24
HETATM   24  C   UNL     1      41.922 -14.410   3.084  1.00  0.00    -0.044 A 
HETATM   25  C   UNL     1      40.596 -14.674   3.464  1.00  0.00     0.008 A 
HETATM   26  C   UNL     1      39.665 -15.126   2.528  1.00  0.00     0.001 A 
HETATM   27  C   UNL     1      40.047 -15.315   1.203  1.00  0.00     0.000 A 
HETATM   28  C   UNL     1      41.357 -15.047   0.809  1.00  0.00     0.001 A 
HETATM   29  C   UNL     1      42.292 -14.596   1.742  1.00  0.00     0.008 A 
ENDBRANCH   8  24
BRANCH   9  30
HETATM   30  C   UNL     1      43.732 -16.268   5.014  1.00  0.00     0.255 C 
HETATM   31  N   UNL     1      42.915 -17.203   4.418  1.00  0.00    -0.321 N 
HETATM   32  H   UNL     1      41.918 -17.047   4.471  1.00  0.00     0.169 HD
HETATM   33  O   UNL     1      44.885 -16.425   5.400  1.00  0.00    -0.268 OA
BRANCH  31  34
HETATM   34  C   UNL     1      43.332 -18.471   3.950  1.00  0.00     0.068 A 
HETATM   35  C   UNL     1      43.790 -19.514   4.780  1.00  0.00     0.095 A 
HETATM   36  C   UNL     1      44.095 -20.759   4.212  1.00  0.00     0.039 A 
HETATM   37  C   UNL     1      43.995 -20.952   2.833  1.00  0.00     0.003 A 
HETATM   38  C   UNL     1      43.622 -19.898   2.006  1.00  0.00     0.002 A 
HETATM   39  C   UNL     1      43.302 -18.660   2.560  1.00  0.00     0.032 A 
BRANCH  35  40
HETATM   40  O   UNL     1      44.048 -19.207   6.092  1.00  0.00    -0.354 OA
HETATM   41  C   UNL     1      43.090 -19.601   7.063  1.00  0.00     0.210 C 
ENDBRANCH  35  40
ENDBRANCH  31  34
ENDBRANCH   9  30
TORSDOF 8
ENDMDL
MODEL 2
REMARK VINA RESULT:      -9.4      3.664      9.955
REMARK  8 active torsions:
REMARK  status: ('A' for Active; 'I' for Inactive)
REMARK    1  A    between atoms: C_4  and  S_5 
REMARK    2  A    between atoms: S_5  and  C_6 
REMARK    3  A    between atoms: C_6  and  C_7 
REMARK       I    between atoms: C_7  and  N_8 
REMARK    4  A    between atoms: N_8  and  C_9 
REMARK    5  A    between atoms: C_20  and  C_21 
REMARK    6  A    between atoms: C_27  and  C_28 
REMARK       I    between atoms: C_28  and  N_29 
REMARK    7  A    between atoms: N_29  and  C_30 
REMARK    8  A    between atoms: C_31  and  O_32 
ROOT
HETATM    1  C   UNL     1      45.201 -10.266   8.068  1.00  0.00     0.069 C 
HETATM    2  C   UNL     1      43.895 -10.595   7.388  1.00  0.00     0.019 C 
HETATM    3  N   UNL     1      43.940 -11.617   6.453  1.00  0.00    -0.353 N 
HETATM    4  C   UNL     1      42.832 -12.178   5.844  1.00  0.00     0.087 C 
HETATM    5  C   UNL     1      41.622 -11.595   6.009  1.00  0.00     0.055 C 
HETATM    6  C   UNL     1      40.418 -11.992   5.171  1.00  0.00     0.019 C 
HETATM    7  N   UNL     1      39.421 -12.322   4.475  1.00  0.00    -0.096 N 
HETATM    8  C   UNL     1      41.439 -10.390   6.940  1.00  0.00     0.104 C 
HETATM    9  C   UNL     1      42.717  -9.992   7.661  1.00  0.00     0.046 C 
HETATM   10  H   UNL     1      44.779 -12.191   6.433  1.00  0.00     0.166 HD
ENDROOT
BRANCH   4  11
HETATM   11  S   UNL     1      43.006 -13.701   5.002  1.00  0.00    -0.102 SA
BRANCH  11  12
HETATM   12  C   UNL     1      43.624 -14.810   6.306  1.00  0.00     0.184 C 
BRANCH  12  13
HETATM   13  C   UNL     1      43.229 -16.271   6.060  1.00  0.00     0.231 C 
HETATM   14  N   UNL     1      44.045 -16.950   5.173  1.00  0.00    -0.326 N 
HETATM   15  H   UNL     1      44.770 -16.385   4.741  1.00  0.00     0.169 HD
HETATM   16  O   UNL     1      42.274 -16.754   6.664  1.00  0.00    -0.272 OA
BRANCH  14  17
HETATM   17  C   UNL     1      43.952 -18.282   4.729  1.00  0.00     0.036 A 
HETATM   18  C   UNL     1      43.825 -18.656   3.391  1.00  0.00     0.053 A 
HETATM   19  C   UNL     1      43.747 -20.009   3.049  1.00  0.00     0.036 A 
HETATM   20 CL   UNL     1      43.586 -20.466   1.396  1.00  0.00    -0.084 Cl
HETATM   21  C   UNL     1      43.798 -20.999   4.030  1.00  0.00     0.024 A 
HETATM   22  C   UNL     1      43.923 -20.632   5.367  1.00  0.00     0.004 A 
HETATM   23  C   UNL     1      43.996 -19.281   5.713  1.00  0.00     0.029 A 
ENDBRANCH  14  17
ENDBRANCH  12  13
ENDBRANCH  11  12
ENDBRANCH   4  11
BRANCH   8  24
HETATM   24  C   UNL     1      40.787  -9.222   6.200  1.00  0.00    -0.044 A 
HETATM   25  C   UNL     1      39.485  -8.825   6.547  1.00  0.00     0.008 A 
HETATM   26  C   UNL     1      38.844  -7.802   5.848  1.00  0.00     0.001 A 
HETATM   27  C   UNL     1      39.497  -7.162   4.798  1.00  0.00     0.000 A 
HETATM   28  C   UNL     1      40.793  -7.538   4.450  1.00  0.00     0.001 A 
HETATM   29  C   UNL     1      41.438  -8.562   5.145  1.00  0.00     0.008 A 
ENDBRANCH   8  24
BRANCH   9  30
HETATM   30  C   UNL     1      42.585  -9.152   8.886  1.00  0.00     0.255 C 
HETATM   31  N   UNL     1      42.390  -9.882  10.038  1.00  0.00    -0.321 N 
HETATM   32  H   UNL     1      42.088 -10.841   9.932  1.00  0.00     0.169 HD
HETATM   33  O   UNL     1      42.573  -7.931   8.768  1.00  0.00    -0.268 OA
BRANCH  31  34
HETATM   34  C   UNL     1      42.346  -9.346  11.346  1.00  0.00     0.068 A 
HETATM   35  C   UNL     1      41.291  -9.560  12.257  1.00  0.00     0.095 A 
HETATM   36  C   UNL     1      41.396  -9.051  13.558  1.00  0.00     0.039 A 
HETATM   37  C   UNL     1      42.508  -8.295  13.937  1.00  0.00     0.003 A 
HETATM   38  C   UNL     1      43.509  -8.016  13.013  1.00  0.00     0.002 A 
HETATM   39  C   UNL     1      43.423  -8.530  11.720  1.00  0.00     0.032 A 
BRANCH  35  40
HETATM   40  O   UNL     1      40.147 -10.142  11.771  1.00  0.00    -0.354 OA
HETATM   41  C   UNL     1      39.334 -10.863  12.685  1.00  0.00     0.210 C 
ENDBRANCH  35  40
ENDBRANCH  31  34
ENDBRANCH   9  30
TORSDOF 8
ENDMDL
MODEL 3
REMARK VINA RESULT:      -9.4      3.243      5.831
REMARK  8 active torsions:
REMARK  status: ('A' for Active; 'I' for Inactive)
REMARK    1  A    between atoms: C_4  and  S_5 
REMARK    2  A    between atoms: S_5  and  C_6 
REMARK    3  A    between atoms: C_6  and  C_7 
REMARK       I    between atoms: C_7  and  N_8 
REMARK    4  A    between atoms: N_8  and  C_9 
REMARK    5  A    between atoms: C_20  and  C_21 
REMARK    6  A    between atoms: C_27  and  C_28 
REMARK       I    between atoms: C_28  and  N_29 
REMARK    7  A    between atoms: N_29  and  C_30 
REMARK    8  A    between atoms: C_31  and  O_32 
ROOT
HETATM    1  C   UNL     1      41.292 -10.002   1.815  1.00  0.00     0.069 C 
HETATM    2  C   UNL     1      41.454 -11.146   2.783  1.00  0.00     0.019 C 
HETATM    3  N   UNL     1      42.152 -10.862   3.946  1.00  0.00    -0.353 N 
HETATM    4  C   UNL     1      42.268 -11.717   5.026  1.00  0.00     0.087 C 
HETATM    5  C   UNL     1      41.840 -12.996   4.904  1.00  0.00     0.055 C 
HETATM    6  C   UNL     1      42.169 -14.055   5.943  1.00  0.00     0.019 C 
HETATM    7  N   UNL     1      42.443 -14.933   6.805  1.00  0.00    -0.096 N 
HETATM    8  C   UNL     1      41.136 -13.482   3.631  1.00  0.00     0.104 C 
HETATM    9  C   UNL     1      40.939 -12.383   2.600  1.00  0.00     0.046 C 
HETATM   10  H   UNL     1      42.329  -9.882   4.152  1.00  0.00     0.166 HD
ENDROOT
BRANCH   4  11
HETATM   11  S   UNL     1      42.828 -11.083   6.556  1.00  0.00    -0.102 SA
BRANCH  11  12
HETATM   12  C   UNL     1      42.146  -9.395   6.562  1.00  0.00     0.184 C 
BRANCH  12  13
HETATM   13  C   UNL     1      41.809  -8.911   7.977  1.00  0.00     0.231 C 
HETATM   14  N   UNL     1      42.496  -9.558   8.989  1.00  0.00    -0.326 N 
HETATM   15  H   UNL     1      43.094 -10.320   8.681  1.00  0.00     0.169 HD
HETATM   16  O   UNL     1      41.011  -7.989   8.133  1.00  0.00    -0.272 OA
BRANCH  14  17
HETATM   17  C   UNL     1      42.412  -9.362  10.380  1.00  0.00     0.036 A 
HETATM   18  C   UNL     1      41.351  -9.803  11.172  1.00  0.00     0.053 A 
HETATM   19  C   UNL     1      41.363  -9.565  12.549  1.00  0.00     0.036 A 
HETATM   20 CL   UNL     1      40.049 -10.107  13.523  1.00  0.00    -0.084 Cl
HETATM   21  C   UNL     1      42.427  -8.894  13.150  1.00  0.00     0.024 A 
HETATM   22  C   UNL     1      43.488  -8.450  12.365  1.00  0.00     0.004 A 
HETATM   23  C   UNL     1      43.477  -8.680  10.988  1.00  0.00     0.029 A 
ENDBRANCH  14  17
ENDBRANCH  12  13
ENDBRANCH  11  12
ENDBRANCH   4  11
BRANCH   8  24
HETATM   24  C   UNL     1      41.834 -14.716   3.059  1.00  0.00    -0.044 A 
HETATM   25  C   UNL     1      42.997 -14.557   2.287  1.00  0.00     0.008 A 
HETATM   26  C   UNL     1      43.619 -15.660   1.703  1.00  0.00     0.001 A 
HETATM   27  C   UNL     1      43.090 -16.934   1.887  1.00  0.00     0.000 A 
HETATM   28  C   UNL     1      41.943 -17.109   2.660  1.00  0.00     0.001 A 
HETATM   29  C   UNL     1      41.316 -16.008   3.244  1.00  0.00     0.008 A 
ENDBRANCH   8  24
BRANCH   9  30
HETATM   30  C   UNL     1      39.911 -12.604   1.543  1.00  0.00     0.255 C 
HETATM   31  N   UNL     1      40.445 -12.876   0.302  1.00  0.00    -0.321 N 
HETATM   32  H   UNL     1      41.417 -12.639   0.155  1.00  0.00     0.169 HD
HETATM   33  O   UNL     1      38.728 -12.448   1.825  1.00  0.00    -0.268 OA
BRANCH  31  34
HETATM   34  C   UNL     1      39.702 -13.233  -0.847  1.00  0.00     0.068 A 
HETATM   35  C   UNL     1      39.138 -12.307  -1.749  1.00  0.00     0.095 A 
HETATM   36  C   UNL     1      38.496 -12.778  -2.901  1.00  0.00     0.039 A 
HETATM   37  C   UNL     1      38.367 -14.150  -3.132  1.00  0.00     0.003 A 
HETATM   38  C   UNL     1      38.852 -15.062  -2.200  1.00  0.00     0.002 A 
HETATM   39  C   UNL     1      39.507 -14.606  -1.057  1.00  0.00     0.032 A 
BRANCH  35  40
HETATM   40  O   UNL     1      39.129 -10.988  -1.372  1.00  0.00    -0.354 OA
HETATM   41  C   UNL     1      37.883 -10.417  -1.002  1.00  0.00     0.210 C 
ENDBRANCH  35  40
ENDBRANCH  31  34
ENDBRANCH   9  30
TORSDOF 8
ENDMDL
MODEL 4
REMARK VINA RESULT:      -9.3      4.984      8.201
REMARK  8 active torsions:
REMARK  status: ('A' for Active; 'I' for Inactive)
REMARK    1  A    between atoms: C_4  and  S_5 
REMARK    2  A    between atoms: S_5  and  C_6 
REMARK    3  A    between atoms: C_6  and  C_7 
REMARK       I    between atoms: C_7  and  N_8 
REMARK    4  A    between atoms: N_8  and  C_9 
REMARK    5  A    between atoms: C_20  and  C_21 
REMARK    6  A    between atoms: C_27  and  C_28 
REMARK       I    between atoms: C_28  and  N_29 
REMARK    7  A    between atoms: N_29  and  C_30 
REMARK    8  A    between atoms: C_31  and  O_32 
ROOT
HETATM    1  C   UNL     1      40.083 -15.346   0.591  1.00  0.00     0.069 C 
HETATM    2  C   UNL     1      39.983 -14.227   1.597  1.00  0.00     0.019 C 
HETATM    3  N   UNL     1      39.274 -13.108   1.189  1.00  0.00    -0.353 N 
HETATM    4  C   UNL     1      38.927 -12.051   2.010  1.00  0.00     0.087 C 
HETATM    5  C   UNL     1      39.455 -11.982   3.254  1.00  0.00     0.055 C 
HETATM    6  C   UNL     1      39.333 -10.731   4.110  1.00  0.00     0.019 C 
HETATM    7  N   UNL     1      39.232  -9.693   4.818  1.00  0.00    -0.096 N 
HETATM    8  C   UNL     1      40.342 -13.104   3.807  1.00  0.00     0.104 C 
HETATM    9  C   UNL     1      40.497 -14.271   2.846  1.00  0.00     0.046 C 
HETATM   10  H   UNL     1      38.719 -13.195   0.341  1.00  0.00     0.166 HD
ENDROOT
BRANCH   4  11
HETATM   11  S   UNL     1      37.710 -10.918   1.468  1.00  0.00    -0.102 SA
BRANCH  11  12
HETATM   12  C   UNL     1      37.674 -11.199  -0.330  1.00  0.00     0.184 C 
BRANCH  12  13
HETATM   13  C   UNL     1      39.012 -10.858  -0.996  1.00  0.00     0.231 C 
HETATM   14  N   UNL     1      39.325  -9.511  -1.009  1.00  0.00    -0.326 N 
HETATM   15  H   UNL     1      38.604  -8.900  -0.636  1.00  0.00     0.169 HD
HETATM   16  O   UNL     1      39.725 -11.761  -1.430  1.00  0.00    -0.272 OA
BRANCH  14  17
HETATM   17  C   UNL     1      40.459  -8.872  -1.546  1.00  0.00     0.036 A 
HETATM   18  C   UNL     1      40.552  -8.413  -2.860  1.00  0.00     0.053 A 
HETATM   19  C   UNL     1      41.721  -7.783  -3.297  1.00  0.00     0.036 A 
HETATM   20 CL   UNL     1      41.835  -7.223  -4.922  1.00  0.00    -0.084 Cl
HETATM   21  C   UNL     1      42.801  -7.601  -2.435  1.00  0.00     0.024 A 
HETATM   22  C   UNL     1      42.714  -8.057  -1.122  1.00  0.00     0.004 A 
HETATM   23  C   UNL     1      41.551  -8.692  -0.683  1.00  0.00     0.029 A 
ENDBRANCH  14  17
ENDBRANCH  12  13
ENDBRANCH  11  12
ENDBRANCH   4  11
BRANCH   8  24
HETATM   24  C   UNL     1      41.683 -12.551   4.292  1.00  0.00    -0.044 A 
HETATM   25  C   UNL     1      42.620 -12.088   3.353  1.00  0.00     0.008 A 
HETATM   26  C   UNL     1      43.873 -11.635   3.765  1.00  0.00     0.001 A 
HETATM   27  C   UNL     1      44.203 -11.635   5.117  1.00  0.00     0.000 A 
HETATM   28  C   UNL     1      43.279 -12.081   6.061  1.00  0.00     0.001 A 
HETATM   29  C   UNL     1      42.024 -12.537   5.654  1.00  0.00     0.008 A 
ENDBRANCH   8  24
BRANCH   9  30
HETATM   30  C   UNL     1      40.950 -15.575   3.411  1.00  0.00     0.255 C 
HETATM   31  N   UNL     1      42.272 -15.860   3.148  1.00  0.00    -0.321 N 
HETATM   32  H   UNL     1      42.719 -15.338   2.407  1.00  0.00     0.169 HD
HETATM   33  O   UNL     1      40.128 -16.298   3.963  1.00  0.00    -0.268 OA
BRANCH  31  34
HETATM   34  C   UNL     1      42.985 -16.970   3.658  1.00  0.00     0.068 A 
HETATM   35  C   UNL     1      43.374 -17.114   5.005  1.00  0.00     0.095 A 
HETATM   36  C   UNL     1      44.001 -18.299   5.414  1.00  0.00     0.039 A 
HETATM   37  C   UNL     1      44.285 -19.307   4.489  1.00  0.00     0.003 A 
HETATM   38  C   UNL     1      43.974 -19.129   3.146  1.00  0.00     0.002 A 
HETATM   39  C   UNL     1      43.336 -17.961   2.729  1.00  0.00     0.032 A 
BRANCH  35  40
HETATM   40  O   UNL     1      43.242 -16.018   5.820  1.00  0.00    -0.354 OA
HETATM   41  C   UNL     1      42.364 -16.125   6.930  1.00  0.00     0.210 C 
ENDBRANCH  35  40
ENDBRANCH  31  34
ENDBRANCH   9  30
TORSDOF 8
ENDMDL
MODEL 5
REMARK VINA RESULT:      -9.3      2.500      3.350
REMARK  8 active torsions:
REMARK  status: ('A' for Active; 'I' for Inactive)
REMARK    1  A    between atoms: C_4  and  S_5 
REMARK    2  A    between atoms: S_5  and  C_6 
REMARK    3  A    between atoms: C_6  and  C_7 
REMARK       I    between atoms: C_7  and  N_8 
REMARK    4  A    between atoms: N_8  and  C_9 
REMARK    5  A    between atoms: C_20  and  C_21 
REMARK    6  A    between atoms: C_27  and  C_28 
REMARK       I    between atoms: C_28  and  N_29 
REMARK    7  A    between atoms: N_29  and  C_30 
REMARK    8  A    between atoms: C_31  and  O_32 
ROOT
HETATM    1  C   UNL     1      40.116 -13.739   5.682  1.00  0.00     0.069 C 
HETATM    2  C   UNL     1      40.480 -12.981   4.431  1.00  0.00     0.019 C 
HETATM    3  N   UNL     1      40.517 -11.601   4.548  1.00  0.00    -0.353 N 
HETATM    4  C   UNL     1      40.983 -10.738   3.573  1.00  0.00     0.087 C 
HETATM    5  C   UNL     1      41.261 -11.224   2.340  1.00  0.00     0.055 C 
HETATM    6  C   UNL     1      41.522 -10.307   1.157  1.00  0.00     0.019 C 
HETATM    7  N   UNL     1      41.738  -9.545   0.176  1.00  0.00    -0.096 N 
HETATM    8  C   UNL     1      41.167 -12.724   2.035  1.00  0.00     0.104 C 
HETATM    9  C   UNL     1      40.799 -13.559   3.251  1.00  0.00     0.046 C 
HETATM   10  H   UNL     1      40.491 -11.215   5.488  1.00  0.00     0.166 HD
ENDROOT
BRANCH   4  11
HETATM   11  S   UNL     1      41.338  -9.081   4.004  1.00  0.00    -0.102 SA
BRANCH  11  12
HETATM   12  C   UNL     1      40.640  -8.946   5.680  1.00  0.00     0.184 C 
BRANCH  12  13
HETATM   13  C   UNL     1      41.698  -8.557   6.718  1.00  0.00     0.231 C 
HETATM   14  N   UNL     1      42.161  -9.604   7.494  1.00  0.00    -0.326 N 
HETATM   15  H   UNL     1      41.699 -10.495   7.330  1.00  0.00     0.169 HD
HETATM   16  O   UNL     1      42.093  -7.395   6.780  1.00  0.00    -0.272 OA
BRANCH  14  17
HETATM   17  C   UNL     1      43.113  -9.584   8.530  1.00  0.00     0.036 A 
HETATM   18  C   UNL     1      42.881  -9.051   9.799  1.00  0.00     0.053 A 
HETATM   19  C   UNL     1      43.891  -9.085  10.764  1.00  0.00     0.036 A 
HETATM   20 CL   UNL     1      43.603  -8.420  12.327  1.00  0.00    -0.084 Cl
HETATM   21  C   UNL     1      45.134  -9.650  10.481  1.00  0.00     0.024 A 
HETATM   22  C   UNL     1      45.372 -10.183   9.217  1.00  0.00     0.004 A 
HETATM   23  C   UNL     1      44.367 -10.146   8.247  1.00  0.00     0.029 A 
ENDBRANCH  14  17
ENDBRANCH  12  13
ENDBRANCH  11  12
ENDBRANCH   4  11
BRANCH   8  24
HETATM   24  C   UNL     1      40.253 -12.982   0.837  1.00  0.00    -0.044 A 
HETATM   25  C   UNL     1      40.595 -13.979  -0.091  1.00  0.00     0.008 A 
HETATM   26  C   UNL     1      39.810 -14.195  -1.223  1.00  0.00     0.001 A 
HETATM   27  C   UNL     1      38.675 -13.420  -1.440  1.00  0.00     0.000 A 
HETATM   28  C   UNL     1      38.317 -12.434  -0.523  1.00  0.00     0.001 A 
HETATM   29  C   UNL     1      39.100 -12.213   0.612  1.00  0.00     0.008 A 
ENDBRANCH   8  24
BRANCH   9  30
HETATM   30  C   UNL     1      41.099 -15.019   3.202  1.00  0.00     0.255 C 
HETATM   31  N   UNL     1      42.444 -15.308   3.277  1.00  0.00    -0.321 N 
HETATM   32  H   UNL     1      43.090 -14.555   3.086  1.00  0.00     0.169 HD
HETATM   33  O   UNL     1      40.177 -15.807   3.019  1.00  0.00    -0.268 OA
BRANCH  31  34
HETATM   34  C   UNL     1      42.996 -16.608   3.365  1.00  0.00     0.068 A 
HETATM   35  C   UNL     1      43.682 -17.106   4.491  1.00  0.00     0.095 A 
HETATM   36  C   UNL     1      44.110 -18.440   4.497  1.00  0.00     0.039 A 
HETATM   37  C   UNL     1      43.907 -19.256   3.382  1.00  0.00     0.003 A 
HETATM   38  C   UNL     1      43.302 -18.739   2.241  1.00  0.00     0.002 A 
HETATM   39  C   UNL     1      42.858 -17.417   2.228  1.00  0.00     0.032 A 
BRANCH  35  40
HETATM   40  O   UNL     1      44.018 -16.207   5.472  1.00  0.00    -0.354 OA
HETATM   41  C   UNL     1      44.219 -16.708   6.785  1.00  0.00     0.210 C 
ENDBRANCH  35  40
ENDBRANCH  31  34
ENDBRANCH   9  30
TORSDOF 8
ENDMDL
MODEL 6
REMARK VINA RESULT:      -9.2      4.263      9.447
REMARK  8 active torsions:
REMARK  status: ('A' for Active; 'I' for Inactive)
REMARK    1  A    between atoms: C_4  and  S_5 
REMARK    2  A    between atoms: S_5  and  C_6 
REMARK    3  A    between atoms: C_6  and  C_7 
REMARK       I    between atoms: C_7  and  N_8 
REMARK    4  A    between atoms: N_8  and  C_9 
REMARK    5  A    between atoms: C_20  and  C_21 
REMARK    6  A    between atoms: C_27  and  C_28 
REMARK       I    between atoms: C_28  and  N_29 
REMARK    7  A    between atoms: N_29  and  C_30 
REMARK    8  A    between atoms: C_31  and  O_32 
ROOT
HETATM    1  C   UNL     1      40.510 -11.036   4.193  1.00  0.00     0.069 C 
HETATM    2  C   UNL     1      41.070 -12.412   3.940  1.00  0.00     0.019 C 
HETATM    3  N   UNL     1      40.281 -13.256   3.175  1.00  0.00    -0.353 N 
HETATM    4  C   UNL     1      40.680 -14.490   2.694  1.00  0.00     0.087 C 
HETATM    5  C   UNL     1      41.845 -15.023   3.131  1.00  0.00     0.055 C 
HETATM    6  C   UNL     1      42.218 -16.470   2.856  1.00  0.00     0.019 C 
HETATM    7  N   UNL     1      42.526 -17.671   2.628  1.00  0.00    -0.096 N 
HETATM    8  C   UNL     1      42.777 -14.242   4.064  1.00  0.00     0.104 C 
HETATM    9  C   UNL     1      42.278 -12.840   4.372  1.00  0.00     0.046 C 
HETATM   10  H   UNL     1      39.494 -12.837   2.685  1.00  0.00     0.166 HD
ENDROOT
BRANCH   4  11
HETATM   11  S   UNL     1      39.742 -15.253   1.431  1.00  0.00    -0.102 SA
BRANCH  11  12
HETATM   12  C   UNL     1      40.581 -14.694  -0.084  1.00  0.00     0.184 C 
BRANCH  12  13
HETATM   13  C   UNL     1      40.299 -13.218  -0.391  1.00  0.00     0.231 C 
HETATM   14  N   UNL     1      41.148 -12.649  -1.322  1.00  0.00    -0.326 N 
HETATM   15  H   UNL     1      41.898 -13.254  -1.645  1.00  0.00     0.169 HD
HETATM   16  O   UNL     1      39.352 -12.653   0.151  1.00  0.00    -0.272 OA
BRANCH  14  17
HETATM   17  C   UNL     1      41.166 -11.329  -1.812  1.00  0.00     0.036 A 
HETATM   18  C   UNL     1      41.788 -10.260  -1.166  1.00  0.00     0.053 A 
HETATM   19  C   UNL     1      41.756  -8.986  -1.738  1.00  0.00     0.036 A 
HETATM   20 CL   UNL     1      42.520  -7.668  -0.934  1.00  0.00    -0.084 Cl
HETATM   21  C   UNL     1      41.112  -8.763  -2.954  1.00  0.00     0.024 A 
HETATM   22  C   UNL     1      40.488  -9.825  -3.604  1.00  0.00     0.004 A 
HETATM   23  C   UNL     1      40.513 -11.099  -3.033  1.00  0.00     0.029 A 
ENDBRANCH  14  17
ENDBRANCH  12  13
ENDBRANCH  11  12
ENDBRANCH   4  11
BRANCH   8  24
HETATM   24  C   UNL     1      43.093 -15.050   5.323  1.00  0.00    -0.044 A 
HETATM   25  C   UNL     1      42.156 -15.094   6.369  1.00  0.00     0.008 A 
HETATM   26  C   UNL     1      42.444 -15.775   7.552  1.00  0.00     0.001 A 
HETATM   27  C   UNL     1      43.667 -16.422   7.703  1.00  0.00     0.000 A 
HETATM   28  C   UNL     1      44.602 -16.396   6.669  1.00  0.00     0.001 A 
HETATM   29  C   UNL     1      44.320 -15.715   5.484  1.00  0.00     0.008 A 
ENDBRANCH   8  24
BRANCH   9  30
HETATM   30  C   UNL     1      43.268 -11.851   4.887  1.00  0.00     0.255 C 
HETATM   31  N   UNL     1      43.184 -11.642   6.246  1.00  0.00    -0.321 N 
HETATM   32  H   UNL     1      42.334 -11.937   6.708  1.00  0.00     0.169 HD
HETATM   33  O   UNL     1      43.988 -11.263   4.087  1.00  0.00    -0.268 OA
BRANCH  31  34
HETATM   34  C   UNL     1      44.072 -10.845   7.006  1.00  0.00     0.068 A 
HETATM   35  C   UNL     1      43.683  -9.715   7.754  1.00  0.00     0.095 A 
HETATM   36  C   UNL     1      44.636  -9.053   8.540  1.00  0.00     0.039 A 
HETATM   37  C   UNL     1      45.968  -9.473   8.545  1.00  0.00     0.003 A 
HETATM   38  C   UNL     1      46.366 -10.538   7.743  1.00  0.00     0.002 A 
HETATM   39  C   UNL     1      45.424 -11.215   6.969  1.00  0.00     0.032 A 
BRANCH  35  40
HETATM   40  O   UNL     1      42.411  -9.238   7.559  1.00  0.00    -0.354 OA
HETATM   41  C   UNL     1      42.262  -7.854   7.277  1.00  0.00     0.210 C 
ENDBRANCH  35  40
ENDBRANCH  31  34
ENDBRANCH   9  30
TORSDOF 8
ENDMDL
MODEL 7
REMARK VINA RESULT:      -9.1      4.187      9.349
REMARK  8 active torsions:
REMARK  status: ('A' for Active; 'I' for Inactive)
REMARK    1  A    between atoms: C_4  and  S_5 
REMARK    2  A    between atoms: S_5  and  C_6 
REMARK    3  A    between atoms: C_6  and  C_7 
REMARK       I    between atoms: C_7  and  N_8 
REMARK    4  A    between atoms: N_8  and  C_9 
REMARK    5  A    between atoms: C_20  and  C_21 
REMARK    6  A    between atoms: C_27  and  C_28 
REMARK       I    between atoms: C_28  and  N_29 
REMARK    7  A    between atoms: N_29  and  C_30 
REMARK    8  A    between atoms: C_31  and  O_32 
ROOT
HETATM    1  C   UNL     1      40.480 -11.203   4.062  1.00  0.00     0.069 C 
HETATM    2  C   UNL     1      41.076 -12.570   3.839  1.00  0.00     0.019 C 
HETATM    3  N   UNL     1      40.321 -13.442   3.070  1.00  0.00    -0.353 N 
HETATM    4  C   UNL     1      40.757 -14.673   2.615  1.00  0.00     0.087 C 
HETATM    5  C   UNL     1      41.924 -15.173   3.083  1.00  0.00     0.055 C 
HETATM    6  C   UNL     1      42.335 -16.616   2.836  1.00  0.00     0.019 C 
HETATM    7  N   UNL     1      42.675 -17.812   2.631  1.00  0.00    -0.096 N 
HETATM    8  C   UNL     1      42.820 -14.359   4.024  1.00  0.00     0.104 C 
HETATM    9  C   UNL     1      42.283 -12.965   4.302  1.00  0.00     0.046 C 
HETATM   10  H   UNL     1      39.535 -13.047   2.559  1.00  0.00     0.166 HD
ENDROOT
BRANCH   4  11
HETATM   11  S   UNL     1      39.862 -15.474   1.344  1.00  0.00    -0.102 SA
BRANCH  11  12
HETATM   12  C   UNL     1      40.455 -14.629  -0.156  1.00  0.00     0.184 C 
BRANCH  12  13
HETATM   13  C   UNL     1      39.878 -13.215  -0.290  1.00  0.00     0.231 C 
HETATM   14  N   UNL     1      38.577 -13.163  -0.758  1.00  0.00    -0.326 N 
HETATM   15  H   UNL     1      38.180 -14.061  -1.019  1.00  0.00     0.169 HD
HETATM   16  O   UNL     1      40.555 -12.246   0.047  1.00  0.00    -0.272 OA
BRANCH  14  17
HETATM   17  C   UNL     1      37.770 -12.036  -1.001  1.00  0.00     0.036 A 
HETATM   18  C   UNL     1      37.297 -11.180  -0.006  1.00  0.00     0.053 A 
HETATM   19  C   UNL     1      36.507 -10.080  -0.350  1.00  0.00     0.036 A 
HETATM   20 CL   UNL     1      35.920  -9.029   0.882  1.00  0.00    -0.084 Cl
HETATM   21  C   UNL     1      36.183  -9.820  -1.681  1.00  0.00     0.024 A 
HETATM   22  C   UNL     1      36.652 -10.670  -2.679  1.00  0.00     0.004 A 
HETATM   23  C   UNL     1      37.437 -11.773  -2.339  1.00  0.00     0.029 A 
ENDBRANCH  14  17
ENDBRANCH  12  13
ENDBRANCH  11  12
ENDBRANCH   4  11
BRANCH   8  24
HETATM   24  C   UNL     1      43.127 -15.143   5.300  1.00  0.00    -0.044 A 
HETATM   25  C   UNL     1      42.166 -15.204   6.322  1.00  0.00     0.008 A 
HETATM   26  C   UNL     1      42.443 -15.862   7.520  1.00  0.00     0.001 A 
HETATM   27  C   UNL     1      43.681 -16.469   7.710  1.00  0.00     0.000 A 
HETATM   28  C   UNL     1      44.642 -16.426   6.700  1.00  0.00     0.001 A 
HETATM   29  C   UNL     1      44.370 -15.768   5.500  1.00  0.00     0.008 A 
ENDBRANCH   8  24
BRANCH   9  30
HETATM   30  C   UNL     1      43.241 -11.947   4.823  1.00  0.00     0.255 C 
HETATM   31  N   UNL     1      43.150 -11.749   6.183  1.00  0.00    -0.321 N 
HETATM   32  H   UNL     1      42.310 -12.074   6.643  1.00  0.00     0.169 HD
HETATM   33  O   UNL     1      43.941 -11.331   4.026  1.00  0.00    -0.268 OA
BRANCH  31  34
HETATM   34  C   UNL     1      44.010 -10.928   6.948  1.00  0.00     0.068 A 
HETATM   35  C   UNL     1      43.610  -9.741   7.595  1.00  0.00     0.095 A 
HETATM   36  C   UNL     1      44.530  -9.054   8.399  1.00  0.00     0.039 A 
HETATM   37  C   UNL     1      45.845  -9.509   8.518  1.00  0.00     0.003 A 
HETATM   38  C   UNL     1      46.261 -10.634   7.814  1.00  0.00     0.002 A 
HETATM   39  C   UNL     1      45.351 -11.334   7.024  1.00  0.00     0.032 A 
BRANCH  35  40
HETATM   40  O   UNL     1      42.368  -9.245   7.287  1.00  0.00    -0.354 OA
HETATM   41  C   UNL     1      41.413  -9.159   8.335  1.00  0.00     0.210 C 
ENDBRANCH  35  40
ENDBRANCH  31  34
ENDBRANCH   9  30
TORSDOF 8
ENDMDL
MODEL 8
REMARK VINA RESULT:      -9.0      4.413      7.836
REMARK  8 active torsions:
REMARK  status: ('A' for Active; 'I' for Inactive)
REMARK    1  A    between atoms: C_4  and  S_5 
REMARK    2  A    between atoms: S_5  and  C_6 
REMARK    3  A    between atoms: C_6  and  C_7 
REMARK       I    between atoms: C_7  and  N_8 
REMARK    4  A    between atoms: N_8  and  C_9 
REMARK    5  A    between atoms: C_20  and  C_21 
REMARK    6  A    between atoms: C_27  and  C_28 
REMARK       I    between atoms: C_28  and  N_29 
REMARK    7  A    between atoms: N_29  and  C_30 
REMARK    8  A    between atoms: C_31  and  O_32 
ROOT
HETATM    1  C   UNL     1      40.242 -14.592   1.195  1.00  0.00     0.069 C 
HETATM    2  C   UNL     1      40.291 -13.711   2.418  1.00  0.00     0.019 C 
HETATM    3  N   UNL     1      39.667 -12.479   2.303  1.00  0.00    -0.353 N 
HETATM    4  C   UNL     1      39.458 -11.599   3.349  1.00  0.00     0.087 C 
HETATM    5  C   UNL     1      40.050 -11.840   4.542  1.00  0.00     0.055 C 
HETATM    6  C   UNL     1      40.083 -10.797   5.646  1.00  0.00     0.019 C 
HETATM    7  N   UNL     1      40.111  -9.930   6.562  1.00  0.00    -0.096 N 
HETATM    8  C   UNL     1      40.859 -13.119   4.785  1.00  0.00     0.104 C 
HETATM    9  C   UNL     1      40.861 -14.061   3.593  1.00  0.00     0.046 C 
HETATM   10  H   UNL     1      39.065 -12.339   1.495  1.00  0.00     0.166 HD
ENDROOT
BRANCH   4  11
HETATM   11  S   UNL     1      38.322 -10.286   3.140  1.00  0.00    -0.102 SA
BRANCH  11  12
HETATM   12  C   UNL     1      39.358  -8.970   2.429  1.00  0.00     0.184 C 
BRANCH  12  13
HETATM   13  C   UNL     1      40.202  -9.470   1.250  1.00  0.00     0.231 C 
HETATM   14  N   UNL     1      39.471  -9.902   0.158  1.00  0.00    -0.326 N 
HETATM   15  H   UNL     1      38.464  -9.899   0.289  1.00  0.00     0.169 HD
HETATM   16  O   UNL     1      41.428  -9.427   1.317  1.00  0.00    -0.272 OA
BRANCH  14  17
HETATM   17  C   UNL     1      39.934 -10.424  -1.064  1.00  0.00     0.036 A 
HETATM   18  C   UNL     1      40.035 -11.786  -1.349  1.00  0.00     0.053 A 
HETATM   19  C   UNL     1      40.500 -12.205  -2.598  1.00  0.00     0.036 A 
HETATM   20 CL   UNL     1      40.629 -13.888  -2.943  1.00  0.00    -0.084 Cl
HETATM   21  C   UNL     1      40.865 -11.278  -3.574  1.00  0.00     0.024 A 
HETATM   22  C   UNL     1      40.768  -9.917  -3.296  1.00  0.00     0.004 A 
HETATM   23  C   UNL     1      40.308  -9.494  -2.047  1.00  0.00     0.029 A 
ENDBRANCH  14  17
ENDBRANCH  12  13
ENDBRANCH  11  12
ENDBRANCH   4  11
BRANCH   8  24
HETATM   24  C   UNL     1      42.266 -12.789   5.284  1.00  0.00    -0.044 A 
HETATM   25  C   UNL     1      42.710 -13.323   6.505  1.00  0.00     0.008 A 
HETATM   26  C   UNL     1      43.967 -12.990   7.011  1.00  0.00     0.001 A 
HETATM   27  C   UNL     1      44.794 -12.124   6.303  1.00  0.00     0.000 A 
HETATM   28  C   UNL     1      44.372 -11.594   5.084  1.00  0.00     0.001 A 
HETATM   29  C   UNL     1      43.115 -11.923   4.574  1.00  0.00     0.008 A 
ENDBRANCH   8  24
BRANCH   9  30
HETATM   30  C   UNL     1      41.223 -15.487   3.839  1.00  0.00     0.255 C 
HETATM   31  N   UNL     1      42.399 -15.870   3.234  1.00  0.00    -0.321 N 
HETATM   32  H   UNL     1      42.750 -15.282   2.491  1.00  0.00     0.169 HD
HETATM   33  O   UNL     1      40.439 -16.198   4.459  1.00  0.00    -0.268 OA
BRANCH  31  34
HETATM   34  C   UNL     1      43.029 -17.127   3.394  1.00  0.00     0.068 A 
HETATM   35  C   UNL     1      43.787 -17.498   4.523  1.00  0.00     0.095 A 
HETATM   36  C   UNL     1      44.292 -18.802   4.611  1.00  0.00     0.039 A 
HETATM   37  C   UNL     1      44.092 -19.712   3.570  1.00  0.00     0.003 A 
HETATM   38  C   UNL     1      43.414 -19.319   2.421  1.00  0.00     0.002 A 
HETATM   39  C   UNL     1      42.894 -18.029   2.328  1.00  0.00     0.032 A 
BRANCH  35  40
HETATM   40  O   UNL     1      44.109 -16.508   5.418  1.00  0.00    -0.354 OA
HETATM   41  C   UNL     1      43.921 -16.781   6.798  1.00  0.00     0.210 C 
ENDBRANCH  35  40
ENDBRANCH  31  34
ENDBRANCH   9  30
TORSDOF 8
ENDMDL
MODEL 9
REMARK VINA RESULT:      -8.7      5.879      8.075
REMARK  8 active torsions:
REMARK  status: ('A' for Active; 'I' for Inactive)
REMARK    1  A    between atoms: C_4  and  S_5 
REMARK    2  A    between atoms: S_5  and  C_6 
REMARK    3  A    between atoms: C_6  and  C_7 
REMARK       I    between atoms: C_7  and  N_8 
REMARK    4  A    between atoms: N_8  and  C_9 
REMARK    5  A    between atoms: C_20  and  C_21 
REMARK    6  A    between atoms: C_27  and  C_28 
REMARK       I    between atoms: C_28  and  N_29 
REMARK    7  A    between atoms: N_29  and  C_30 
REMARK    8  A    between atoms: C_31  and  O_32 
ROOT
HETATM    1  C   UNL     1      40.732 -11.173   3.094  1.00  0.00     0.069 C 
HETATM    2  C   UNL     1      40.840 -11.162   1.590  1.00  0.00     0.019 C 
HETATM    3  N   UNL     1      40.999  -9.916   1.004  1.00  0.00    -0.353 N 
HETATM    4  C   UNL     1      41.280  -9.703  -0.333  1.00  0.00     0.087 C 
HETATM    5  C   UNL     1      41.221 -10.746  -1.194  1.00  0.00     0.055 C 
HETATM    6  C   UNL     1      41.257 -10.547  -2.700  1.00  0.00     0.019 C 
HETATM    7  N   UNL     1      41.286 -10.381  -3.949  1.00  0.00    -0.096 N 
HETATM    8  C   UNL     1      40.954 -12.173  -0.699  1.00  0.00     0.104 C 
HETATM    9  C   UNL     1      40.828 -12.267   0.813  1.00  0.00     0.046 C 
HETATM   10  H   UNL     1      41.225  -9.139   1.621  1.00  0.00     0.166 HD
ENDROOT
BRANCH   4  11
HETATM   11  S   UNL     1      41.841  -8.127  -0.843  1.00  0.00    -0.102 SA
BRANCH  11  12
HETATM   12  C   UNL     1      40.995  -7.007   0.315  1.00  0.00     0.184 C 
BRANCH  12  13
HETATM   13  C   UNL     1      41.762  -5.696   0.518  1.00  0.00     0.231 C 
HETATM   14  N   UNL     1      43.121  -5.778   0.276  1.00  0.00    -0.326 N 
HETATM   15  H   UNL     1      43.462  -6.709   0.057  1.00  0.00     0.169 HD
HETATM   16  O   UNL     1      41.153  -4.676   0.832  1.00  0.00    -0.272 OA
BRANCH  14  17
HETATM   17  C   UNL     1      44.100  -4.771   0.379  1.00  0.00     0.036 A 
HETATM   18  C   UNL     1      44.647  -4.328   1.584  1.00  0.00     0.053 A 
HETATM   19  C   UNL     1      45.621  -3.326   1.581  1.00  0.00     0.036 A 
HETATM   20 CL   UNL     1      46.289  -2.778   3.071  1.00  0.00    -0.084 Cl
HETATM   21  C   UNL     1      46.061  -2.759   0.385  1.00  0.00     0.024 A 
HETATM   22  C   UNL     1      45.519  -3.196  -0.820  1.00  0.00     0.004 A 
HETATM   23  C   UNL     1      44.541  -4.194  -0.821  1.00  0.00     0.029 A 
ENDBRANCH  14  17
ENDBRANCH  12  13
ENDBRANCH  11  12
ENDBRANCH   4  11
BRANCH   8  24
HETATM   24  C   UNL     1      39.766 -12.793  -1.434  1.00  0.00    -0.044 A 
HETATM   25  C   UNL     1      39.971 -13.909  -2.262  1.00  0.00     0.008 A 
HETATM   26  C   UNL     1      38.915 -14.457  -2.990  1.00  0.00     0.001 A 
HETATM   27  C   UNL     1      37.643 -13.899  -2.898  1.00  0.00     0.000 A 
HETATM   28  C   UNL     1      37.422 -12.798  -2.071  1.00  0.00     0.001 A 
HETATM   29  C   UNL     1      38.476 -12.245  -1.342  1.00  0.00     0.008 A 
ENDBRANCH   8  24
BRANCH   9  30
HETATM   30  C   UNL     1      41.006 -13.610   1.438  1.00  0.00     0.255 C 
HETATM   31  N   UNL     1      42.323 -13.940   1.670  1.00  0.00    -0.321 N 
HETATM   32  H   UNL     1      43.027 -13.411   1.174  1.00  0.00     0.169 HD
HETATM   33  O   UNL     1      40.020 -14.318   1.609  1.00  0.00    -0.268 OA
BRANCH  31  34
HETATM   34  C   UNL     1      42.767 -15.098   2.350  1.00  0.00     0.068 A 
HETATM   35  C   UNL     1      42.970 -15.174   3.743  1.00  0.00     0.095 A 
HETATM   36  C   UNL     1      43.328 -16.400   4.318  1.00  0.00     0.039 A 
HETATM   37  C   UNL     1      43.533 -17.526   3.517  1.00  0.00     0.003 A 
HETATM   38  C   UNL     1      43.411 -17.430   2.135  1.00  0.00     0.002 A 
HETATM   39  C   UNL     1      43.041 -16.219   1.553  1.00  0.00     0.032 A 
BRANCH  35  40
HETATM   40  O   UNL     1      42.941 -13.996   4.448  1.00  0.00    -0.354 OA
HETATM   41  C   UNL     1      42.084 -13.926   5.578  1.00  0.00     0.210 C 
ENDBRANCH  35  40
ENDBRANCH  31  34
ENDBRANCH   9  30
TORSDOF 8
ENDMDL
MODEL 10
REMARK VINA RESULT:      -8.6      2.551      4.586
REMARK  8 active torsions:
REMARK  status: ('A' for Active; 'I' for Inactive)
REMARK    1  A    between atoms: C_4  and  S_5 
REMARK    2  A    between atoms: S_5  and  C_6 
REMARK    3  A    between atoms: C_6  and  C_7 
REMARK       I    between atoms: C_7  and  N_8 
REMARK    4  A    between atoms: N_8  and  C_9 
REMARK    5  A    between atoms: C_20  and  C_21 
REMARK    6  A    between atoms: C_27  and  C_28 
REMARK       I    between atoms: C_28  and  N_29 
REMARK    7  A    between atoms: N_29  and  C_30 
REMARK    8  A    between atoms: C_31  and  O_32 
ROOT
HETATM    1  C   UNL     1      43.722 -14.414   6.457  1.00  0.00     0.069 C 
HETATM    2  C   UNL     1      43.383 -12.948   6.548  1.00  0.00     0.019 C 
HETATM    3  N   UNL     1      43.811 -12.298   7.695  1.00  0.00    -0.353 N 
HETATM    4  C   UNL     1      43.747 -10.931   7.898  1.00  0.00     0.087 C 
HETATM    5  C   UNL     1      43.061 -10.165   7.018  1.00  0.00     0.055 C 
HETATM    6  C   UNL     1      42.727  -8.711   7.310  1.00  0.00     0.019 C 
HETATM    7  N   UNL     1      42.450  -7.506   7.554  1.00  0.00    -0.096 N 
HETATM    8  C   UNL     1      42.445 -10.766   5.749  1.00  0.00     0.104 C 
HETATM    9  C   UNL     1      42.740 -12.249   5.587  1.00  0.00     0.046 C 
HETATM   10  H   UNL     1      44.476 -12.791   8.287  1.00  0.00     0.166 HD
ENDROOT
BRANCH   4  11
HETATM   11  S   UNL     1      44.673 -10.222   9.201  1.00  0.00    -0.102 SA
BRANCH  11  12
HETATM   12  C   UNL     1      43.683 -10.641  10.670  1.00  0.00     0.184 C 
BRANCH  12  13
HETATM   13  C   UNL     1      43.124  -9.395  11.366  1.00  0.00     0.231 C 
HETATM   14  N   UNL     1      42.271  -9.656  12.422  1.00  0.00    -0.326 N 
HETATM   15  H   UNL     1      42.063 -10.640  12.571  1.00  0.00     0.169 HD
HETATM   16  O   UNL     1      43.478  -8.278  10.994  1.00  0.00    -0.272 OA
BRANCH  14  17
HETATM   17  C   UNL     1      41.589  -8.748  13.254  1.00  0.00     0.036 A 
HETATM   18  C   UNL     1      40.323  -8.230  12.979  1.00  0.00     0.053 A 
HETATM   19  C   UNL     1      39.726  -7.337  13.873  1.00  0.00     0.036 A 
HETATM   20 CL   UNL     1      38.165  -6.695  13.526  1.00  0.00    -0.084 Cl
HETATM   21  C   UNL     1      40.376  -6.956  15.045  1.00  0.00     0.024 A 
HETATM   22  C   UNL     1      41.640  -7.468  15.325  1.00  0.00     0.004 A 
HETATM   23  C   UNL     1      42.243  -8.356  14.432  1.00  0.00     0.029 A 
ENDBRANCH  14  17
ENDBRANCH  12  13
ENDBRANCH  11  12
ENDBRANCH   4  11
BRANCH   8  24
HETATM   24  C   UNL     1      40.954 -10.444   5.660  1.00  0.00    -0.044 A 
HETATM   25  C   UNL     1      40.056 -11.075   6.538  1.00  0.00     0.008 A 
HETATM   26  C   UNL     1      38.684 -10.843   6.439  1.00  0.00     0.001 A 
HETATM   27  C   UNL     1      38.194  -9.977   5.466  1.00  0.00     0.000 A 
HETATM   28  C   UNL     1      39.073  -9.335   4.595  1.00  0.00     0.001 A 
HETATM   29  C   UNL     1      40.447  -9.564   4.689  1.00  0.00     0.008 A 
ENDBRANCH   8  24
BRANCH   9  30
HETATM   30  C   UNL     1      42.586 -12.838   4.225  1.00  0.00     0.255 C 
HETATM   31  N   UNL     1      41.393 -13.503   4.044  1.00  0.00    -0.321 N 
HETATM   32  H   UNL     1      40.878 -13.765   4.874  1.00  0.00     0.169 HD
HETATM   33  O   UNL     1      43.524 -12.765   3.439  1.00  0.00    -0.268 OA
BRANCH  31  34
HETATM   34  C   UNL     1      40.943 -14.056   2.822  1.00  0.00     0.068 A 
HETATM   35  C   UNL     1      40.703 -15.429   2.611  1.00  0.00     0.095 A 
HETATM   36  C   UNL     1      40.176 -15.851   1.384  1.00  0.00     0.039 A 
HETATM   37  C   UNL     1      39.937 -14.932   0.360  1.00  0.00     0.003 A 
HETATM   38  C   UNL     1      40.251 -13.589   0.541  1.00  0.00     0.002 A 
HETATM   39  C   UNL     1      40.762 -13.154   1.763  1.00  0.00     0.032 A 
BRANCH  35  40
HETATM   40  O   UNL     1      41.135 -16.299   3.580  1.00  0.00    -0.354 OA
HETATM   41  C   UNL     1      42.467 -16.783   3.485  1.00  0.00     0.210 C 
ENDBRANCH  35  40
ENDBRANCH  31  34
ENDBRANCH   9  30
TORSDOF 8
ENDMDL
